MODEL 1
REMARK VINA RESULT:      -9.6      0.000      0.000
REMARK  8 active torsions:
REMARK  status: ('A' for Active; 'I' for Inactive)
REMARK    1  A    between atoms: C_2  and  C_3 
REMARK    2  A    between atoms: C_3  and  N_4 
REMARK    3  A    between atoms: N_7  and  C_8 
REMARK    4  A    between atoms: C_8  and  C_9 
REMARK       I    between atoms: C_9  and  N_10 
REMARK    5  A    between atoms: N_10  and  C_11 
REMARK    6  A    between atoms: C_24  and  C_25 
REMARK       I    between atoms: C_25  and  N_26 
REMARK    7  A    between atoms: N_26  and  C_27 
REMARK    8  A    between atoms: C_27  and  C_28 
ROOT
HETATM    1  N   UNL     1      42.820 -16.784   3.463  1.00  0.00    -0.262 N 
HETATM    2  C   UNL     1      43.012 -15.680   2.645  1.00  0.00     0.332 C 
HETATM    3  O   UNL     1      43.107 -15.771   1.420  1.00  0.00    -0.246 OA
HETATM    4  N   UNL     1      43.101 -14.442   3.271  1.00  0.00    -0.290 N 
HETATM    5  C   UNL     1      43.183 -14.315   4.686  1.00  0.00     0.056 A 
HETATM    6  C   UNL     1      43.090 -15.454   5.482  1.00  0.00     0.059 A 
HETATM    7  C   UNL     1      42.876 -16.764   4.849  1.00  0.00     0.264 C 
HETATM    8  O   UNL     1      42.768 -17.760   5.561  1.00  0.00    -0.267 OA
HETATM    9  C   UNL     1      43.395 -13.076   5.319  1.00  0.00     0.048 A 
HETATM   10  C   UNL     1      43.520 -12.978   6.715  1.00  0.00     0.034 A 
HETATM   11  C   UNL     1      43.403 -14.137   7.490  1.00  0.00     0.018 A 
HETATM   12  C   UNL     1      43.183 -15.370   6.879  1.00  0.00     0.020 A 
ENDROOT
BRANCH  10  13
HETATM   13  C   UNL     1      43.868 -11.699   7.409  1.00  0.00     0.252 C 
HETATM   14  N   UNL     1      42.885 -10.739   7.505  1.00  0.00    -0.353 N 
HETATM   15  H   UNL     1      41.918 -10.950   7.307  1.00  0.00     0.163 HD
HETATM   16  O   UNL     1      45.003 -11.539   7.844  1.00  0.00    -0.268 OA
BRANCH  14  17
HETATM   17  C   UNL     1      43.150  -9.432   8.060  1.00  0.00     0.161 C 
BRANCH  17  18
HETATM   18  C   UNL     1      42.874  -9.407   9.541  1.00  0.00    -0.038 A 
HETATM   19  C   UNL     1      41.585  -9.672  10.029  1.00  0.00     0.048 A 
HETATM   20  C   UNL     1      41.388  -9.629  11.393  1.00  0.00     0.105 A 
HETATM   21  C   UNL     1      42.412  -9.348  12.267  1.00  0.00     0.105 A 
HETATM   22  O   UNL     1      40.206  -9.846  12.031  1.00  0.00    -0.323 OA
HETATM   23  O   UNL     1      42.002  -9.349  13.563  1.00  0.00    -0.323 OA
HETATM   24  C   UNL     1      43.694  -9.102  11.827  1.00  0.00     0.040 A 
HETATM   25  C   UNL     1      40.600  -9.648  13.405  1.00  0.00     0.352 A 
HETATM   26  C   UNL     1      43.925  -9.137  10.448  1.00  0.00     0.012 A 
ENDBRANCH  17  18
ENDBRANCH  14  17
ENDBRANCH  10  13
BRANCH   4  27
HETATM   27  C   UNL     1      42.940 -13.249   2.427  1.00  0.00     0.237 C 
BRANCH  27  28
HETATM   28  C   UNL     1      41.555 -13.014   1.824  1.00  0.00     0.240 C 
HETATM   29  N   UNL     1      41.470 -13.238   0.464  1.00  0.00    -0.326 N 
HETATM   30  H   UNL     1      42.315 -13.564   0.006  1.00  0.00     0.169 HD
HETATM   31  O   UNL     1      40.624 -12.714   2.569  1.00  0.00    -0.271 OA
BRANCH  29  32
HETATM   32  C   UNL     1      40.325 -13.087  -0.349  1.00  0.00     0.034 A 
HETATM   33  C   UNL     1      39.643 -11.877  -0.520  1.00  0.00     0.031 A 
HETATM   34  C   UNL     1      38.514 -11.800  -1.343  1.00  0.00     0.021 A 
HETATM   35  C   UNL     1      38.060 -12.935  -2.005  1.00  0.00     0.011 A 
HETATM   36 BR   UNL     1      36.535 -12.830  -3.114  1.00  0.00    -0.051 Br
HETATM   37  C   UNL     1      38.728 -14.148  -1.850  1.00  0.00     0.021 A 
HETATM   38  C   UNL     1      39.856 -14.220  -1.024  1.00  0.00     0.031 A 
ENDBRANCH  29  32
ENDBRANCH  27  28
ENDBRANCH   4  27
BRANCH   1  39
HETATM   39  C   UNL     1      42.535 -18.061   2.823  1.00  0.00     0.163 C 
BRANCH  39  40
HETATM   40  C   UNL     1      43.776 -18.908   2.662  1.00  0.00    -0.017 C 
HETATM   41  C   UNL     1      43.873 -20.196   2.296  1.00  0.00     0.008 C 
ENDBRANCH  39  40
ENDBRANCH   1  39
TORSDOF 8
ENDMDL
MODEL 2
REMARK VINA RESULT:      -9.1      3.304      6.596
REMARK  8 active torsions:
REMARK  status: ('A' for Active; 'I' for Inactive)
REMARK    1  A    between atoms: C_2  and  C_3 
REMARK    2  A    between atoms: C_3  and  N_4 
REMARK    3  A    between atoms: N_7  and  C_8 
REMARK    4  A    between atoms: C_8  and  C_9 
REMARK       I    between atoms: C_9  and  N_10 
REMARK    5  A    between atoms: N_10  and  C_11 
REMARK    6  A    between atoms: C_24  and  C_25 
REMARK       I    between atoms: C_25  and  N_26 
REMARK    7  A    between atoms: N_26  and  C_27 
REMARK    8  A    between atoms: C_27  and  C_28 
ROOT
HETATM    1  N   UNL     1      39.251 -13.042  -0.523  1.00  0.00    -0.262 N 
HETATM    2  C   UNL     1      40.258 -13.552   0.283  1.00  0.00     0.332 C 
HETATM    3  O   UNL     1      40.901 -14.559  -0.018  1.00  0.00    -0.246 OA
HETATM    4  N   UNL     1      40.518 -12.876   1.470  1.00  0.00    -0.290 N 
HETATM    5  C   UNL     1      39.679 -11.826   1.940  1.00  0.00     0.056 A 
HETATM    6  C   UNL     1      38.610 -11.401   1.155  1.00  0.00     0.059 A 
HETATM    7  C   UNL     1      38.385 -12.020  -0.160  1.00  0.00     0.264 C 
HETATM    8  O   UNL     1      37.456 -11.620  -0.856  1.00  0.00    -0.267 OA
HETATM    9  C   UNL     1      39.866 -11.220   3.197  1.00  0.00     0.048 A 
HETATM   10  C   UNL     1      38.998 -10.218   3.662  1.00  0.00     0.034 A 
HETATM   11  C   UNL     1      37.945  -9.797   2.844  1.00  0.00     0.018 A 
HETATM   12  C   UNL     1      37.753 -10.381   1.593  1.00  0.00     0.020 A 
ENDROOT
BRANCH  10  13
HETATM   13  C   UNL     1      39.094  -9.642   5.040  1.00  0.00     0.252 C 
HETATM   14  N   UNL     1      40.331  -9.209   5.464  1.00  0.00    -0.353 N 
HETATM   15  H   UNL     1      41.099  -9.090   4.822  1.00  0.00     0.163 HD
HETATM   16  O   UNL     1      38.091  -9.592   5.743  1.00  0.00    -0.268 OA
BRANCH  14  17
HETATM   17  C   UNL     1      40.550  -8.736   6.812  1.00  0.00     0.161 C 
BRANCH  17  18
HETATM   18  C   UNL     1      41.794  -9.344   7.403  1.00  0.00    -0.038 A 
HETATM   19  C   UNL     1      42.292  -8.892   8.636  1.00  0.00     0.048 A 
HETATM   20  C   UNL     1      43.439  -9.480   9.125  1.00  0.00     0.105 A 
HETATM   21  C   UNL     1      44.084 -10.488   8.450  1.00  0.00     0.105 A 
HETATM   22  O   UNL     1      44.060  -9.154  10.291  1.00  0.00    -0.323 OA
HETATM   23  O   UNL     1      45.196 -10.921   9.103  1.00  0.00    -0.323 OA
HETATM   24  C   UNL     1      43.616 -10.971   7.248  1.00  0.00     0.040 A 
HETATM   25  C   UNL     1      45.184 -10.059  10.260  1.00  0.00     0.352 A 
HETATM   26  C   UNL     1      42.455 -10.394   6.725  1.00  0.00     0.012 A 
ENDBRANCH  17  18
ENDBRANCH  14  17
ENDBRANCH  10  13
BRANCH   4  27
HETATM   27  C   UNL     1      41.789 -13.170   2.146  1.00  0.00     0.237 C 
BRANCH  27  28
HETATM   28  C   UNL     1      41.872 -14.489   2.914  1.00  0.00     0.240 C 
HETATM   29  N   UNL     1      42.940 -15.294   2.569  1.00  0.00    -0.326 N 
HETATM   30  H   UNL     1      43.578 -14.924   1.871  1.00  0.00     0.169 HD
HETATM   31  O   UNL     1      41.052 -14.714   3.803  1.00  0.00    -0.271 OA
BRANCH  29  32
HETATM   32  C   UNL     1      43.252 -16.563   3.105  1.00  0.00     0.034 A 
HETATM   33  C   UNL     1      43.172 -17.757   2.380  1.00  0.00     0.031 A 
HETATM   34  C   UNL     1      43.497 -18.981   2.976  1.00  0.00     0.021 A 
HETATM   35  C   UNL     1      43.909 -19.017   4.303  1.00  0.00     0.011 A 
HETATM   36 BR   UNL     1      44.346 -20.670   5.107  1.00  0.00    -0.051 Br
HETATM   37  C   UNL     1      43.997 -17.839   5.040  1.00  0.00     0.021 A 
HETATM   38  C   UNL     1      43.669 -16.617   4.440  1.00  0.00     0.031 A 
ENDBRANCH  29  32
ENDBRANCH  27  28
ENDBRANCH   4  27
BRANCH   1  39
HETATM   39  C   UNL     1      39.089 -13.616  -1.851  1.00  0.00     0.163 C 
BRANCH  39  40
HETATM   40  C   UNL     1      39.804 -12.813  -2.913  1.00  0.00    -0.017 C 
HETATM   41  C   UNL     1      41.078 -12.393  -2.933  1.00  0.00     0.008 C 
ENDBRANCH  39  40
ENDBRANCH   1  39
TORSDOF 8
ENDMDL
MODEL 3
REMARK VINA RESULT:      -8.9      3.575      5.750
REMARK  8 active torsions:
REMARK  status: ('A' for Active; 'I' for Inactive)
REMARK    1  A    between atoms: C_2  and  C_3 
REMARK    2  A    between atoms: C_3  and  N_4 
REMARK    3  A    between atoms: N_7  and  C_8 
REMARK    4  A    between atoms: C_8  and  C_9 
REMARK       I    between atoms: C_9  and  N_10 
REMARK    5  A    between atoms: N_10  and  C_11 
REMARK    6  A    between atoms: C_24  and  C_25 
REMARK       I    between atoms: C_25  and  N_26 
REMARK    7  A    between atoms: N_26  and  C_27 
REMARK    8  A    between atoms: C_27  and  C_28 
ROOT
HETATM    1  N   UNL     1      43.842 -17.434   4.395  1.00  0.00    -0.262 N 
HETATM    2  C   UNL     1      42.963 -17.201   3.347  1.00  0.00     0.332 C 
HETATM    3  O   UNL     1      42.904 -17.931   2.357  1.00  0.00    -0.246 OA
HETATM    4  N   UNL     1      42.137 -16.087   3.455  1.00  0.00    -0.290 N 
HETATM    5  C   UNL     1      42.302 -15.121   4.486  1.00  0.00     0.056 A 
HETATM    6  C   UNL     1      43.265 -15.329   5.471  1.00  0.00     0.059 A 
HETATM    7  C   UNL     1      44.071 -16.559   5.447  1.00  0.00     0.264 C 
HETATM    8  O   UNL     1      44.899 -16.747   6.335  1.00  0.00    -0.267 OA
HETATM    9  C   UNL     1      41.551 -13.932   4.531  1.00  0.00     0.048 A 
HETATM   10  C   UNL     1      41.762 -12.969   5.532  1.00  0.00     0.034 A 
HETATM   11  C   UNL     1      42.722 -13.214   6.519  1.00  0.00     0.018 A 
HETATM   12  C   UNL     1      43.468 -14.391   6.494  1.00  0.00     0.020 A 
ENDROOT
BRANCH  10  13
HETATM   13  C   UNL     1      41.069 -11.642   5.537  1.00  0.00     0.252 C 
HETATM   14  N   UNL     1      40.056 -11.450   4.625  1.00  0.00    -0.353 N 
HETATM   15  H   UNL     1      39.651 -12.219   4.113  1.00  0.00     0.163 HD
HETATM   16  O   UNL     1      41.432 -10.777   6.326  1.00  0.00    -0.268 OA
BRANCH  14  17
HETATM   17  C   UNL     1      39.397 -10.172   4.478  1.00  0.00     0.161 C 
BRANCH  17  18
HETATM   18  C   UNL     1      39.799  -9.501   3.192  1.00  0.00    -0.038 A 
HETATM   19  C   UNL     1      40.780 -10.074   2.366  1.00  0.00     0.048 A 
HETATM   20  C   UNL     1      41.114  -9.413   1.204  1.00  0.00     0.105 A 
HETATM   21  C   UNL     1      40.509  -8.233   0.839  1.00  0.00     0.105 A 
HETATM   22  O   UNL     1      42.048  -9.818   0.302  1.00  0.00    -0.323 OA
HETATM   23  O   UNL     1      40.990  -7.746  -0.336  1.00  0.00    -0.323 OA
HETATM   24  C   UNL     1      39.531  -7.651   1.613  1.00  0.00     0.040 A 
HETATM   25  C   UNL     1      41.977  -8.747  -0.662  1.00  0.00     0.352 A 
HETATM   26  C   UNL     1      39.170  -8.297   2.799  1.00  0.00     0.012 A 
ENDBRANCH  17  18
ENDBRANCH  14  17
ENDBRANCH  10  13
BRANCH   4  27
HETATM   27  C   UNL     1      40.973 -16.025   2.559  1.00  0.00     0.237 C 
BRANCH  27  28
HETATM   28  C   UNL     1      41.036 -15.012   1.416  1.00  0.00     0.240 C 
HETATM   29  N   UNL     1      39.808 -14.563   0.971  1.00  0.00    -0.326 N 
HETATM   30  H   UNL     1      38.993 -14.919   1.459  1.00  0.00     0.169 HD
HETATM   31  O   UNL     1      42.136 -14.625   1.023  1.00  0.00    -0.271 OA
BRANCH  29  32
HETATM   32  C   UNL     1      39.571 -13.642  -0.074  1.00  0.00     0.034 A 
HETATM   33  C   UNL     1      39.789 -13.923  -1.426  1.00  0.00     0.031 A 
HETATM   34  C   UNL     1      39.532 -12.961  -2.409  1.00  0.00     0.021 A 
HETATM   35  C   UNL     1      39.049 -11.710  -2.044  1.00  0.00     0.011 A 
HETATM   36 BR   UNL     1      38.703 -10.411  -3.372  1.00  0.00    -0.051 Br
HETATM   37  C   UNL     1      38.823 -11.412  -0.703  1.00  0.00     0.021 A 
HETATM   38  C   UNL     1      39.084 -12.377   0.278  1.00  0.00     0.031 A 
ENDBRANCH  29  32
ENDBRANCH  27  28
ENDBRANCH   4  27
BRANCH   1  39
HETATM   39  C   UNL     1      44.578 -18.689   4.395  1.00  0.00     0.163 C 
BRANCH  39  40
HETATM   40  C   UNL     1      43.922 -19.737   5.265  1.00  0.00    -0.017 C 
HETATM   41  C   UNL     1      43.823 -21.059   5.058  1.00  0.00     0.008 C 
ENDBRANCH  39  40
ENDBRANCH   1  39
TORSDOF 8
ENDMDL
MODEL 4
REMARK VINA RESULT:      -8.8      2.730      8.663
REMARK  8 active torsions:
REMARK  status: ('A' for Active; 'I' for Inactive)
REMARK    1  A    between atoms: C_2  and  C_3 
REMARK    2  A    between atoms: C_3  and  N_4 
REMARK    3  A    between atoms: N_7  and  C_8 
REMARK    4  A    between atoms: C_8  and  C_9 
REMARK       I    between atoms: C_9  and  N_10 
REMARK    5  A    between atoms: N_10  and  C_11 
REMARK    6  A    between atoms: C_24  and  C_25 
REMARK       I    between atoms: C_25  and  N_26 
REMARK    7  A    between atoms: N_26  and  C_27 
REMARK    8  A    between atoms: C_27  and  C_28 
ROOT
HETATM    1  N   UNL     1      43.393  -9.191  10.349  1.00  0.00    -0.262 N 
HETATM    2  C   UNL     1      42.303  -8.697   9.647  1.00  0.00     0.332 C 
HETATM    3  O   UNL     1      41.427  -8.013  10.179  1.00  0.00    -0.246 OA
HETATM    4  N   UNL     1      42.231  -9.012   8.294  1.00  0.00    -0.290 N 
HETATM    5  C   UNL     1      43.116  -9.948   7.688  1.00  0.00     0.056 A 
HETATM    6  C   UNL     1      44.142 -10.509   8.446  1.00  0.00     0.059 A 
HETATM    7  C   UNL     1      44.313 -10.101   9.848  1.00  0.00     0.264 C 
HETATM    8  O   UNL     1      45.237 -10.582  10.500  1.00  0.00    -0.267 OA
HETATM    9  C   UNL     1      42.972 -10.362   6.351  1.00  0.00     0.048 A 
HETATM   10  C   UNL     1      43.828 -11.322   5.785  1.00  0.00     0.034 A 
HETATM   11  C   UNL     1      44.862 -11.853   6.564  1.00  0.00     0.018 A 
HETATM   12  C   UNL     1      45.023 -11.446   7.887  1.00  0.00     0.020 A 
ENDROOT
BRANCH  10  13
HETATM   13  C   UNL     1      43.627 -11.873   4.409  1.00  0.00     0.252 C 
HETATM   14  N   UNL     1      42.926 -13.052   4.292  1.00  0.00    -0.353 N 
HETATM   15  H   UNL     1      42.393 -13.430   5.061  1.00  0.00     0.163 HD
HETATM   16  O   UNL     1      44.102 -11.279   3.447  1.00  0.00    -0.268 OA
BRANCH  14  17
HETATM   17  C   UNL     1      42.769 -13.721   3.021  1.00  0.00     0.161 C 
BRANCH  17  18
HETATM   18  C   UNL     1      43.046 -15.196   3.148  1.00  0.00    -0.038 A 
HETATM   19  C   UNL     1      43.335 -15.761   4.401  1.00  0.00     0.048 A 
HETATM   20  C   UNL     1      43.588 -17.115   4.457  1.00  0.00     0.105 A 
HETATM   21  C   UNL     1      43.551 -17.909   3.334  1.00  0.00     0.105 A 
HETATM   22  O   UNL     1      43.897 -17.818   5.580  1.00  0.00    -0.323 OA
HETATM   23  O   UNL     1      43.836 -19.209   3.610  1.00  0.00    -0.323 OA
HETATM   24  C   UNL     1      43.252 -17.395   2.092  1.00  0.00     0.040 A 
HETATM   25  C   UNL     1      44.072 -19.141   5.032  1.00  0.00     0.352 A 
HETATM   26  C   UNL     1      42.992 -16.024   2.003  1.00  0.00     0.012 A 
ENDBRANCH  17  18
ENDBRANCH  14  17
ENDBRANCH  10  13
BRANCH   4  27
HETATM   27  C   UNL     1      41.311  -8.219   7.468  1.00  0.00     0.237 C 
BRANCH  27  28
HETATM   28  C   UNL     1      40.316  -8.995   6.605  1.00  0.00     0.240 C 
HETATM   29  N   UNL     1      40.441  -8.786   5.246  1.00  0.00    -0.326 N 
HETATM   30  H   UNL     1      41.193  -8.170   4.951  1.00  0.00     0.169 HD
HETATM   31  O   UNL     1      39.538  -9.777   7.150  1.00  0.00    -0.271 OA
BRANCH  29  32
HETATM   32  C   UNL     1      39.652  -9.360   4.224  1.00  0.00     0.034 A 
HETATM   33  C   UNL     1      39.714 -10.707   3.854  1.00  0.00     0.031 A 
HETATM   34  C   UNL     1      38.901 -11.209   2.832  1.00  0.00     0.021 A 
HETATM   35  C   UNL     1      38.015 -10.363   2.174  1.00  0.00     0.011 A 
HETATM   36 BR   UNL     1      36.918 -11.040   0.793  1.00  0.00    -0.051 Br
HETATM   37  C   UNL     1      37.937  -9.019   2.530  1.00  0.00     0.021 A 
HETATM   38  C   UNL     1      38.754  -8.521   3.553  1.00  0.00     0.031 A 
ENDBRANCH  29  32
ENDBRANCH  27  28
ENDBRANCH   4  27
BRANCH   1  39
HETATM   39  C   UNL     1      43.591  -8.722  11.713  1.00  0.00     0.163 C 
BRANCH  39  40
HETATM   40  C   UNL     1      42.823  -9.547  12.719  1.00  0.00    -0.017 C 
HETATM   41  C   UNL     1      42.067  -9.130  13.746  1.00  0.00     0.008 C 
ENDBRANCH  39  40
ENDBRANCH   1  39
TORSDOF 8
ENDMDL
MODEL 5
REMARK VINA RESULT:      -8.8      3.865      9.529
REMARK  8 active torsions:
REMARK  status: ('A' for Active; 'I' for Inactive)
REMARK    1  A    between atoms: C_2  and  C_3 
REMARK    2  A    between atoms: C_3  and  N_4 
REMARK    3  A    between atoms: N_7  and  C_8 
REMARK    4  A    between atoms: C_8  and  C_9 
REMARK       I    between atoms: C_9  and  N_10 
REMARK    5  A    between atoms: N_10  and  C_11 
REMARK    6  A    between atoms: C_24  and  C_25 
REMARK       I    between atoms: C_25  and  N_26 
REMARK    7  A    between atoms: N_26  and  C_27 
REMARK    8  A    between atoms: C_27  and  C_28 
ROOT
HETATM    1  N   UNL     1      41.346  -8.110  13.257  1.00  0.00    -0.262 N 
HETATM    2  C   UNL     1      40.387  -8.809  12.538  1.00  0.00     0.332 C 
HETATM    3  O   UNL     1      39.222  -8.922  12.923  1.00  0.00    -0.246 OA
HETATM    4  N   UNL     1      40.798  -9.393  11.345  1.00  0.00    -0.290 N 
HETATM    5  C   UNL     1      42.167  -9.445  10.961  1.00  0.00     0.056 A 
HETATM    6  C   UNL     1      43.125  -8.821  11.757  1.00  0.00     0.059 A 
HETATM    7  C   UNL     1      42.702  -8.093  12.963  1.00  0.00     0.264 C 
HETATM    8  O   UNL     1      43.551  -7.523  13.644  1.00  0.00    -0.267 OA
HETATM    9  C   UNL     1      42.603 -10.139   9.817  1.00  0.00     0.048 A 
HETATM   10  C   UNL     1      43.965 -10.217   9.481  1.00  0.00     0.034 A 
HETATM   11  C   UNL     1      44.902  -9.564  10.288  1.00  0.00     0.018 A 
HETATM   12  C   UNL     1      44.486  -8.864  11.419  1.00  0.00     0.020 A 
ENDROOT
BRANCH  10  13
HETATM   13  C   UNL     1      44.471 -11.048   8.344  1.00  0.00     0.252 C 
HETATM   14  N   UNL     1      43.543 -11.747   7.604  1.00  0.00    -0.353 N 
HETATM   15  H   UNL     1      42.555 -11.559   7.680  1.00  0.00     0.163 HD
HETATM   16  O   UNL     1      45.676 -11.097   8.124  1.00  0.00    -0.268 OA
BRANCH  14  17
HETATM   17  C   UNL     1      43.938 -12.660   6.555  1.00  0.00     0.161 C 
BRANCH  17  18
HETATM   18  C   UNL     1      43.034 -12.531   5.358  1.00  0.00    -0.038 A 
HETATM   19  C   UNL     1      41.678 -12.884   5.449  1.00  0.00     0.048 A 
HETATM   20  C   UNL     1      40.898 -12.753   4.320  1.00  0.00     0.105 A 
HETATM   21  C   UNL     1      41.410 -12.282   3.133  1.00  0.00     0.105 A 
HETATM   22  O   UNL     1      39.576 -13.061   4.229  1.00  0.00    -0.323 OA
HETATM   23  O   UNL     1      40.475 -12.238   2.147  1.00  0.00    -0.323 OA
HETATM   24  C   UNL     1      42.730 -11.908   3.011  1.00  0.00     0.040 A 
HETATM   25  C   UNL     1      39.321 -12.750   2.844  1.00  0.00     0.352 A 
HETATM   26  C   UNL     1      43.546 -12.030   4.139  1.00  0.00     0.012 A 
ENDBRANCH  17  18
ENDBRANCH  14  17
ENDBRANCH  10  13
BRANCH   4  27
HETATM   27  C   UNL     1      39.748  -9.815  10.407  1.00  0.00     0.237 C 
BRANCH  27  28
HETATM   28  C   UNL     1      39.757  -9.162   9.025  1.00  0.00     0.240 C 
HETATM   29  N   UNL     1      39.900 -10.042   7.970  1.00  0.00    -0.326 N 
HETATM   30  H   UNL     1      39.953 -11.028   8.207  1.00  0.00     0.169 HD
HETATM   31  O   UNL     1      39.578  -7.948   8.937  1.00  0.00    -0.271 OA
BRANCH  29  32
HETATM   32  C   UNL     1      39.953  -9.716   6.596  1.00  0.00     0.034 A 
HETATM   33  C   UNL     1      38.866  -9.833   5.723  1.00  0.00     0.031 A 
HETATM   34  C   UNL     1      38.990  -9.490   4.373  1.00  0.00     0.021 A 
HETATM   35  C   UNL     1      40.206  -9.024   3.886  1.00  0.00     0.011 A 
HETATM   36 BR   UNL     1      40.374  -8.562   2.061  1.00  0.00    -0.051 Br
HETATM   37  C   UNL     1      41.299  -8.897   4.740  1.00  0.00     0.021 A 
HETATM   38  C   UNL     1      41.170  -9.243   6.090  1.00  0.00     0.031 A 
ENDBRANCH  29  32
ENDBRANCH  27  28
ENDBRANCH   4  27
BRANCH   1  39
HETATM   39  C   UNL     1      40.901  -7.334  14.406  1.00  0.00     0.163 C 
BRANCH  39  40
HETATM   40  C   UNL     1      41.090  -8.079  15.707  1.00  0.00    -0.017 C 
HETATM   41  C   UNL     1      41.277  -7.583  16.939  1.00  0.00     0.008 C 
ENDBRANCH  39  40
ENDBRANCH   1  39
TORSDOF 8
ENDMDL
MODEL 6
REMARK VINA RESULT:      -8.8      2.118      2.605
REMARK  8 active torsions:
REMARK  status: ('A' for Active; 'I' for Inactive)
REMARK    1  A    between atoms: C_2  and  C_3 
REMARK    2  A    between atoms: C_3  and  N_4 
REMARK    3  A    between atoms: N_7  and  C_8 
REMARK    4  A    between atoms: C_8  and  C_9 
REMARK       I    between atoms: C_9  and  N_10 
REMARK    5  A    between atoms: N_10  and  C_11 
REMARK    6  A    between atoms: C_24  and  C_25 
REMARK       I    between atoms: C_25  and  N_26 
REMARK    7  A    between atoms: N_26  and  C_27 
REMARK    8  A    between atoms: C_27  and  C_28 
ROOT
HETATM    1  N   UNL     1      43.761 -17.664   3.991  1.00  0.00    -0.262 N 
HETATM    2  C   UNL     1      42.935 -17.313   2.933  1.00  0.00     0.332 C 
HETATM    3  O   UNL     1      43.011 -17.850   1.827  1.00  0.00    -0.246 OA
HETATM    4  N   UNL     1      42.002 -16.310   3.170  1.00  0.00    -0.290 N 
HETATM    5  C   UNL     1      42.006 -15.541   4.368  1.00  0.00     0.056 A 
HETATM    6  C   UNL     1      42.918 -15.849   5.375  1.00  0.00     0.059 A 
HETATM    7  C   UNL     1      43.837 -16.983   5.199  1.00  0.00     0.264 C 
HETATM    8  O   UNL     1      44.618 -17.264   6.104  1.00  0.00    -0.267 OA
HETATM    9  C   UNL     1      41.144 -14.446   4.562  1.00  0.00     0.048 A 
HETATM   10  C   UNL     1      41.197 -13.671   5.733  1.00  0.00     0.034 A 
HETATM   11  C   UNL     1      42.109 -14.016   6.736  1.00  0.00     0.018 A 
HETATM   12  C   UNL     1      42.962 -15.103   6.562  1.00  0.00     0.020 A 
ENDROOT
BRANCH  10  13
HETATM   13  C   UNL     1      40.382 -12.429   5.918  1.00  0.00     0.252 C 
HETATM   14  N   UNL     1      41.031 -11.220   5.811  1.00  0.00    -0.353 N 
HETATM   15  H   UNL     1      41.961 -11.150   5.428  1.00  0.00     0.163 HD
HETATM   16  O   UNL     1      39.187 -12.526   6.173  1.00  0.00    -0.268 OA
BRANCH  14  17
HETATM   17  C   UNL     1      40.358  -9.969   6.077  1.00  0.00     0.161 C 
BRANCH  17  18
HETATM   18  C   UNL     1      40.595  -9.517   7.494  1.00  0.00    -0.038 A 
HETATM   19  C   UNL     1      39.515  -9.324   8.371  1.00  0.00     0.048 A 
HETATM   20  C   UNL     1      39.791  -8.904   9.654  1.00  0.00     0.105 A 
HETATM   21  C   UNL     1      41.078  -8.686  10.087  1.00  0.00     0.105 A 
HETATM   22  O   UNL     1      38.868  -8.656  10.622  1.00  0.00    -0.323 OA
HETATM   23  O   UNL     1      41.125  -8.269  11.381  1.00  0.00    -0.323 OA
HETATM   24  C   UNL     1      42.163  -8.882   9.263  1.00  0.00     0.040 A 
HETATM   25  C   UNL     1      39.721  -8.236  11.707  1.00  0.00     0.352 A 
HETATM   26  C   UNL     1      41.916  -9.308   7.955  1.00  0.00     0.012 A 
ENDBRANCH  17  18
ENDBRANCH  14  17
ENDBRANCH  10  13
BRANCH   4  27
HETATM   27  C   UNL     1      40.899 -16.177   2.208  1.00  0.00     0.237 C 
BRANCH  27  28
HETATM   28  C   UNL     1      40.982 -15.014   1.220  1.00  0.00     0.240 C 
HETATM   29  N   UNL     1      39.801 -14.726   0.563  1.00  0.00    -0.326 N 
HETATM   30  H   UNL     1      38.994 -15.286   0.818  1.00  0.00     0.169 HD
HETATM   31  O   UNL     1      42.037 -14.389   1.123  1.00  0.00    -0.271 OA
BRANCH  29  32
HETATM   32  C   UNL     1      39.595 -13.718  -0.406  1.00  0.00     0.034 A 
HETATM   33  C   UNL     1      39.808 -13.898  -1.776  1.00  0.00     0.031 A 
HETATM   34  C   UNL     1      39.582 -12.854  -2.681  1.00  0.00     0.021 A 
HETATM   35  C   UNL     1      39.137 -11.622  -2.218  1.00  0.00     0.011 A 
HETATM   36 BR   UNL     1      38.834 -10.212  -3.439  1.00  0.00    -0.051 Br
HETATM   37  C   UNL     1      38.916 -11.424  -0.857  1.00  0.00     0.021 A 
HETATM   38  C   UNL     1      39.145 -12.471   0.044  1.00  0.00     0.031 A 
ENDBRANCH  29  32
ENDBRANCH  27  28
ENDBRANCH   4  27
BRANCH   1  39
HETATM   39  C   UNL     1      44.612 -18.834   3.828  1.00  0.00     0.163 C 
BRANCH  39  40
HETATM   40  C   UNL     1      43.934 -20.103   4.291  1.00  0.00    -0.017 C 
HETATM   41  C   UNL     1      44.242 -20.887   5.336  1.00  0.00     0.008 C 
ENDBRANCH  39  40
ENDBRANCH   1  39
TORSDOF 8
ENDMDL
MODEL 7
REMARK VINA RESULT:      -8.7      3.206      6.164
REMARK  8 active torsions:
REMARK  status: ('A' for Active; 'I' for Inactive)
REMARK    1  A    between atoms: C_2  and  C_3 
REMARK    2  A    between atoms: C_3  and  N_4 
REMARK    3  A    between atoms: N_7  and  C_8 
REMARK    4  A    between atoms: C_8  and  C_9 
REMARK       I    between atoms: C_9  and  N_10 
REMARK    5  A    between atoms: N_10  and  C_11 
REMARK    6  A    between atoms: C_24  and  C_25 
REMARK       I    between atoms: C_25  and  N_26 
REMARK    7  A    between atoms: N_26  and  C_27 
REMARK    8  A    between atoms: C_27  and  C_28 
ROOT
HETATM    1  N   UNL     1      38.787 -11.134   2.622  1.00  0.00    -0.262 N 
HETATM    2  C   UNL     1      39.714 -12.163   2.527  1.00  0.00     0.332 C 
HETATM    3  O   UNL     1      39.577 -13.109   1.750  1.00  0.00    -0.246 OA
HETATM    4  N   UNL     1      40.823 -12.089   3.363  1.00  0.00    -0.290 N 
HETATM    5  C   UNL     1      40.925 -11.119   4.399  1.00  0.00     0.056 A 
HETATM    6  C   UNL     1      39.926 -10.157   4.537  1.00  0.00     0.059 A 
HETATM    7  C   UNL     1      38.801 -10.140   3.590  1.00  0.00     0.264 C 
HETATM    8  O   UNL     1      37.939  -9.272   3.704  1.00  0.00    -0.267 OA
HETATM    9  C   UNL     1      41.986 -11.114   5.324  1.00  0.00     0.048 A 
HETATM   10  C   UNL     1      42.043 -10.176   6.368  1.00  0.00     0.034 A 
HETATM   11  C   UNL     1      41.036  -9.210   6.470  1.00  0.00     0.018 A 
HETATM   12  C   UNL     1      39.985  -9.196   5.556  1.00  0.00     0.020 A 
ENDROOT
BRANCH  10  13
HETATM   13  C   UNL     1      43.088 -10.221   7.439  1.00  0.00     0.252 C 
HETATM   14  N   UNL     1      42.678 -10.022   8.738  1.00  0.00    -0.353 N 
HETATM   15  H   UNL     1      41.703 -10.049   8.995  1.00  0.00     0.163 HD
HETATM   16  O   UNL     1      44.259 -10.409   7.129  1.00  0.00    -0.268 OA
BRANCH  14  17
HETATM   17  C   UNL     1      43.621  -9.941   9.830  1.00  0.00     0.161 C 
BRANCH  17  18
HETATM   18  C   UNL     1      42.956  -9.434  11.082  1.00  0.00    -0.038 A 
HETATM   19  C   UNL     1      43.634  -8.556  11.943  1.00  0.00     0.048 A 
HETATM   20  C   UNL     1      42.979  -8.130  13.079  1.00  0.00     0.105 A 
HETATM   21  C   UNL     1      41.697  -8.531  13.373  1.00  0.00     0.105 A 
HETATM   22  O   UNL     1      43.491  -7.294  14.022  1.00  0.00    -0.323 OA
HETATM   23  O   UNL     1      41.243  -8.001  14.540  1.00  0.00    -0.323 OA
HETATM   24  C   UNL     1      40.994  -9.376  12.544  1.00  0.00     0.040 A 
HETATM   25  C   UNL     1      42.392  -7.233  14.954  1.00  0.00     0.352 A 
HETATM   26  C   UNL     1      41.631  -9.826  11.384  1.00  0.00     0.012 A 
ENDBRANCH  17  18
ENDBRANCH  14  17
ENDBRANCH  10  13
BRANCH   4  27
HETATM   27  C   UNL     1      41.970 -12.946   3.033  1.00  0.00     0.237 C 
BRANCH  27  28
HETATM   28  C   UNL     1      42.015 -14.322   3.696  1.00  0.00     0.240 C 
HETATM   29  N   UNL     1      43.116 -15.089   3.367  1.00  0.00    -0.326 N 
HETATM   30  H   UNL     1      43.797 -14.659   2.749  1.00  0.00     0.169 HD
HETATM   31  O   UNL     1      41.136 -14.625   4.502  1.00  0.00    -0.271 OA
BRANCH  29  32
HETATM   32  C   UNL     1      43.405 -16.395   3.820  1.00  0.00     0.034 A 
HETATM   33  C   UNL     1      43.691 -16.714   5.151  1.00  0.00     0.031 A 
HETATM   34  C   UNL     1      43.968 -18.033   5.530  1.00  0.00     0.021 A 
HETATM   35  C   UNL     1      43.956 -19.044   4.576  1.00  0.00     0.011 A 
HETATM   36 BR   UNL     1      44.330 -20.823   5.087  1.00  0.00    -0.051 Br
HETATM   37  C   UNL     1      43.669 -18.747   3.246  1.00  0.00     0.021 A 
HETATM   38  C   UNL     1      43.395 -17.425   2.871  1.00  0.00     0.031 A 
ENDBRANCH  29  32
ENDBRANCH  27  28
ENDBRANCH   4  27
BRANCH   1  39
HETATM   39  C   UNL     1      37.721 -11.090   1.632  1.00  0.00     0.163 C 
BRANCH  39  40
HETATM   40  C   UNL     1      38.097 -10.266   0.423  1.00  0.00    -0.017 C 
HETATM   41  C   UNL     1      38.635 -10.673  -0.738  1.00  0.00     0.008 C 
ENDBRANCH  39  40
ENDBRANCH   1  39
TORSDOF 8
ENDMDL
MODEL 8
REMARK VINA RESULT:      -8.7      3.592      9.332
REMARK  8 active torsions:
REMARK  status: ('A' for Active; 'I' for Inactive)
REMARK    1  A    between atoms: C_2  and  C_3 
REMARK    2  A    between atoms: C_3  and  N_4 
REMARK    3  A    between atoms: N_7  and  C_8 
REMARK    4  A    between atoms: C_8  and  C_9 
REMARK       I    between atoms: C_9  and  N_10 
REMARK    5  A    between atoms: N_10  and  C_11 
REMARK    6  A    between atoms: C_24  and  C_25 
REMARK       I    between atoms: C_25  and  N_26 
REMARK    7  A    between atoms: N_26  and  C_27 
REMARK    8  A    between atoms: C_27  and  C_28 
ROOT
HETATM    1  N   UNL     1      39.583  -7.882  12.534  1.00  0.00    -0.262 N 
HETATM    2  C   UNL     1      39.359  -7.601  11.194  1.00  0.00     0.332 C 
HETATM    3  O   UNL     1      38.336  -7.041  10.796  1.00  0.00    -0.246 OA
HETATM    4  N   UNL     1      40.348  -7.987  10.297  1.00  0.00    -0.290 N 
HETATM    5  C   UNL     1      41.450  -8.798  10.690  1.00  0.00     0.056 A 
HETATM    6  C   UNL     1      41.595  -9.152  12.029  1.00  0.00     0.059 A 
HETATM    7  C   UNL     1      40.627  -8.657  13.019  1.00  0.00     0.264 C 
HETATM    8  O   UNL     1      40.779  -8.953  14.201  1.00  0.00    -0.267 OA
HETATM    9  C   UNL     1      42.388  -9.292   9.764  1.00  0.00     0.048 A 
HETATM   10  C   UNL     1      43.443 -10.129  10.166  1.00  0.00     0.034 A 
HETATM   11  C   UNL     1      43.575 -10.453  11.521  1.00  0.00     0.018 A 
HETATM   12  C   UNL     1      42.660  -9.963  12.450  1.00  0.00     0.020 A 
ENDROOT
BRANCH  10  13
HETATM   13  C   UNL     1      44.382 -10.770   9.194  1.00  0.00     0.252 C 
HETATM   14  N   UNL     1      43.853 -11.235   8.010  1.00  0.00    -0.353 N 
HETATM   15  H   UNL     1      42.924 -10.983   7.710  1.00  0.00     0.163 HD
HETATM   16  O   UNL     1      45.568 -10.878   9.484  1.00  0.00    -0.268 OA
BRANCH  14  17
HETATM   17  C   UNL     1      44.655 -11.963   7.053  1.00  0.00     0.161 C 
BRANCH  17  18
HETATM   18  C   UNL     1      43.799 -12.873   6.212  1.00  0.00    -0.038 A 
HETATM   19  C   UNL     1      43.251 -14.044   6.761  1.00  0.00     0.048 A 
HETATM   20  C   UNL     1      42.481 -14.842   5.943  1.00  0.00     0.105 A 
HETATM   21  C   UNL     1      42.235 -14.516   4.630  1.00  0.00     0.105 A 
HETATM   22  O   UNL     1      41.889 -16.012   6.306  1.00  0.00    -0.323 OA
HETATM   23  O   UNL     1      41.461 -15.441   4.002  1.00  0.00    -0.323 OA
HETATM   24  C   UNL     1      42.739 -13.367   4.062  1.00  0.00     0.040 A 
HETATM   25  C   UNL     1      41.260 -16.394   5.065  1.00  0.00     0.352 A 
HETATM   26  C   UNL     1      43.525 -12.537   4.866  1.00  0.00     0.012 A 
ENDBRANCH  17  18
ENDBRANCH  14  17
ENDBRANCH  10  13
BRANCH   4  27
HETATM   27  C   UNL     1      40.308  -7.391   8.954  1.00  0.00     0.237 C 
BRANCH  27  28
HETATM   28  C   UNL     1      39.669  -8.228   7.847  1.00  0.00     0.240 C 
HETATM   29  N   UNL     1      40.544  -9.048   7.161  1.00  0.00    -0.326 N 
HETATM   30  H   UNL     1      41.510  -9.040   7.475  1.00  0.00     0.169 HD
HETATM   31  O   UNL     1      38.451  -8.171   7.684  1.00  0.00    -0.271 OA
BRANCH  29  32
HETATM   32  C   UNL     1      40.231  -9.913   6.090  1.00  0.00     0.034 A 
HETATM   33  C   UNL     1      40.327  -9.553   4.742  1.00  0.00     0.031 A 
HETATM   34  C   UNL     1      40.001 -10.463   3.730  1.00  0.00     0.021 A 
HETATM   35  C   UNL     1      39.579 -11.745   4.063  1.00  0.00     0.011 A 
HETATM   36 BR   UNL     1      39.138 -12.974   2.697  1.00  0.00    -0.051 Br
HETATM   37  C   UNL     1      39.481 -12.124   5.399  1.00  0.00     0.021 A 
HETATM   38  C   UNL     1      39.806 -11.209   6.408  1.00  0.00     0.031 A 
ENDBRANCH  29  32
ENDBRANCH  27  28
ENDBRANCH   4  27
BRANCH   1  39
HETATM   39  C   UNL     1      38.656  -7.323  13.508  1.00  0.00     0.163 C 
BRANCH  39  40
HETATM   40  C   UNL     1      39.085  -5.955  13.986  1.00  0.00    -0.017 C 
HETATM   41  C   UNL     1      38.652  -4.751  13.583  1.00  0.00     0.008 C 
ENDBRANCH  39  40
ENDBRANCH   1  39
TORSDOF 8
ENDMDL
MODEL 9
REMARK VINA RESULT:      -8.6      4.658      8.028
REMARK  8 active torsions:
REMARK  status: ('A' for Active; 'I' for Inactive)
REMARK    1  A    between atoms: C_2  and  C_3 
REMARK    2  A    between atoms: C_3  and  N_4 
REMARK    3  A    between atoms: N_7  and  C_8 
REMARK    4  A    between atoms: C_8  and  C_9 
REMARK       I    between atoms: C_9  and  N_10 
REMARK    5  A    between atoms: N_10  and  C_11 
REMARK    6  A    between atoms: C_24  and  C_25 
REMARK       I    between atoms: C_25  and  N_26 
REMARK    7  A    between atoms: N_26  and  C_27 
REMARK    8  A    between atoms: C_27  and  C_28 
ROOT
HETATM    1  N   UNL     1      42.433 -13.452   5.281  1.00  0.00    -0.262 N 
HETATM    2  C   UNL     1      43.237 -12.749   6.167  1.00  0.00     0.332 C 
HETATM    3  O   UNL     1      44.302 -13.197   6.594  1.00  0.00    -0.246 OA
HETATM    4  N   UNL     1      42.786 -11.496   6.567  1.00  0.00    -0.290 N 
HETATM    5  C   UNL     1      41.482 -11.024   6.246  1.00  0.00     0.056 A 
HETATM    6  C   UNL     1      40.654 -11.799   5.437  1.00  0.00     0.059 A 
HETATM    7  C   UNL     1      41.152 -13.075   4.902  1.00  0.00     0.264 C 
HETATM    8  O   UNL     1      40.424 -13.738   4.168  1.00  0.00    -0.267 OA
HETATM    9  C   UNL     1      40.976  -9.811   6.749  1.00  0.00     0.048 A 
HETATM   10  C   UNL     1      39.669  -9.385   6.458  1.00  0.00     0.034 A 
HETATM   11  C   UNL     1      38.867 -10.175   5.627  1.00  0.00     0.018 A 
HETATM   12  C   UNL     1      39.357 -11.374   5.113  1.00  0.00     0.020 A 
ENDROOT
BRANCH  10  13
HETATM   13  C   UNL     1      39.059  -8.166   7.074  1.00  0.00     0.252 C 
HETATM   14  N   UNL     1      39.594  -7.717   8.261  1.00  0.00    -0.353 N 
HETATM   15  H   UNL     1      40.480  -8.057   8.605  1.00  0.00     0.163 HD
HETATM   16  O   UNL     1      38.106  -7.626   6.524  1.00  0.00    -0.268 OA
BRANCH  14  17
HETATM   17  C   UNL     1      39.011  -6.614   8.990  1.00  0.00     0.161 C 
BRANCH  17  18
HETATM   18  C   UNL     1      39.971  -6.078  10.019  1.00  0.00    -0.038 A 
HETATM   19  C   UNL     1      39.539  -5.820  11.330  1.00  0.00     0.048 A 
HETATM   20  C   UNL     1      40.459  -5.324  12.228  1.00  0.00     0.105 A 
HETATM   21  C   UNL     1      41.768  -5.092  11.876  1.00  0.00     0.105 A 
HETATM   22  O   UNL     1      40.208  -5.008  13.527  1.00  0.00    -0.323 OA
HETATM   23  O   UNL     1      42.502  -4.597  12.907  1.00  0.00    -0.323 OA
HETATM   24  C   UNL     1      42.233  -5.350  10.605  1.00  0.00     0.040 A 
HETATM   25  C   UNL     1      41.503  -4.529  13.945  1.00  0.00     0.352 A 
HETATM   26  C   UNL     1      41.323  -5.853   9.671  1.00  0.00     0.012 A 
ENDBRANCH  17  18
ENDBRANCH  14  17
ENDBRANCH  10  13
BRANCH   4  27
HETATM   27  C   UNL     1      43.765 -10.599   7.197  1.00  0.00     0.237 C 
BRANCH  27  28
HETATM   28  C   UNL     1      43.717 -10.487   8.721  1.00  0.00     0.240 C 
HETATM   29  N   UNL     1      42.878  -9.502   9.203  1.00  0.00    -0.326 N 
HETATM   30  H   UNL     1      42.356  -8.974   8.511  1.00  0.00     0.169 HD
HETATM   31  O   UNL     1      44.354 -11.293   9.398  1.00  0.00    -0.271 OA
BRANCH  29  32
HETATM   32  C   UNL     1      42.651  -9.171  10.558  1.00  0.00     0.034 A 
HETATM   33  C   UNL     1      43.623  -8.622  11.401  1.00  0.00     0.031 A 
HETATM   34  C   UNL     1      43.328  -8.318  12.734  1.00  0.00     0.021 A 
HETATM   35  C   UNL     1      42.054  -8.559  13.233  1.00  0.00     0.011 A 
HETATM   36 BR   UNL     1      41.656  -8.149  15.034  1.00  0.00    -0.051 Br
HETATM   37  C   UNL     1      41.071  -9.102  12.409  1.00  0.00     0.021 A 
HETATM   38  C   UNL     1      41.372  -9.406  11.076  1.00  0.00     0.031 A 
ENDBRANCH  29  32
ENDBRANCH  27  28
ENDBRANCH   4  27
BRANCH   1  39
HETATM   39  C   UNL     1      42.969 -14.675   4.703  1.00  0.00     0.163 C 
BRANCH  39  40
HETATM   40  C   UNL     1      42.671 -15.888   5.554  1.00  0.00    -0.017 C 
HETATM   41  C   UNL     1      42.973 -17.174   5.319  1.00  0.00     0.008 C 
ENDBRANCH  39  40
ENDBRANCH   1  39
TORSDOF 8
ENDMDL
MODEL 10
REMARK VINA RESULT:      -8.6      4.001      9.471
REMARK  8 active torsions:
REMARK  status: ('A' for Active; 'I' for Inactive)
REMARK    1  A    between atoms: C_2  and  C_3 
REMARK    2  A    between atoms: C_3  and  N_4 
REMARK    3  A    between atoms: N_7  and  C_8 
REMARK    4  A    between atoms: C_8  and  C_9 
REMARK       I    between atoms: C_9  and  N_10 
REMARK    5  A    between atoms: N_10  and  C_11 
REMARK    6  A    between atoms: C_24  and  C_25 
REMARK       I    between atoms: C_25  and  N_26 
REMARK    7  A    between atoms: N_26  and  C_27 
REMARK    8  A    between atoms: C_27  and  C_28 
ROOT
HETATM    1  N   UNL     1      43.479  -9.342   8.216  1.00  0.00    -0.262 N 
HETATM    2  C   UNL     1      42.480  -8.923   7.350  1.00  0.00     0.332 C 
HETATM    3  O   UNL     1      41.887  -7.852   7.491  1.00  0.00    -0.246 OA
HETATM    4  N   UNL     1      42.161  -9.774   6.297  1.00  0.00    -0.290 N 
HETATM    5  C   UNL     1      42.687 -11.093   6.207  1.00  0.00     0.056 A 
HETATM    6  C   UNL     1      43.614 -11.526   7.153  1.00  0.00     0.059 A 
HETATM    7  C   UNL     1      44.058 -10.603   8.208  1.00  0.00     0.264 C 
HETATM    8  O   UNL     1      44.896 -10.985   9.021  1.00  0.00    -0.267 OA
HETATM    9  C   UNL     1      42.276 -12.001   5.213  1.00  0.00     0.048 A 
HETATM   10  C   UNL     1      42.773 -13.314   5.170  1.00  0.00     0.034 A 
HETATM   11  C   UNL     1      43.718 -13.715   6.121  1.00  0.00     0.018 A 
HETATM   12  C   UNL     1      44.142 -12.825   7.105  1.00  0.00     0.020 A 
ENDROOT
BRANCH  10  13
HETATM   13  C   UNL     1      42.266 -14.339   4.205  1.00  0.00     0.252 C 
HETATM   14  N   UNL     1      43.194 -14.997   3.428  1.00  0.00    -0.353 N 
HETATM   15  H   UNL     1      44.181 -14.951   3.630  1.00  0.00     0.163 HD
HETATM   16  O   UNL     1      41.060 -14.544   4.123  1.00  0.00    -0.268 OA
BRANCH  14  17
HETATM   17  C   UNL     1      42.799 -15.925   2.394  1.00  0.00     0.161 C 
BRANCH  17  18
HETATM   18  C   UNL     1      43.116 -17.343   2.791  1.00  0.00    -0.038 A 
HETATM   19  C   UNL     1      43.497 -17.646   4.108  1.00  0.00     0.048 A 
HETATM   20  C   UNL     1      43.781 -18.960   4.413  1.00  0.00     0.105 A 
HETATM   21  C   UNL     1      43.690 -19.961   3.475  1.00  0.00     0.105 A 
HETATM   22  O   UNL     1      44.177 -19.423   5.630  1.00  0.00    -0.323 OA
HETATM   23  O   UNL     1      44.020 -21.178   3.982  1.00  0.00    -0.323 OA
HETATM   24  C   UNL     1      43.302 -19.705   2.179  1.00  0.00     0.040 A 
HETATM   25  C   UNL     1      44.345 -20.827   5.343  1.00  0.00     0.352 A 
HETATM   26  C   UNL     1      43.007 -18.382   1.838  1.00  0.00     0.012 A 
ENDBRANCH  17  18
ENDBRANCH  14  17
ENDBRANCH  10  13
BRANCH   4  27
HETATM   27  C   UNL     1      41.388  -9.206   5.184  1.00  0.00     0.237 C 
BRANCH  27  28
HETATM   28  C   UNL     1      39.895  -8.980   5.427  1.00  0.00     0.240 C 
HETATM   29  N   UNL     1      39.474  -7.674   5.266  1.00  0.00    -0.326 N 
HETATM   30  H   UNL     1      40.179  -7.004   4.975  1.00  0.00     0.169 HD
HETATM   31  O   UNL     1      39.179  -9.947   5.677  1.00  0.00    -0.271 OA
BRANCH  29  32
HETATM   32  C   UNL     1      38.162  -7.181   5.439  1.00  0.00     0.034 A 
HETATM   33  C   UNL     1      37.084  -7.526   4.617  1.00  0.00     0.031 A 
HETATM   34  C   UNL     1      35.808  -6.999   4.847  1.00  0.00     0.021 A 
HETATM   35  C   UNL     1      35.602  -6.123   5.906  1.00  0.00     0.011 A 
HETATM   36 BR   UNL     1      33.880  -5.410   6.215  1.00  0.00    -0.051 Br
HETATM   37  C   UNL     1      36.662  -5.769   6.737  1.00  0.00     0.021 A 
HETATM   38  C   UNL     1      37.937  -6.298   6.502  1.00  0.00     0.031 A 
ENDBRANCH  29  32
ENDBRANCH  27  28
ENDBRANCH   4  27
BRANCH   1  39
HETATM   39  C   UNL     1      43.959  -8.391   9.208  1.00  0.00     0.163 C 
BRANCH  39  40
HETATM   40  C   UNL     1      43.231  -8.523  10.526  1.00  0.00    -0.017 C 
HETATM   41  C   UNL     1      43.743  -8.682  11.757  1.00  0.00     0.008 C 
ENDBRANCH  39  40
ENDBRANCH   1  39
TORSDOF 8
ENDMDL
