MODEL 1
REMARK VINA RESULT:      -9.0      0.000      0.000
REMARK  7 active torsions:
REMARK  status: ('A' for Active; 'I' for Inactive)
REMARK    1  A    between atoms: C_8  and  C_9 
REMARK    2  A    between atoms: C_9  and  C_10 
REMARK       I    between atoms: C_10  and  N_11 
REMARK    3  A    between atoms: N_11  and  C_27 
REMARK    4  A    between atoms: N_11  and  C_12 
REMARK    5  A    between atoms: C_12  and  C_13 
REMARK    6  A    between atoms: C_12  and  C_22 
REMARK       I    between atoms: C_13  and  N_14 
REMARK    7  A    between atoms: N_14  and  C_15 
ROOT
HETATM    1  C   UNL     1      40.243 -14.120   3.045  1.00  0.00     0.229 C 
HETATM    2  N   UNL     1      40.701 -12.805   3.139  1.00  0.00    -0.299 N 
HETATM    3  O   UNL     1      39.379 -14.433   2.216  1.00  0.00    -0.273 OA
ENDROOT
BRANCH   2   4
HETATM    4  C   UNL     1      41.908 -12.415   3.789  1.00  0.00     0.041 A 
HETATM    5  C   UNL     1      41.888 -12.087   5.154  1.00  0.00     0.069 A 
HETATM    6  C   UNL     1      43.053 -11.624   5.729  1.00  0.00     0.107 A 
HETATM    7  C   UNL     1      44.212 -11.482   5.006  1.00  0.00     0.105 A 
HETATM    8  O   UNL     1      43.203 -11.249   7.028  1.00  0.00    -0.323 OA
HETATM    9  O   UNL     1      45.237 -10.999   5.758  1.00  0.00    -0.323 OA
HETATM   10  C   UNL     1      44.273 -11.795   3.667  1.00  0.00     0.042 A 
HETATM   11  C   UNL     1      44.581 -10.824   7.032  1.00  0.00     0.352 A 
HETATM   12  C   UNL     1      43.103 -12.258   3.051  1.00  0.00     0.032 A 
ENDBRANCH   2   4
BRANCH   2  13
HETATM   13  C   UNL     1      40.052 -11.760   2.305  1.00  0.00     0.225 C 
BRANCH  13  14
HETATM   14  C   UNL     1      40.576 -11.785   0.850  1.00  0.00     0.246 C 
HETATM   15  N   UNL     1      39.887 -12.555  -0.063  1.00  0.00    -0.354 N 
HETATM   16  H   UNL     1      38.906 -12.649   0.207  1.00  0.00     0.162 HD
HETATM   17  O   UNL     1      41.491 -11.027   0.518  1.00  0.00    -0.271 OA
BRANCH  15  18
HETATM   18  C   UNL     1      40.071 -12.463  -1.513  1.00  0.00     0.084 C 
HETATM   19  C   UNL     1      40.257 -13.804  -2.244  1.00  0.00     0.025 C 
HETATM   20  C   UNL     1      38.996 -14.664  -2.226  1.00  0.00     0.002 C 
HETATM   21  C   UNL     1      37.807 -13.910  -2.811  1.00  0.00     0.000 C 
HETATM   22  C   UNL     1      37.596 -12.567  -2.119  1.00  0.00     0.002 C 
HETATM   23  C   UNL     1      38.871 -11.717  -2.123  1.00  0.00     0.025 C 
ENDBRANCH  15  18
ENDBRANCH  13  14
BRANCH  13  24
HETATM   24  C   UNL     1      39.989 -10.413   3.019  1.00  0.00     0.015 A 
HETATM   25  S   UNL     1      38.746 -10.193   4.209  1.00  0.00    -0.104 SA
HETATM   26  C   UNL     1      39.300  -8.635   4.623  1.00  0.00     0.050 A 
HETATM   27  C   UNL     1      40.395  -8.265   3.882  1.00  0.00     0.008 A 
HETATM   28  C   UNL     1      40.783  -9.280   2.957  1.00  0.00     0.017 A 
ENDBRANCH  13  24
ENDBRANCH   2  13
BRANCH   1  29
HETATM   29  C   UNL     1      40.740 -15.170   4.039  1.00  0.00     0.144 C 
BRANCH  29  30
HETATM   30  C   UNL     1      41.784 -16.082   3.457  1.00  0.00    -0.021 A 
HETATM   31  C   UNL     1      42.596 -17.055   4.134  1.00  0.00    -0.001 A 
HETATM   32  C   UNL     1      42.736 -17.468   5.477  1.00  0.00     0.014 A 
HETATM   33  C   UNL     1      43.386 -17.686   3.172  1.00  0.00     0.042 A 
HETATM   34  C   UNL     1      43.661 -18.464   5.808  1.00  0.00     0.001 A 
HETATM   35  C   UNL     1      44.433 -19.070   4.822  1.00  0.00     0.002 A 
HETATM   36  C   UNL     1      44.306 -18.696   3.482  1.00  0.00     0.030 A 
HETATM   37  N   UNL     1      43.066 -17.131   1.956  1.00  0.00    -0.365 N 
HETATM   38  H   UNL     1      43.477 -17.406   1.076  1.00  0.00     0.165 HD
HETATM   39  C   UNL     1      42.106 -16.169   2.113  1.00  0.00     0.097 A 
ENDBRANCH  29  30
ENDBRANCH   1  29
TORSDOF 7
ENDMDL
MODEL 2
REMARK VINA RESULT:      -8.7      2.608      6.926
REMARK  7 active torsions:
REMARK  status: ('A' for Active; 'I' for Inactive)
REMARK    1  A    between atoms: C_8  and  C_9 
REMARK    2  A    between atoms: C_9  and  C_10 
REMARK       I    between atoms: C_10  and  N_11 
REMARK    3  A    between atoms: N_11  and  C_27 
REMARK    4  A    between atoms: N_11  and  C_12 
REMARK    5  A    between atoms: C_12  and  C_13 
REMARK    6  A    between atoms: C_12  and  C_22 
REMARK       I    between atoms: C_13  and  N_14 
REMARK    7  A    between atoms: N_14  and  C_15 
ROOT
HETATM    1  C   UNL     1      40.564 -13.696   3.294  1.00  0.00     0.229 C 
HETATM    2  N   UNL     1      41.351 -14.406   4.203  1.00  0.00    -0.299 N 
HETATM    3  O   UNL     1      40.221 -12.531   3.527  1.00  0.00    -0.273 OA
ENDROOT
BRANCH   2   4
HETATM    4  C   UNL     1      42.080 -15.590   3.888  1.00  0.00     0.041 A 
HETATM    5  C   UNL     1      42.373 -16.516   4.901  1.00  0.00     0.069 A 
HETATM    6  C   UNL     1      43.159 -17.603   4.582  1.00  0.00     0.107 A 
HETATM    7  C   UNL     1      43.651 -17.795   3.313  1.00  0.00     0.105 A 
HETATM    8  O   UNL     1      43.550 -18.581   5.442  1.00  0.00    -0.323 OA
HETATM    9  O   UNL     1      44.413 -18.917   3.216  1.00  0.00    -0.323 OA
HETATM   10  C   UNL     1      43.384 -16.911   2.292  1.00  0.00     0.042 A 
HETATM   11  C   UNL     1      44.370 -19.394   4.578  1.00  0.00     0.352 A 
HETATM   12  C   UNL     1      42.596 -15.791   2.588  1.00  0.00     0.032 A 
ENDBRANCH   2   4
BRANCH   2  13
HETATM   13  C   UNL     1      41.676 -13.779   5.510  1.00  0.00     0.225 C 
BRANCH  13  14
HETATM   14  C   UNL     1      40.406 -13.254   6.222  1.00  0.00     0.246 C 
HETATM   15  N   UNL     1      40.267 -11.888   6.351  1.00  0.00    -0.354 N 
HETATM   16  H   UNL     1      40.762 -11.399   5.604  1.00  0.00     0.162 HD
HETATM   17  O   UNL     1      39.507 -14.042   6.525  1.00  0.00    -0.271 OA
BRANCH  15  18
HETATM   18  C   UNL     1      39.015 -11.228   6.730  1.00  0.00     0.084 C 
HETATM   19  C   UNL     1      39.060 -10.429   8.045  1.00  0.00     0.025 C 
HETATM   20  C   UNL     1      39.953  -9.195   7.953  1.00  0.00     0.002 C 
HETATM   21  C   UNL     1      39.525  -8.289   6.805  1.00  0.00     0.000 C 
HETATM   22  C   UNL     1      39.457  -9.048   5.483  1.00  0.00     0.002 C 
HETATM   23  C   UNL     1      38.575 -10.296   5.587  1.00  0.00     0.025 C 
ENDBRANCH  15  18
ENDBRANCH  13  14
BRANCH  13  24
HETATM   24  C   UNL     1      42.880 -12.847   5.416  1.00  0.00     0.015 A 
HETATM   25  S   UNL     1      43.832 -12.617   6.848  1.00  0.00    -0.104 SA
HETATM   26  C   UNL     1      44.960 -11.625   6.042  1.00  0.00     0.050 A 
HETATM   27  C   UNL     1      44.637 -11.450   4.719  1.00  0.00     0.008 A 
HETATM   28  C   UNL     1      43.441 -12.142   4.363  1.00  0.00     0.017 A 
ENDBRANCH  13  24
ENDBRANCH   2  13
BRANCH   1  29
HETATM   29  C   UNL     1      40.037 -14.394   2.040  1.00  0.00     0.144 C 
BRANCH  29  30
HETATM   30  C   UNL     1      40.397 -13.671   0.771  1.00  0.00    -0.021 A 
HETATM   31  C   UNL     1      39.962 -13.953  -0.569  1.00  0.00    -0.001 A 
HETATM   32  C   UNL     1      39.138 -14.937  -1.159  1.00  0.00     0.014 A 
HETATM   33  C   UNL     1      40.524 -12.986  -1.405  1.00  0.00     0.042 A 
HETATM   34  C   UNL     1      38.927 -14.933  -2.542  1.00  0.00     0.001 A 
HETATM   35  C   UNL     1      39.505 -13.955  -3.345  1.00  0.00     0.002 A 
HETATM   36  C   UNL     1      40.311 -12.957  -2.790  1.00  0.00     0.030 A 
HETATM   37  N   UNL     1      41.263 -12.143  -0.611  1.00  0.00    -0.365 N 
HETATM   38  H   UNL     1      41.774 -11.340  -0.949  1.00  0.00     0.165 HD
HETATM   39  C   UNL     1      41.194 -12.543   0.696  1.00  0.00     0.097 A 
ENDBRANCH  29  30
ENDBRANCH   1  29
TORSDOF 7
ENDMDL
MODEL 3
REMARK VINA RESULT:      -8.6      2.107      6.614
REMARK  7 active torsions:
REMARK  status: ('A' for Active; 'I' for Inactive)
REMARK    1  A    between atoms: C_8  and  C_9 
REMARK    2  A    between atoms: C_9  and  C_10 
REMARK       I    between atoms: C_10  and  N_11 
REMARK    3  A    between atoms: N_11  and  C_27 
REMARK    4  A    between atoms: N_11  and  C_12 
REMARK    5  A    between atoms: C_12  and  C_13 
REMARK    6  A    between atoms: C_12  and  C_22 
REMARK       I    between atoms: C_13  and  N_14 
REMARK    7  A    between atoms: N_14  and  C_15 
ROOT
HETATM    1  C   UNL     1      41.172 -13.694   5.502  1.00  0.00     0.229 C 
HETATM    2  N   UNL     1      41.628 -12.844   4.493  1.00  0.00    -0.299 N 
HETATM    3  O   UNL     1      41.173 -13.332   6.685  1.00  0.00    -0.273 OA
ENDROOT
BRANCH   2   4
HETATM    4  C   UNL     1      41.349 -13.015   3.106  1.00  0.00     0.041 A 
HETATM    5  C   UNL     1      40.173 -12.475   2.562  1.00  0.00     0.069 A 
HETATM    6  C   UNL     1      39.888 -12.738   1.239  1.00  0.00     0.107 A 
HETATM    7  C   UNL     1      40.717 -13.504   0.456  1.00  0.00     0.105 A 
HETATM    8  O   UNL     1      38.789 -12.308   0.562  1.00  0.00    -0.323 OA
HETATM    9  O   UNL     1      40.246 -13.652  -0.811  1.00  0.00    -0.323 OA
HETATM   10  C   UNL     1      41.881 -14.049   0.952  1.00  0.00     0.042 A 
HETATM   11  C   UNL     1      39.006 -12.917  -0.727  1.00  0.00     0.352 A 
HETATM   12  C   UNL     1      42.193 -13.807   2.296  1.00  0.00     0.032 A 
ENDBRANCH   2   4
BRANCH   2  13
HETATM   13  C   UNL     1      42.223 -11.537   4.874  1.00  0.00     0.225 C 
BRANCH  13  14
HETATM   14  C   UNL     1      43.377 -11.709   5.890  1.00  0.00     0.246 C 
HETATM   15  N   UNL     1      43.368 -10.904   7.008  1.00  0.00    -0.354 N 
HETATM   16  H   UNL     1      42.416 -10.624   7.248  1.00  0.00     0.162 HD
HETATM   17  O   UNL     1      44.181 -12.635   5.748  1.00  0.00    -0.271 OA
BRANCH  15  18
HETATM   18  C   UNL     1      44.208 -11.133   8.187  1.00  0.00     0.084 C 
HETATM   19  C   UNL     1      45.701 -10.806   8.010  1.00  0.00     0.025 C 
HETATM   20  C   UNL     1      45.959  -9.313   7.831  1.00  0.00     0.002 C 
HETATM   21  C   UNL     1      45.381  -8.511   8.991  1.00  0.00     0.000 C 
HETATM   22  C   UNL     1      43.902  -8.816   9.206  1.00  0.00     0.002 C 
HETATM   23  C   UNL     1      43.647 -10.318   9.366  1.00  0.00     0.025 C 
ENDBRANCH  15  18
ENDBRANCH  13  14
BRANCH  13  24
HETATM   24  C   UNL     1      41.157 -10.487   5.175  1.00  0.00     0.015 A 
HETATM   25  S   UNL     1      41.350  -8.919   4.458  1.00  0.00    -0.104 SA
HETATM   26  C   UNL     1      39.871  -8.354   5.092  1.00  0.00     0.050 A 
HETATM   27  C   UNL     1      39.234  -9.312   5.841  1.00  0.00     0.008 A 
HETATM   28  C   UNL     1      39.975 -10.530   5.896  1.00  0.00     0.017 A 
ENDBRANCH  13  24
ENDBRANCH   2  13
BRANCH   1  29
HETATM   29  C   UNL     1      40.757 -15.125   5.159  1.00  0.00     0.144 C 
BRANCH  29  30
HETATM   30  C   UNL     1      41.867 -16.121   5.355  1.00  0.00    -0.021 A 
HETATM   31  C   UNL     1      42.502 -16.954   4.371  1.00  0.00    -0.001 A 
HETATM   32  C   UNL     1      42.326 -17.162   2.986  1.00  0.00     0.014 A 
HETATM   33  C   UNL     1      43.504 -17.678   5.017  1.00  0.00     0.042 A 
HETATM   34  C   UNL     1      43.131 -18.087   2.311  1.00  0.00     0.001 A 
HETATM   35  C   UNL     1      44.119 -18.794   2.989  1.00  0.00     0.002 A 
HETATM   36  C   UNL     1      44.330 -18.598   4.356  1.00  0.00     0.030 A 
HETATM   37  N   UNL     1      43.491 -17.300   6.338  1.00  0.00    -0.365 N 
HETATM   38  H   UNL     1      44.121 -17.657   7.042  1.00  0.00     0.165 HD
HETATM   39  C   UNL     1      42.515 -16.366   6.553  1.00  0.00     0.097 A 
ENDBRANCH  29  30
ENDBRANCH   1  29
TORSDOF 7
ENDMDL
MODEL 4
REMARK VINA RESULT:      -8.5      2.707      7.964
REMARK  7 active torsions:
REMARK  status: ('A' for Active; 'I' for Inactive)
REMARK    1  A    between atoms: C_8  and  C_9 
REMARK    2  A    between atoms: C_9  and  C_10 
REMARK       I    between atoms: C_10  and  N_11 
REMARK    3  A    between atoms: N_11  and  C_27 
REMARK    4  A    between atoms: N_11  and  C_12 
REMARK    5  A    between atoms: C_12  and  C_13 
REMARK    6  A    between atoms: C_12  and  C_22 
REMARK       I    between atoms: C_13  and  N_14 
REMARK    7  A    between atoms: N_14  and  C_15 
ROOT
HETATM    1  C   UNL     1      40.505 -12.305   5.227  1.00  0.00     0.229 C 
HETATM    2  N   UNL     1      41.588 -13.183   5.301  1.00  0.00    -0.299 N 
HETATM    3  O   UNL     1      40.363 -11.403   6.062  1.00  0.00    -0.273 OA
ENDROOT
BRANCH   2   4
HETATM    4  C   UNL     1      42.034 -14.007   4.227  1.00  0.00     0.041 A 
HETATM    5  C   UNL     1      41.676 -15.364   4.196  1.00  0.00     0.069 A 
HETATM    6  C   UNL     1      42.201 -16.153   3.194  1.00  0.00     0.107 A 
HETATM    7  C   UNL     1      43.051 -15.646   2.241  1.00  0.00     0.105 A 
HETATM    8  O   UNL     1      41.971 -17.484   3.028  1.00  0.00    -0.323 OA
HETATM    9  O   UNL     1      43.463 -16.593   1.356  1.00  0.00    -0.323 OA
HETATM   10  C   UNL     1      43.423 -14.320   2.236  1.00  0.00     0.042 A 
HETATM   11  C   UNL     1      42.799 -17.762   1.881  1.00  0.00     0.352 A 
HETATM   12  C   UNL     1      42.914 -13.496   3.247  1.00  0.00     0.032 A 
ENDBRANCH   2   4
BRANCH   2  13
HETATM   13  C   UNL     1      42.506 -13.090   6.465  1.00  0.00     0.225 C 
BRANCH  13  14
HETATM   14  C   UNL     1      43.308 -11.768   6.455  1.00  0.00     0.246 C 
HETATM   15  N   UNL     1      43.286 -10.999   7.599  1.00  0.00    -0.354 N 
HETATM   16  H   UNL     1      43.126 -11.579   8.424  1.00  0.00     0.162 HD
HETATM   17  O   UNL     1      44.042 -11.507   5.497  1.00  0.00    -0.271 OA
BRANCH  15  18
HETATM   18  C   UNL     1      44.205  -9.888   7.854  1.00  0.00     0.084 C 
HETATM   19  C   UNL     1      43.541  -8.550   8.225  1.00  0.00     0.025 C 
HETATM   20  C   UNL     1      42.849  -8.594   9.585  1.00  0.00     0.002 C 
HETATM   21  C   UNL     1      43.818  -9.019  10.682  1.00  0.00     0.000 C 
HETATM   22  C   UNL     1      44.508 -10.338  10.346  1.00  0.00     0.002 C 
HETATM   23  C   UNL     1      45.183 -10.294   8.972  1.00  0.00     0.025 C 
ENDBRANCH  15  18
ENDBRANCH  13  14
BRANCH  13  24
HETATM   24  C   UNL     1      43.272 -14.389   6.697  1.00  0.00     0.015 A 
HETATM   25  S   UNL     1      42.472 -15.646   7.586  1.00  0.00    -0.104 SA
HETATM   26  C   UNL     1      43.770 -16.732   7.384  1.00  0.00     0.050 A 
HETATM   27  C   UNL     1      44.802 -16.173   6.672  1.00  0.00     0.008 A 
HETATM   28  C   UNL     1      44.520 -14.829   6.287  1.00  0.00     0.017 A 
ENDBRANCH  13  24
ENDBRANCH   2  13
BRANCH   1  29
HETATM   29  C   UNL     1      39.428 -12.515   4.163  1.00  0.00     0.144 C 
BRANCH  29  30
HETATM   30  C   UNL     1      39.801 -11.933   2.827  1.00  0.00    -0.021 A 
HETATM   31  C   UNL     1      39.959 -12.612   1.571  1.00  0.00    -0.001 A 
HETATM   32  C   UNL     1      39.866 -13.957   1.152  1.00  0.00     0.014 A 
HETATM   33  C   UNL     1      40.267 -11.649   0.609  1.00  0.00     0.042 A 
HETATM   34  C   UNL     1      40.102 -14.290  -0.186  1.00  0.00     0.001 A 
HETATM   35  C   UNL     1      40.409 -13.303  -1.118  1.00  0.00     0.002 A 
HETATM   36  C   UNL     1      40.492 -11.961  -0.739  1.00  0.00     0.030 A 
HETATM   37  N   UNL     1      40.288 -10.432   1.245  1.00  0.00    -0.365 N 
HETATM   38  H   UNL     1      40.474  -9.550   0.788  1.00  0.00     0.165 HD
HETATM   39  C   UNL     1      40.010 -10.588   2.575  1.00  0.00     0.097 A 
ENDBRANCH  29  30
ENDBRANCH   1  29
TORSDOF 7
ENDMDL
MODEL 5
REMARK VINA RESULT:      -8.5      5.919     10.164
REMARK  7 active torsions:
REMARK  status: ('A' for Active; 'I' for Inactive)
REMARK    1  A    between atoms: C_8  and  C_9 
REMARK    2  A    between atoms: C_9  and  C_10 
REMARK       I    between atoms: C_10  and  N_11 
REMARK    3  A    between atoms: N_11  and  C_27 
REMARK    4  A    between atoms: N_11  and  C_12 
REMARK    5  A    between atoms: C_12  and  C_13 
REMARK    6  A    between atoms: C_12  and  C_22 
REMARK       I    between atoms: C_13  and  N_14 
REMARK    7  A    between atoms: N_14  and  C_15 
ROOT
HETATM    1  C   UNL     1      44.251  -8.061   9.238  1.00  0.00     0.229 C 
HETATM    2  N   UNL     1      42.968  -7.819   9.733  1.00  0.00    -0.299 N 
HETATM    3  O   UNL     1      44.847  -7.203   8.575  1.00  0.00    -0.273 OA
ENDROOT
BRANCH   2   4
HETATM    4  C   UNL     1      42.350  -8.570  10.775  1.00  0.00     0.041 A 
HETATM    5  C   UNL     1      41.151  -9.255  10.521  1.00  0.00     0.069 A 
HETATM    6  C   UNL     1      40.531  -9.894  11.574  1.00  0.00     0.107 A 
HETATM    7  C   UNL     1      41.055  -9.875  12.844  1.00  0.00     0.105 A 
HETATM    8  O   UNL     1      39.362 -10.586  11.506  1.00  0.00    -0.323 OA
HETATM    9  O   UNL     1      40.282 -10.553  13.735  1.00  0.00    -0.323 OA
HETATM   10  C   UNL     1      42.230  -9.218  13.132  1.00  0.00     0.042 A 
HETATM   11  C   UNL     1      39.194 -10.974  12.885  1.00  0.00     0.352 A 
HETATM   12  C   UNL     1      42.878  -8.550  12.085  1.00  0.00     0.032 A 
ENDBRANCH   2   4
BRANCH   2  13
HETATM   13  C   UNL     1      42.282  -6.557   9.355  1.00  0.00     0.225 C 
BRANCH  13  14
HETATM   14  C   UNL     1      41.891  -5.725  10.599  1.00  0.00     0.246 C 
HETATM   15  N   UNL     1      40.597  -5.838  11.060  1.00  0.00    -0.354 N 
HETATM   16  H   UNL     1      40.202  -6.747  10.818  1.00  0.00     0.162 HD
HETATM   17  O   UNL     1      42.761  -5.104  11.216  1.00  0.00    -0.271 OA
BRANCH  15  18
HETATM   18  C   UNL     1      40.152  -5.355  12.371  1.00  0.00     0.084 C 
HETATM   19  C   UNL     1      39.054  -4.278  12.342  1.00  0.00     0.025 C 
HETATM   20  C   UNL     1      37.720  -4.811  11.827  1.00  0.00     0.002 C 
HETATM   21  C   UNL     1      37.254  -6.010  12.643  1.00  0.00     0.000 C 
HETATM   22  C   UNL     1      38.321  -7.099  12.706  1.00  0.00     0.002 C 
HETATM   23  C   UNL     1      39.663  -6.554  13.205  1.00  0.00     0.025 C 
ENDBRANCH  15  18
ENDBRANCH  13  14
BRANCH  13  24
HETATM   24  C   UNL     1      41.221  -6.780   8.282  1.00  0.00     0.015 A 
HETATM   25  S   UNL     1      41.739  -6.778   6.626  1.00  0.00    -0.104 SA
HETATM   26  C   UNL     1      40.180  -7.153   6.048  1.00  0.00     0.050 A 
HETATM   27  C   UNL     1      39.269  -7.271   7.068  1.00  0.00     0.008 A 
HETATM   28  C   UNL     1      39.863  -7.048   8.346  1.00  0.00     0.017 A 
ENDBRANCH  13  24
ENDBRANCH   2  13
BRANCH   1  29
HETATM   29  C   UNL     1      44.892  -9.436   9.431  1.00  0.00     0.144 C 
BRANCH  29  30
HETATM   30  C   UNL     1      45.071 -10.186   8.139  1.00  0.00    -0.021 A 
HETATM   31  C   UNL     1      44.069 -10.563   7.181  1.00  0.00    -0.001 A 
HETATM   32  C   UNL     1      42.667 -10.419   7.104  1.00  0.00     0.014 A 
HETATM   33  C   UNL     1      44.718 -11.204   6.125  1.00  0.00     0.042 A 
HETATM   34  C   UNL     1      41.971 -10.932   6.003  1.00  0.00     0.001 A 
HETATM   35  C   UNL     1      42.652 -11.568   4.969  1.00  0.00     0.002 A 
HETATM   36  C   UNL     1      44.041 -11.711   5.007  1.00  0.00     0.030 A 
HETATM   37  N   UNL     1      46.060 -11.211   6.418  1.00  0.00    -0.365 N 
HETATM   38  H   UNL     1      46.774 -11.603   5.820  1.00  0.00     0.165 HD
HETATM   39  C   UNL     1      46.285 -10.603   7.622  1.00  0.00     0.097 A 
ENDBRANCH  29  30
ENDBRANCH   1  29
TORSDOF 7
ENDMDL
MODEL 6
REMARK VINA RESULT:      -8.5      2.533      6.429
REMARK  7 active torsions:
REMARK  status: ('A' for Active; 'I' for Inactive)
REMARK    1  A    between atoms: C_8  and  C_9 
REMARK    2  A    between atoms: C_9  and  C_10 
REMARK       I    between atoms: C_10  and  N_11 
REMARK    3  A    between atoms: N_11  and  C_27 
REMARK    4  A    between atoms: N_11  and  C_12 
REMARK    5  A    between atoms: C_12  and  C_13 
REMARK    6  A    between atoms: C_12  and  C_22 
REMARK       I    between atoms: C_13  and  N_14 
REMARK    7  A    between atoms: N_14  and  C_15 
ROOT
HETATM    1  C   UNL     1      42.560 -11.465   3.437  1.00  0.00     0.229 C 
HETATM    2  N   UNL     1      42.517 -11.539   4.830  1.00  0.00    -0.299 N 
HETATM    3  O   UNL     1      43.287 -12.223   2.783  1.00  0.00    -0.273 OA
ENDROOT
BRANCH   2   4
HETATM    4  C   UNL     1      41.485 -10.978   5.637  1.00  0.00     0.041 A 
HETATM    5  C   UNL     1      41.670  -9.717   6.226  1.00  0.00     0.069 A 
HETATM    6  C   UNL     1      40.691  -9.246   7.075  1.00  0.00     0.107 A 
HETATM    7  C   UNL     1      39.558  -9.972   7.351  1.00  0.00     0.105 A 
HETATM    8  O   UNL     1      40.719  -8.058   7.738  1.00  0.00    -0.323 OA
HETATM    9  O   UNL     1      38.731  -9.333   8.221  1.00  0.00    -0.323 OA
HETATM   10  C   UNL     1      39.339 -11.211   6.791  1.00  0.00     0.042 A 
HETATM   11  C   UNL     1      39.489  -8.134   8.486  1.00  0.00     0.352 A 
HETATM   12  C   UNL     1      40.320 -11.721   5.932  1.00  0.00     0.032 A 
ENDBRANCH   2   4
BRANCH   2  13
HETATM   13  C   UNL     1      43.446 -12.467   5.526  1.00  0.00     0.225 C 
BRANCH  13  14
HETATM   14  C   UNL     1      42.750 -13.798   5.897  1.00  0.00     0.246 C 
HETATM   15  N   UNL     1      42.209 -14.542   4.870  1.00  0.00    -0.354 N 
HETATM   16  H   UNL     1      42.701 -14.365   3.993  1.00  0.00     0.162 HD
HETATM   17  O   UNL     1      42.816 -14.218   7.055  1.00  0.00    -0.271 OA
BRANCH  15  18
HETATM   18  C   UNL     1      41.781 -15.936   5.010  1.00  0.00     0.084 C 
HETATM   19  C   UNL     1      40.694 -16.398   4.023  1.00  0.00     0.025 C 
HETATM   20  C   UNL     1      41.193 -16.453   2.582  1.00  0.00     0.002 C 
HETATM   21  C   UNL     1      42.424 -17.344   2.459  1.00  0.00     0.000 C 
HETATM   22  C   UNL     1      43.522 -16.926   3.432  1.00  0.00     0.002 C 
HETATM   23  C   UNL     1      43.010 -16.853   4.874  1.00  0.00     0.025 C 
ENDBRANCH  15  18
ENDBRANCH  13  14
BRANCH  13  24
HETATM   24  C   UNL     1      44.261 -11.761   6.605  1.00  0.00     0.015 A 
HETATM   25  S   UNL     1      45.855 -11.221   6.184  1.00  0.00    -0.104 SA
HETATM   26  C   UNL     1      46.106 -10.500   7.708  1.00  0.00     0.050 A 
HETATM   27  C   UNL     1      45.023 -10.661   8.537  1.00  0.00     0.008 A 
HETATM   28  C   UNL     1      43.971 -11.391   7.909  1.00  0.00     0.017 A 
ENDBRANCH  13  24
ENDBRANCH   2  13
BRANCH   1  29
HETATM   29  C   UNL     1      41.776 -10.372   2.710  1.00  0.00     0.144 C 
BRANCH  29  30
HETATM   30  C   UNL     1      41.539 -10.686   1.259  1.00  0.00    -0.021 A 
HETATM   31  C   UNL     1      40.933 -11.857   0.687  1.00  0.00    -0.001 A 
HETATM   32  C   UNL     1      40.409 -13.058   1.212  1.00  0.00     0.014 A 
HETATM   33  C   UNL     1      40.892 -11.676  -0.696  1.00  0.00     0.042 A 
HETATM   34  C   UNL     1      39.891 -14.030   0.348  1.00  0.00     0.001 A 
HETATM   35  C   UNL     1      39.868 -13.816  -1.027  1.00  0.00     0.002 A 
HETATM   36  C   UNL     1      40.364 -12.631  -1.575  1.00  0.00     0.030 A 
HETATM   37  N   UNL     1      41.439 -10.444  -0.961  1.00  0.00    -0.365 N 
HETATM   38  H   UNL     1      41.529 -10.044  -1.884  1.00  0.00     0.165 HD
HETATM   39  C   UNL     1      41.830  -9.840   0.203  1.00  0.00     0.097 A 
ENDBRANCH  29  30
ENDBRANCH   1  29
TORSDOF 7
ENDMDL
MODEL 7
REMARK VINA RESULT:      -8.3     16.645     19.311
REMARK  7 active torsions:
REMARK  status: ('A' for Active; 'I' for Inactive)
REMARK    1  A    between atoms: C_8  and  C_9 
REMARK    2  A    between atoms: C_9  and  C_10 
REMARK       I    between atoms: C_10  and  N_11 
REMARK    3  A    between atoms: N_11  and  C_27 
REMARK    4  A    between atoms: N_11  and  C_12 
REMARK    5  A    between atoms: C_12  and  C_13 
REMARK    6  A    between atoms: C_12  and  C_22 
REMARK       I    between atoms: C_13  and  N_14 
REMARK    7  A    between atoms: N_14  and  C_15 
ROOT
HETATM    1  C   UNL     1      46.856 -28.892   0.832  1.00  0.00     0.229 C 
HETATM    2  N   UNL     1      46.335 -29.955   0.091  1.00  0.00    -0.299 N 
HETATM    3  O   UNL     1      47.712 -28.141   0.347  1.00  0.00    -0.273 OA
ENDROOT
BRANCH   2   4
HETATM    4  C   UNL     1      45.128 -30.643   0.407  1.00  0.00     0.041 A 
HETATM    5  C   UNL     1      43.965 -29.911   0.695  1.00  0.00     0.069 A 
HETATM    6  C   UNL     1      42.840 -30.605   1.088  1.00  0.00     0.107 A 
HETATM    7  C   UNL     1      42.834 -31.975   1.201  1.00  0.00     0.105 A 
HETATM    8  O   UNL     1      41.641 -30.053   1.418  1.00  0.00    -0.323 OA
HETATM    9  O   UNL     1      41.632 -32.457   1.615  1.00  0.00    -0.323 OA
HETATM   10  C   UNL     1      43.953 -32.728   0.925  1.00  0.00     0.042 A 
HETATM   11  C   UNL     1      40.890 -31.230   1.781  1.00  0.00     0.352 A 
HETATM   12  C   UNL     1      45.115 -32.050   0.533  1.00  0.00     0.032 A 
ENDBRANCH   2   4
BRANCH   2  13
HETATM   13  C   UNL     1      46.907 -30.240  -1.250  1.00  0.00     0.225 C 
BRANCH  13  14
HETATM   14  C   UNL     1      48.453 -30.188  -1.234  1.00  0.00     0.246 C 
HETATM   15  N   UNL     1      49.110 -31.040  -0.372  1.00  0.00    -0.354 N 
HETATM   16  H   UNL     1      48.552 -31.875  -0.189  1.00  0.00     0.162 HD
HETATM   17  O   UNL     1      49.049 -29.502  -2.069  1.00  0.00    -0.271 OA
BRANCH  15  18
HETATM   18  C   UNL     1      50.547 -31.320  -0.439  1.00  0.00     0.084 C 
HETATM   19  C   UNL     1      51.233 -31.585   0.913  1.00  0.00     0.025 C 
HETATM   20  C   UNL     1      50.774 -32.889   1.560  1.00  0.00     0.002 C 
HETATM   21  C   UNL     1      50.987 -34.073   0.624  1.00  0.00     0.000 C 
HETATM   22  C   UNL     1      50.330 -33.844  -0.734  1.00  0.00     0.002 C 
HETATM   23  C   UNL     1      50.779 -32.525  -1.369  1.00  0.00     0.025 C 
ENDBRANCH  15  18
ENDBRANCH  13  14
BRANCH  13  24
HETATM   24  C   UNL     1      46.178 -29.486  -2.357  1.00  0.00     0.015 A 
HETATM   25  S   UNL     1      45.577 -30.409  -3.698  1.00  0.00    -0.104 SA
HETATM   26  C   UNL     1      44.856 -29.046  -4.424  1.00  0.00     0.050 A 
HETATM   27  C   UNL     1      45.061 -27.904  -3.690  1.00  0.00     0.008 A 
HETATM   28  C   UNL     1      45.826 -28.154  -2.512  1.00  0.00     0.017 A 
ENDBRANCH  13  24
ENDBRANCH   2  13
BRANCH   1  29
HETATM   29  C   UNL     1      46.441 -28.709   2.292  1.00  0.00     0.144 C 
BRANCH  29  30
HETATM   30  C   UNL     1      46.942 -29.808   3.187  1.00  0.00    -0.021 A 
HETATM   31  C   UNL     1      48.286 -30.051   3.633  1.00  0.00    -0.001 A 
HETATM   32  C   UNL     1      49.535 -29.434   3.402  1.00  0.00     0.014 A 
HETATM   33  C   UNL     1      48.253 -31.158   4.483  1.00  0.00     0.042 A 
HETATM   34  C   UNL     1      50.691 -29.950   4.000  1.00  0.00     0.001 A 
HETATM   35  C   UNL     1      50.620 -31.056   4.840  1.00  0.00     0.002 A 
HETATM   36  C   UNL     1      49.397 -31.679   5.103  1.00  0.00     0.030 A 
HETATM   37  N   UNL     1      46.945 -31.570   4.562  1.00  0.00    -0.365 N 
HETATM   38  H   UNL     1      46.623 -32.348   5.119  1.00  0.00     0.165 HD
HETATM   39  C   UNL     1      46.149 -30.768   3.790  1.00  0.00     0.097 A 
ENDBRANCH  29  30
ENDBRANCH   1  29
TORSDOF 7
ENDMDL
MODEL 8
REMARK VINA RESULT:      -8.2      1.655      2.224
REMARK  7 active torsions:
REMARK  status: ('A' for Active; 'I' for Inactive)
REMARK    1  A    between atoms: C_8  and  C_9 
REMARK    2  A    between atoms: C_9  and  C_10 
REMARK       I    between atoms: C_10  and  N_11 
REMARK    3  A    between atoms: N_11  and  C_27 
REMARK    4  A    between atoms: N_11  and  C_12 
REMARK    5  A    between atoms: C_12  and  C_13 
REMARK    6  A    between atoms: C_12  and  C_22 
REMARK       I    between atoms: C_13  and  N_14 
REMARK    7  A    between atoms: N_14  and  C_15 
ROOT
HETATM    1  C   UNL     1      40.469 -13.212   4.830  1.00  0.00     0.229 C 
HETATM    2  N   UNL     1      41.124 -11.979   4.831  1.00  0.00    -0.299 N 
HETATM    3  O   UNL     1      39.573 -13.453   4.011  1.00  0.00    -0.273 OA
ENDROOT
BRANCH   2   4
HETATM    4  C   UNL     1      42.373 -11.730   5.472  1.00  0.00     0.041 A 
HETATM    5  C   UNL     1      42.394 -11.213   6.777  1.00  0.00     0.069 A 
HETATM    6  C   UNL     1      43.616 -10.896   7.331  1.00  0.00     0.107 A 
HETATM    7  C   UNL     1      44.793 -11.074   6.645  1.00  0.00     0.105 A 
HETATM    8  O   UNL     1      43.814 -10.374   8.572  1.00  0.00    -0.323 OA
HETATM    9  O   UNL     1      45.878 -10.686   7.366  1.00  0.00    -0.323 OA
HETATM   10  C   UNL     1      44.814 -11.580   5.365  1.00  0.00     0.042 A 
HETATM   11  C   UNL     1      45.247 -10.214   8.576  1.00  0.00     0.352 A 
HETATM   12  C   UNL     1      43.587 -11.902   4.770  1.00  0.00     0.032 A 
ENDBRANCH   2   4
BRANCH   2  13
HETATM   13  C   UNL     1      40.651 -10.916   3.908  1.00  0.00     0.225 C 
BRANCH  13  14
HETATM   14  C   UNL     1      41.243 -11.087   2.489  1.00  0.00     0.246 C 
HETATM   15  N   UNL     1      40.435 -11.647   1.524  1.00  0.00    -0.354 N 
HETATM   16  H   UNL     1      39.450 -11.474   1.728  1.00  0.00     0.162 HD
HETATM   17  O   UNL     1      42.349 -10.605   2.228  1.00  0.00    -0.271 OA
BRANCH  15  18
HETATM   18  C   UNL     1      40.732 -11.614   0.089  1.00  0.00     0.084 C 
HETATM   19  C   UNL     1      40.948 -12.986  -0.574  1.00  0.00     0.025 C 
HETATM   20  C   UNL     1      39.673 -13.823  -0.622  1.00  0.00     0.002 C 
HETATM   21  C   UNL     1      38.548 -13.073  -1.326  1.00  0.00     0.000 C 
HETATM   22  C   UNL     1      38.310 -11.701  -0.703  1.00  0.00     0.002 C 
HETATM   23  C   UNL     1      39.597 -10.873  -0.640  1.00  0.00     0.025 C 
ENDBRANCH  15  18
ENDBRANCH  13  14
BRANCH  13  24
HETATM   24  C   UNL     1      40.712  -9.532   4.546  1.00  0.00     0.015 A 
HETATM   25  S   UNL     1      39.456  -9.106   5.665  1.00  0.00    -0.104 SA
HETATM   26  C   UNL     1      40.168  -7.599   6.021  1.00  0.00     0.050 A 
HETATM   27  C   UNL     1      41.326  -7.397   5.313  1.00  0.00     0.008 A 
HETATM   28  C   UNL     1      41.633  -8.500   4.462  1.00  0.00     0.017 A 
ENDBRANCH  13  24
ENDBRANCH   2  13
BRANCH   1  29
HETATM   29  C   UNL     1      40.791 -14.244   5.911  1.00  0.00     0.144 C 
BRANCH  29  30
HETATM   30  C   UNL     1      41.933 -15.148   5.537  1.00  0.00    -0.021 A 
HETATM   31  C   UNL     1      42.070 -15.976   4.370  1.00  0.00    -0.001 A 
HETATM   32  C   UNL     1      41.255 -16.255   3.252  1.00  0.00     0.014 A 
HETATM   33  C   UNL     1      43.317 -16.598   4.441  1.00  0.00     0.042 A 
HETATM   34  C   UNL     1      41.699 -17.150   2.271  1.00  0.00     0.001 A 
HETATM   35  C   UNL     1      42.948 -17.753   2.375  1.00  0.00     0.002 A 
HETATM   36  C   UNL     1      43.785 -17.484   3.461  1.00  0.00     0.030 A 
HETATM   37  N   UNL     1      43.922 -16.164   5.596  1.00  0.00    -0.365 N 
HETATM   38  H   UNL     1      44.844 -16.445   5.898  1.00  0.00     0.165 HD
HETATM   39  C   UNL     1      43.103 -15.295   6.261  1.00  0.00     0.097 A 
ENDBRANCH  29  30
ENDBRANCH   1  29
TORSDOF 7
ENDMDL
MODEL 9
REMARK VINA RESULT:      -8.2      2.266      3.495
REMARK  7 active torsions:
REMARK  status: ('A' for Active; 'I' for Inactive)
REMARK    1  A    between atoms: C_8  and  C_9 
REMARK    2  A    between atoms: C_9  and  C_10 
REMARK       I    between atoms: C_10  and  N_11 
REMARK    3  A    between atoms: N_11  and  C_27 
REMARK    4  A    between atoms: N_11  and  C_12 
REMARK    5  A    between atoms: C_12  and  C_13 
REMARK    6  A    between atoms: C_12  and  C_22 
REMARK       I    between atoms: C_13  and  N_14 
REMARK    7  A    between atoms: N_14  and  C_15 
ROOT
HETATM    1  C   UNL     1      41.809 -11.387   2.863  1.00  0.00     0.229 C 
HETATM    2  N   UNL     1      40.654 -10.996   3.542  1.00  0.00    -0.299 N 
HETATM    3  O   UNL     1      41.829 -11.445   1.627  1.00  0.00    -0.273 OA
ENDROOT
BRANCH   2   4
HETATM    4  C   UNL     1      40.623 -10.563   4.900  1.00  0.00     0.041 A 
HETATM    5  C   UNL     1      39.633 -11.055   5.764  1.00  0.00     0.069 A 
HETATM    6  C   UNL     1      39.574 -10.545   7.044  1.00  0.00     0.107 A 
HETATM    7  C   UNL     1      40.452  -9.583   7.483  1.00  0.00     0.105 A 
HETATM    8  O   UNL     1      38.672 -10.897   7.999  1.00  0.00    -0.323 OA
HETATM    9  O   UNL     1      40.213  -9.209   8.768  1.00  0.00    -0.323 OA
HETATM   10  C   UNL     1      41.439  -9.078   6.666  1.00  0.00     0.042 A 
HETATM   11  C   UNL     1      39.063 -10.024   9.079  1.00  0.00     0.352 A 
HETATM   12  C   UNL     1      41.517  -9.569   5.357  1.00  0.00     0.032 A 
ENDBRANCH   2   4
BRANCH   2  13
HETATM   13  C   UNL     1      39.411 -10.761   2.763  1.00  0.00     0.225 C 
BRANCH  13  14
HETATM   14  C   UNL     1      39.053 -11.979   1.879  1.00  0.00     0.246 C 
HETATM   15  N   UNL     1      39.014 -11.787   0.515  1.00  0.00    -0.354 N 
HETATM   16  H   UNL     1      39.634 -11.026   0.236  1.00  0.00     0.162 HD
HETATM   17  O   UNL     1      38.948 -13.096   2.393  1.00  0.00    -0.271 OA
BRANCH  15  18
HETATM   18  C   UNL     1      38.978 -12.878  -0.463  1.00  0.00     0.084 C 
HETATM   19  C   UNL     1      38.117 -12.620  -1.712  1.00  0.00     0.025 C 
HETATM   20  C   UNL     1      38.692 -11.527  -2.608  1.00  0.00     0.002 C 
HETATM   21  C   UNL     1      40.125 -11.847  -3.017  1.00  0.00     0.000 C 
HETATM   22  C   UNL     1      41.010 -12.121  -1.805  1.00  0.00     0.002 C 
HETATM   23  C   UNL     1      40.418 -13.205  -0.899  1.00  0.00     0.025 C 
ENDBRANCH  15  18
ENDBRANCH  13  14
BRANCH  13  24
HETATM   24  C   UNL     1      39.391  -9.379   2.117  1.00  0.00     0.015 A 
HETATM   25  S   UNL     1      37.860  -8.575   1.986  1.00  0.00    -0.104 SA
HETATM   26  C   UNL     1      38.558  -7.169   1.321  1.00  0.00     0.050 A 
HETATM   27  C   UNL     1      39.919  -7.288   1.183  1.00  0.00     0.008 A 
HETATM   28  C   UNL     1      40.395  -8.556   1.630  1.00  0.00     0.017 A 
ENDBRANCH  13  24
ENDBRANCH   2  13
BRANCH   1  29
HETATM   29  C   UNL     1      43.037 -11.843   3.652  1.00  0.00     0.144 C 
BRANCH  29  30
HETATM   30  C   UNL     1      42.948 -13.276   4.098  1.00  0.00    -0.021 A 
HETATM   31  C   UNL     1      43.061 -14.467   3.301  1.00  0.00    -0.001 A 
HETATM   32  C   UNL     1      43.247 -14.724   1.925  1.00  0.00     0.014 A 
HETATM   33  C   UNL     1      42.956 -15.560   4.161  1.00  0.00     0.042 A 
HETATM   34  C   UNL     1      43.298 -16.045   1.463  1.00  0.00     0.001 A 
HETATM   35  C   UNL     1      43.188 -17.111   2.350  1.00  0.00     0.002 A 
HETATM   36  C   UNL     1      43.020 -16.889   3.719  1.00  0.00     0.030 A 
HETATM   37  N   UNL     1      42.795 -15.063   5.432  1.00  0.00    -0.365 N 
HETATM   38  H   UNL     1      42.704 -15.632   6.262  1.00  0.00     0.165 HD
HETATM   39  C   UNL     1      42.790 -13.696   5.408  1.00  0.00     0.097 A 
ENDBRANCH  29  30
ENDBRANCH   1  29
TORSDOF 7
ENDMDL
MODEL 10
REMARK VINA RESULT:      -8.1     16.549     19.039
REMARK  7 active torsions:
REMARK  status: ('A' for Active; 'I' for Inactive)
REMARK    1  A    between atoms: C_8  and  C_9 
REMARK    2  A    between atoms: C_9  and  C_10 
REMARK       I    between atoms: C_10  and  N_11 
REMARK    3  A    between atoms: N_11  and  C_27 
REMARK    4  A    between atoms: N_11  and  C_12 
REMARK    5  A    between atoms: C_12  and  C_13 
REMARK    6  A    between atoms: C_12  and  C_22 
REMARK       I    between atoms: C_13  and  N_14 
REMARK    7  A    between atoms: N_14  and  C_15 
ROOT
HETATM    1  C   UNL     1      47.001 -31.850   0.374  1.00  0.00     0.229 C 
HETATM    2  N   UNL     1      47.649 -30.976   1.249  1.00  0.00    -0.299 N 
HETATM    3  O   UNL     1      47.031 -31.661  -0.849  1.00  0.00    -0.273 OA
ENDROOT
BRANCH   2   4
HETATM    4  C   UNL     1      47.972 -31.281   2.603  1.00  0.00     0.041 A 
HETATM    5  C   UNL     1      48.752 -32.412   2.893  1.00  0.00     0.069 A 
HETATM    6  C   UNL     1      48.968 -32.731   4.217  1.00  0.00     0.107 A 
HETATM    7  C   UNL     1      48.445 -31.978   5.240  1.00  0.00     0.105 A 
HETATM    8  O   UNL     1      49.683 -33.796   4.671  1.00  0.00    -0.323 OA
HETATM    9  O   UNL     1      48.765 -32.473   6.465  1.00  0.00    -0.323 OA
HETATM   10  C   UNL     1      47.678 -30.861   4.996  1.00  0.00     0.042 A 
HETATM   11  C   UNL     1      49.524 -33.644   6.096  1.00  0.00     0.352 A 
HETATM   12  C   UNL     1      47.432 -30.517   3.661  1.00  0.00     0.032 A 
ENDBRANCH   2   4
BRANCH   2  13
HETATM   13  C   UNL     1      48.280 -29.748   0.697  1.00  0.00     0.225 C 
BRANCH  13  14
HETATM   14  C   UNL     1      47.221 -28.694   0.296  1.00  0.00     0.246 C 
HETATM   15  N   UNL     1      46.642 -28.814  -0.949  1.00  0.00    -0.354 N 
HETATM   16  H   UNL     1      46.645 -29.787  -1.260  1.00  0.00     0.162 HD
HETATM   17  O   UNL     1      46.830 -27.874   1.131  1.00  0.00    -0.271 OA
BRANCH  15  18
HETATM   18  C   UNL     1      45.439 -28.088  -1.363  1.00  0.00     0.084 C 
HETATM   19  C   UNL     1      45.377 -27.704  -2.852  1.00  0.00     0.025 C 
HETATM   20  C   UNL     1      45.241 -28.917  -3.768  1.00  0.00     0.002 C 
HETATM   21  C   UNL     1      44.025 -29.756  -3.394  1.00  0.00     0.000 C 
HETATM   22  C   UNL     1      44.043 -30.149  -1.920  1.00  0.00     0.002 C 
HETATM   23  C   UNL     1      44.200 -28.929  -1.006  1.00  0.00     0.025 C 
ENDBRANCH  15  18
ENDBRANCH  13  14
BRANCH  13  24
HETATM   24  C   UNL     1      49.383 -30.072  -0.305  1.00  0.00     0.015 A 
HETATM   25  S   UNL     1      50.762 -30.950   0.273  1.00  0.00    -0.104 SA
HETATM   26  C   UNL     1      51.468 -31.031  -1.277  1.00  0.00     0.050 A 
HETATM   27  C   UNL     1      50.698 -30.405  -2.225  1.00  0.00     0.008 A 
HETATM   28  C   UNL     1      49.509 -29.847  -1.667  1.00  0.00     0.017 A 
ENDBRANCH  13  24
ENDBRANCH   2  13
BRANCH   1  29
HETATM   29  C   UNL     1      46.163 -33.000   0.932  1.00  0.00     0.144 C 
BRANCH  29  30
HETATM   30  C   UNL     1      44.684 -32.736   0.862  1.00  0.00    -0.021 A 
HETATM   31  C   UNL     1      43.939 -31.666   1.467  1.00  0.00    -0.001 A 
HETATM   32  C   UNL     1      44.270 -30.577   2.302  1.00  0.00     0.014 A 
HETATM   33  C   UNL     1      42.605 -31.814   1.084  1.00  0.00     0.042 A 
HETATM   34  C   UNL     1      43.268 -29.702   2.737  1.00  0.00     0.001 A 
HETATM   35  C   UNL     1      41.947 -29.882   2.337  1.00  0.00     0.002 A 
HETATM   36  C   UNL     1      41.591 -30.940   1.497  1.00  0.00     0.030 A 
HETATM   37  N   UNL     1      42.536 -32.921   0.273  1.00  0.00    -0.365 N 
HETATM   38  H   UNL     1      41.689 -33.261  -0.160  1.00  0.00     0.165 HD
HETATM   39  C   UNL     1      43.775 -33.482   0.132  1.00  0.00     0.097 A 
ENDBRANCH  29  30
ENDBRANCH   1  29
TORSDOF 7
ENDMDL
