MODEL 1
REMARK VINA RESULT:      -8.6      0.000      0.000
REMARK  2 active torsions:
REMARK  status: ('A' for Active; 'I' for Inactive)
REMARK    1  A    between atoms: C_7  and  C_8 
REMARK    2  A    between atoms: C_8  and  O_9 
ROOT
HETATM    1  C   UNL     1      41.330 -14.549   5.224  1.00  0.00     0.199 A 
HETATM    2  C   UNL     1      41.547 -15.166   6.646  1.00  0.00     0.266 A 
HETATM    3  O   UNL     1      40.882 -16.038   7.186  1.00  0.00    -0.269 OA
HETATM    4  N   UNL     1      42.615 -14.492   7.236  1.00  0.00    -0.323 N 
HETATM    5  C   UNL     1      43.116 -13.512   6.390  1.00  0.00     0.045 A 
HETATM    6  C   UNL     1      42.411 -13.497   5.183  1.00  0.00     0.017 A 
HETATM    7  C   UNL     1      44.148 -12.636   6.661  1.00  0.00     0.030 A 
HETATM    8  C   UNL     1      44.477 -11.706   5.673  1.00  0.00     0.002 A 
HETATM    9  C   UNL     1      43.775 -11.671   4.456  1.00  0.00     0.001 A 
HETATM   10  C   UNL     1      42.731 -12.567   4.204  1.00  0.00     0.013 A 
HETATM   11  H   UNL     1      42.933 -14.681   8.173  1.00  0.00     0.169 HD
ENDROOT
BRANCH   1  12
HETATM   12  C   UNL     1      41.576 -15.505   4.076  1.00  0.00     0.025 A 
HETATM   13  C   UNL     1      40.897 -15.515   2.854  1.00  0.00     0.016 A 
HETATM   14  C   UNL     1      39.808 -14.648   2.326  1.00  0.00     0.069 C 
HETATM   15  N   UNL     1      41.400 -16.537   2.093  1.00  0.00    -0.359 N 
HETATM   16  H   UNL     1      41.088 -16.778   1.162  1.00  0.00     0.166 HD
HETATM   17  C   UNL     1      42.394 -17.200   2.764  1.00  0.00     0.043 A 
HETATM   18  C   UNL     1      42.541 -16.580   4.006  1.00  0.00     0.003 A 
HETATM   19  C   UNL     1      43.164 -18.298   2.355  1.00  0.00     0.030 A 
HETATM   20  C   UNL     1      43.529 -17.097   4.876  1.00  0.00     0.014 A 
HETATM   21  C   UNL     1      44.306 -18.195   4.486  1.00  0.00     0.001 A 
HETATM   22  C   UNL     1      44.124 -18.787   3.242  1.00  0.00     0.002 A 
ENDBRANCH   1  12
BRANCH   1  23
HETATM   23  O   UNL     1      40.045 -13.935   5.175  1.00  0.00    -0.371 OA
HETATM   24  H   UNL     1      39.989 -13.576   4.271  1.00  0.00     0.212 HD
ENDBRANCH   1  23
TORSDOF 2
ENDMDL
MODEL 2
REMARK VINA RESULT:      -8.5      1.811      2.535
REMARK  2 active torsions:
REMARK  status: ('A' for Active; 'I' for Inactive)
REMARK    1  A    between atoms: C_7  and  C_8 
REMARK    2  A    between atoms: C_8  and  O_9 
ROOT
HETATM    1  C   UNL     1      41.302 -14.861   4.909  1.00  0.00     0.199 A 
HETATM    2  C   UNL     1      40.527 -14.410   6.192  1.00  0.00     0.266 A 
HETATM    3  O   UNL     1      39.716 -15.060   6.836  1.00  0.00    -0.269 OA
HETATM    4  N   UNL     1      40.875 -13.084   6.447  1.00  0.00    -0.323 N 
HETATM    5  C   UNL     1      41.768 -12.610   5.495  1.00  0.00     0.045 A 
HETATM    6  C   UNL     1      42.070 -13.608   4.564  1.00  0.00     0.017 A 
HETATM    7  C   UNL     1      42.296 -11.337   5.421  1.00  0.00     0.030 A 
HETATM    8  C   UNL     1      43.162 -11.062   4.360  1.00  0.00     0.002 A 
HETATM    9  C   UNL     1      43.472 -12.051   3.410  1.00  0.00     0.001 A 
HETATM   10  C   UNL     1      42.922 -13.333   3.504  1.00  0.00     0.013 A 
HETATM   11  H   UNL     1      40.481 -12.549   7.204  1.00  0.00     0.169 HD
ENDROOT
BRANCH   1  12
HETATM   12  C   UNL     1      42.309 -15.968   5.136  1.00  0.00     0.025 A 
HETATM   13  C   UNL     1      43.016 -16.209   6.318  1.00  0.00     0.016 A 
HETATM   14  C   UNL     1      42.997 -15.514   7.634  1.00  0.00     0.069 C 
HETATM   15  N   UNL     1      43.836 -17.288   6.115  1.00  0.00    -0.359 N 
HETATM   16  H   UNL     1      44.465 -17.678   6.802  1.00  0.00     0.166 HD
HETATM   17  C   UNL     1      43.691 -17.776   4.842  1.00  0.00     0.043 A 
HETATM   18  C   UNL     1      42.739 -16.984   4.200  1.00  0.00     0.003 A 
HETATM   19  C   UNL     1      44.336 -18.858   4.227  1.00  0.00     0.030 A 
HETATM   20  C   UNL     1      42.418 -17.312   2.863  1.00  0.00     0.014 A 
HETATM   21  C   UNL     1      43.054 -18.388   2.229  1.00  0.00     0.001 A 
HETATM   22  C   UNL     1      44.001 -19.148   2.904  1.00  0.00     0.002 A 
ENDBRANCH   1  12
BRANCH   1  23
HETATM   23  O   UNL     1      40.364 -15.160   3.880  1.00  0.00    -0.371 OA
HETATM   24  H   UNL     1      39.745 -14.408   3.897  1.00  0.00     0.212 HD
ENDBRANCH   1  23
TORSDOF 2
ENDMDL
MODEL 3
REMARK VINA RESULT:      -7.7      1.069      5.369
REMARK  2 active torsions:
REMARK  status: ('A' for Active; 'I' for Inactive)
REMARK    1  A    between atoms: C_7  and  C_8 
REMARK    2  A    between atoms: C_8  and  O_9 
ROOT
HETATM    1  C   UNL     1      41.715 -16.082   4.857  1.00  0.00     0.199 A 
HETATM    2  C   UNL     1      40.915 -15.765   3.551  1.00  0.00     0.266 A 
HETATM    3  O   UNL     1      39.950 -15.023   3.433  1.00  0.00    -0.269 OA
HETATM    4  N   UNL     1      41.458 -16.542   2.528  1.00  0.00    -0.323 N 
HETATM    5  C   UNL     1      42.500 -17.329   2.998  1.00  0.00     0.045 A 
HETATM    6  C   UNL     1      42.712 -17.101   4.362  1.00  0.00     0.017 A 
HETATM    7  C   UNL     1      43.241 -18.238   2.271  1.00  0.00     0.030 A 
HETATM    8  C   UNL     1      44.234 -18.948   2.951  1.00  0.00     0.002 A 
HETATM    9  C   UNL     1      44.457 -18.737   4.322  1.00  0.00     0.001 A 
HETATM   10  C   UNL     1      43.691 -17.812   5.040  1.00  0.00     0.013 A 
HETATM   11  H   UNL     1      41.093 -16.546   1.589  1.00  0.00     0.169 HD
ENDROOT
BRANCH   1  12
HETATM   12  C   UNL     1      42.495 -14.913   5.420  1.00  0.00     0.025 A 
HETATM   13  C   UNL     1      42.954 -14.786   6.735  1.00  0.00     0.016 A 
HETATM   14  C   UNL     1      42.840 -15.695   7.908  1.00  0.00     0.069 C 
HETATM   15  N   UNL     1      43.600 -13.583   6.849  1.00  0.00    -0.359 N 
HETATM   16  H   UNL     1      44.026 -13.230   7.694  1.00  0.00     0.166 HD
HETATM   17  C   UNL     1      43.593 -12.912   5.654  1.00  0.00     0.043 A 
HETATM   18  C   UNL     1      42.920 -13.714   4.731  1.00  0.00     0.003 A 
HETATM   19  C   UNL     1      44.136 -11.659   5.335  1.00  0.00     0.030 A 
HETATM   20  C   UNL     1      42.797 -13.221   3.412  1.00  0.00     0.014 A 
HETATM   21  C   UNL     1      43.330 -11.970   3.075  1.00  0.00     0.001 A 
HETATM   22  C   UNL     1      43.989 -11.200   4.025  1.00  0.00     0.002 A 
ENDBRANCH   1  12
BRANCH   1  23
HETATM   23  O   UNL     1      40.837 -16.678   5.808  1.00  0.00    -0.371 OA
HETATM   24  H   UNL     1      40.635 -17.552   5.429  1.00  0.00     0.212 HD
ENDBRANCH   1  23
TORSDOF 2
ENDMDL
MODEL 4
REMARK VINA RESULT:      -7.5     15.162     16.621
REMARK  2 active torsions:
REMARK  status: ('A' for Active; 'I' for Inactive)
REMARK    1  A    between atoms: C_7  and  C_8 
REMARK    2  A    between atoms: C_8  and  O_9 
ROOT
HETATM    1  C   UNL     1      47.766 -28.799   0.063  1.00  0.00     0.199 A 
HETATM    2  C   UNL     1      47.784 -28.738   1.627  1.00  0.00     0.266 A 
HETATM    3  O   UNL     1      47.020 -28.120   2.354  1.00  0.00    -0.269 OA
HETATM    4  N   UNL     1      48.885 -29.473   2.062  1.00  0.00    -0.323 N 
HETATM    5  C   UNL     1      49.592 -29.998   0.988  1.00  0.00     0.045 A 
HETATM    6  C   UNL     1      48.982 -29.646  -0.220  1.00  0.00     0.017 A 
HETATM    7  C   UNL     1      50.749 -30.747   1.048  1.00  0.00     0.030 A 
HETATM    8  C   UNL     1      51.314 -31.155  -0.163  1.00  0.00     0.002 A 
HETATM    9  C   UNL     1      50.718 -30.806  -1.387  1.00  0.00     0.001 A 
HETATM   10  C   UNL     1      49.547 -30.042  -1.424  1.00  0.00     0.013 A 
HETATM   11  H   UNL     1      49.139 -29.560   3.033  1.00  0.00     0.169 HD
ENDROOT
BRANCH   1  12
HETATM   12  C   UNL     1      46.565 -29.506  -0.528  1.00  0.00     0.025 A 
HETATM   13  C   UNL     1      45.918 -30.622   0.012  1.00  0.00     0.016 A 
HETATM   14  C   UNL     1      46.176 -31.403   1.252  1.00  0.00     0.069 C 
HETATM   15  N   UNL     1      44.892 -30.969  -0.826  1.00  0.00    -0.359 N 
HETATM   16  H   UNL     1      44.260 -31.745  -0.682  1.00  0.00     0.166 HD
HETATM   17  C   UNL     1      44.829 -30.118  -1.899  1.00  0.00     0.043 A 
HETATM   18  C   UNL     1      45.854 -29.182  -1.746  1.00  0.00     0.003 A 
HETATM   19  C   UNL     1      43.940 -30.117  -2.982  1.00  0.00     0.030 A 
HETATM   20  C   UNL     1      45.977 -28.188  -2.743  1.00  0.00     0.014 A 
HETATM   21  C   UNL     1      45.100 -28.172  -3.835  1.00  0.00     0.001 A 
HETATM   22  C   UNL     1      44.097 -29.126  -3.952  1.00  0.00     0.002 A 
ENDBRANCH   1  12
BRANCH   1  23
HETATM   23  O   UNL     1      47.952 -27.484  -0.455  1.00  0.00    -0.371 OA
HETATM   24  H   UNL     1      48.838 -27.513  -0.859  1.00  0.00     0.212 HD
ENDBRANCH   1  23
TORSDOF 2
ENDMDL
MODEL 5
REMARK VINA RESULT:      -7.5      2.698      4.785
REMARK  2 active torsions:
REMARK  status: ('A' for Active; 'I' for Inactive)
REMARK    1  A    between atoms: C_7  and  C_8 
REMARK    2  A    between atoms: C_8  and  O_9 
ROOT
HETATM    1  C   UNL     1      43.262 -16.628   5.443  1.00  0.00     0.199 A 
HETATM    2  C   UNL     1      43.059 -16.703   6.992  1.00  0.00     0.266 A 
HETATM    3  O   UNL     1      42.863 -15.773   7.761  1.00  0.00    -0.269 OA
HETATM    4  N   UNL     1      43.209 -18.037   7.370  1.00  0.00    -0.323 N 
HETATM    5  C   UNL     1      43.491 -18.839   6.273  1.00  0.00     0.045 A 
HETATM    6  C   UNL     1      43.528 -18.074   5.102  1.00  0.00     0.017 A 
HETATM    7  C   UNL     1      43.729 -20.198   6.282  1.00  0.00     0.030 A 
HETATM    8  C   UNL     1      44.022 -20.807   5.060  1.00  0.00     0.002 A 
HETATM    9  C   UNL     1      44.070 -20.054   3.875  1.00  0.00     0.001 A 
HETATM   10  C   UNL     1      43.827 -18.677   3.889  1.00  0.00     0.013 A 
HETATM   11  H   UNL     1      43.158 -18.345   8.328  1.00  0.00     0.169 HD
ENDROOT
BRANCH   1  12
HETATM   12  C   UNL     1      42.039 -16.191   4.665  1.00  0.00     0.025 A 
HETATM   13  C   UNL     1      40.731 -16.128   5.154  1.00  0.00     0.016 A 
HETATM   14  C   UNL     1      40.168 -16.436   6.497  1.00  0.00     0.069 C 
HETATM   15  N   UNL     1      39.914 -15.701   4.141  1.00  0.00    -0.359 N 
HETATM   16  H   UNL     1      38.915 -15.571   4.215  1.00  0.00     0.166 HD
HETATM   17  C   UNL     1      40.636 -15.471   2.999  1.00  0.00     0.043 A 
HETATM   18  C   UNL     1      41.971 -15.756   3.287  1.00  0.00     0.003 A 
HETATM   19  C   UNL     1      40.195 -15.031   1.743  1.00  0.00     0.030 A 
HETATM   20  C   UNL     1      42.911 -15.579   2.246  1.00  0.00     0.014 A 
HETATM   21  C   UNL     1      42.490 -15.143   0.983  1.00  0.00     0.001 A 
HETATM   22  C   UNL     1      41.149 -14.875   0.736  1.00  0.00     0.002 A 
ENDBRANCH   1  12
BRANCH   1  23
HETATM   23  O   UNL     1      44.415 -15.838   5.162  1.00  0.00    -0.371 OA
HETATM   24  H   UNL     1      44.697 -16.137   4.279  1.00  0.00     0.212 HD
ENDBRANCH   1  23
TORSDOF 2
ENDMDL
MODEL 6
REMARK VINA RESULT:      -7.5      3.446      5.927
REMARK  2 active torsions:
REMARK  status: ('A' for Active; 'I' for Inactive)
REMARK    1  A    between atoms: C_7  and  C_8 
REMARK    2  A    between atoms: C_8  and  O_9 
ROOT
HETATM    1  C   UNL     1      40.876 -13.074   2.016  1.00  0.00     0.199 A 
HETATM    2  C   UNL     1      39.554 -13.536   2.714  1.00  0.00     0.266 A 
HETATM    3  O   UNL     1      38.595 -12.842   3.020  1.00  0.00    -0.269 OA
HETATM    4  N   UNL     1      39.681 -14.895   2.996  1.00  0.00    -0.323 N 
HETATM    5  C   UNL     1      40.915 -15.378   2.581  1.00  0.00     0.045 A 
HETATM    6  C   UNL     1      41.666 -14.360   1.986  1.00  0.00     0.017 A 
HETATM    7  C   UNL     1      41.390 -16.665   2.728  1.00  0.00     0.030 A 
HETATM    8  C   UNL     1      42.678 -16.932   2.260  1.00  0.00     0.002 A 
HETATM    9  C   UNL     1      43.451 -15.920   1.665  1.00  0.00     0.001 A 
HETATM   10  C   UNL     1      42.950 -14.621   1.529  1.00  0.00     0.013 A 
HETATM   11  H   UNL     1      38.973 -15.425   3.478  1.00  0.00     0.169 HD
ENDROOT
BRANCH   1  12
HETATM   12  C   UNL     1      40.706 -12.607   0.586  1.00  0.00     0.025 A 
HETATM   13  C   UNL     1      41.063 -11.353   0.082  1.00  0.00     0.016 A 
HETATM   14  C   UNL     1      41.688 -10.171   0.737  1.00  0.00     0.069 C 
HETATM   15  N   UNL     1      40.736 -11.316  -1.248  1.00  0.00    -0.359 N 
HETATM   16  H   UNL     1      40.879 -10.526  -1.861  1.00  0.00     0.166 HD
HETATM   17  C   UNL     1      40.181 -12.505  -1.645  1.00  0.00     0.043 A 
HETATM   18  C   UNL     1      40.153 -13.343  -0.530  1.00  0.00     0.003 A 
HETATM   19  C   UNL     1      39.709 -12.887  -2.909  1.00  0.00     0.030 A 
HETATM   20  C   UNL     1      39.623 -14.642  -0.708  1.00  0.00     0.014 A 
HETATM   21  C   UNL     1      39.143 -15.041  -1.962  1.00  0.00     0.001 A 
HETATM   22  C   UNL     1      39.185 -14.173  -3.046  1.00  0.00     0.002 A 
ENDBRANCH   1  12
BRANCH   1  23
HETATM   23  O   UNL     1      41.529 -12.116   2.844  1.00  0.00    -0.371 OA
HETATM   24  H   UNL     1      41.813 -12.629   3.622  1.00  0.00     0.212 HD
ENDBRANCH   1  23
TORSDOF 2
ENDMDL
MODEL 7
REMARK VINA RESULT:      -7.4      2.079      3.263
REMARK  2 active torsions:
REMARK  status: ('A' for Active; 'I' for Inactive)
REMARK    1  A    between atoms: C_7  and  C_8 
REMARK    2  A    between atoms: C_8  and  O_9 
ROOT
HETATM    1  C   UNL     1      41.811 -14.976   2.629  1.00  0.00     0.199 A 
HETATM    2  C   UNL     1      40.257 -14.831   2.523  1.00  0.00     0.266 A 
HETATM    3  O   UNL     1      39.449 -15.699   2.223  1.00  0.00    -0.269 OA
HETATM    4  N   UNL     1      39.943 -13.495   2.769  1.00  0.00    -0.323 N 
HETATM    5  C   UNL     1      41.088 -12.750   3.014  1.00  0.00     0.045 A 
HETATM    6  C   UNL     1      42.225 -13.562   2.955  1.00  0.00     0.017 A 
HETATM    7  C   UNL     1      41.153 -11.394   3.263  1.00  0.00     0.030 A 
HETATM    8  C   UNL     1      42.419 -10.837   3.457  1.00  0.00     0.002 A 
HETATM    9  C   UNL     1      43.573 -11.636   3.396  1.00  0.00     0.001 A 
HETATM   10  C   UNL     1      43.483 -13.008   3.139  1.00  0.00     0.013 A 
HETATM   11  H   UNL     1      39.003 -13.135   2.726  1.00  0.00     0.169 HD
ENDROOT
BRANCH   1  12
HETATM   12  C   UNL     1      42.288 -15.866   3.757  1.00  0.00     0.025 A 
HETATM   13  C   UNL     1      42.143 -15.611   5.124  1.00  0.00     0.016 A 
HETATM   14  C   UNL     1      41.511 -14.476   5.851  1.00  0.00     0.069 C 
HETATM   15  N   UNL     1      42.718 -16.644   5.816  1.00  0.00    -0.359 N 
HETATM   16  H   UNL     1      42.762 -16.717   6.823  1.00  0.00     0.166 HD
HETATM   17  C   UNL     1      43.231 -17.580   4.956  1.00  0.00     0.043 A 
HETATM   18  C   UNL     1      42.975 -17.135   3.658  1.00  0.00     0.003 A 
HETATM   19  C   UNL     1      43.898 -18.779   5.242  1.00  0.00     0.030 A 
HETATM   20  C   UNL     1      43.413 -17.956   2.593  1.00  0.00     0.014 A 
HETATM   21  C   UNL     1      44.084 -19.156   2.859  1.00  0.00     0.001 A 
HETATM   22  C   UNL     1      44.324 -19.560   4.167  1.00  0.00     0.002 A 
ENDBRANCH   1  12
BRANCH   1  23
HETATM   23  O   UNL     1      42.330 -15.358   1.358  1.00  0.00    -0.371 OA
HETATM   24  H   UNL     1      43.272 -15.113   1.404  1.00  0.00     0.212 HD
ENDBRANCH   1  23
TORSDOF 2
ENDMDL
MODEL 8
REMARK VINA RESULT:      -7.4      1.516      5.110
REMARK  2 active torsions:
REMARK  status: ('A' for Active; 'I' for Inactive)
REMARK    1  A    between atoms: C_7  and  C_8 
REMARK    2  A    between atoms: C_8  and  O_9 
ROOT
HETATM    1  C   UNL     1      41.586 -15.374   4.031  1.00  0.00     0.199 A 
HETATM    2  C   UNL     1      40.622 -15.576   2.816  1.00  0.00     0.266 A 
HETATM    3  O   UNL     1      39.620 -14.927   2.548  1.00  0.00    -0.269 OA
HETATM    4  N   UNL     1      41.069 -16.689   2.106  1.00  0.00    -0.323 N 
HETATM    5  C   UNL     1      42.192 -17.244   2.703  1.00  0.00     0.045 A 
HETATM    6  C   UNL     1      42.558 -16.513   3.838  1.00  0.00     0.017 A 
HETATM    7  C   UNL     1      42.877 -18.368   2.289  1.00  0.00     0.030 A 
HETATM    8  C   UNL     1      43.973 -18.772   3.055  1.00  0.00     0.002 A 
HETATM    9  C   UNL     1      44.351 -18.054   4.203  1.00  0.00     0.001 A 
HETATM   10  C   UNL     1      43.640 -16.919   4.605  1.00  0.00     0.013 A 
HETATM   11  H   UNL     1      40.594 -17.049   1.294  1.00  0.00     0.169 HD
ENDROOT
BRANCH   1  12
HETATM   12  C   UNL     1      42.380 -14.085   4.002  1.00  0.00     0.025 A 
HETATM   13  C   UNL     1      42.648 -13.309   2.871  1.00  0.00     0.016 A 
HETATM   14  C   UNL     1      42.258 -13.482   1.444  1.00  0.00     0.069 C 
HETATM   15  N   UNL     1      43.405 -12.235   3.258  1.00  0.00    -0.359 N 
HETATM   16  H   UNL     1      43.747 -11.512   2.640  1.00  0.00     0.166 HD
HETATM   17  C   UNL     1      43.642 -12.267   4.607  1.00  0.00     0.043 A 
HETATM   18  C   UNL     1      43.010 -13.404   5.112  1.00  0.00     0.003 A 
HETATM   19  C   UNL     1      44.367 -11.370   5.404  1.00  0.00     0.030 A 
HETATM   20  C   UNL     1      43.113 -13.640   6.502  1.00  0.00     0.014 A 
HETATM   21  C   UNL     1      43.837 -12.757   7.315  1.00  0.00     0.001 A 
HETATM   22  C   UNL     1      44.456 -11.639   6.771  1.00  0.00     0.002 A 
ENDBRANCH   1  12
BRANCH   1  23
HETATM   23  O   UNL     1      40.855 -15.553   5.241  1.00  0.00    -0.371 OA
HETATM   24  H   UNL     1      39.926 -15.604   4.951  1.00  0.00     0.212 HD
ENDBRANCH   1  23
TORSDOF 2
ENDMDL
MODEL 9
REMARK VINA RESULT:      -7.4      2.205      4.865
REMARK  2 active torsions:
REMARK  status: ('A' for Active; 'I' for Inactive)
REMARK    1  A    between atoms: C_7  and  C_8 
REMARK    2  A    between atoms: C_8  and  O_9 
ROOT
HETATM    1  C   UNL     1      43.414 -15.473   6.135  1.00  0.00     0.199 A 
HETATM    2  C   UNL     1      43.206 -16.000   7.593  1.00  0.00     0.266 A 
HETATM    3  O   UNL     1      43.071 -15.334   8.610  1.00  0.00    -0.269 OA
HETATM    4  N   UNL     1      43.268 -17.392   7.549  1.00  0.00    -0.323 N 
HETATM    5  C   UNL     1      43.497 -17.841   6.256  1.00  0.00     0.045 A 
HETATM    6  C   UNL     1      43.585 -16.763   5.369  1.00  0.00     0.017 A 
HETATM    7  C   UNL     1      43.646 -19.152   5.851  1.00  0.00     0.030 A 
HETATM    8  C   UNL     1      43.898 -19.381   4.497  1.00  0.00     0.002 A 
HETATM    9  C   UNL     1      43.996 -18.310   3.592  1.00  0.00     0.001 A 
HETATM   10  C   UNL     1      43.844 -16.989   4.025  1.00  0.00     0.013 A 
HETATM   11  H   UNL     1      43.197 -17.971   8.370  1.00  0.00     0.169 HD
ENDROOT
BRANCH   1  12
HETATM   12  C   UNL     1      42.222 -14.746   5.548  1.00  0.00     0.025 A 
HETATM   13  C   UNL     1      40.878 -15.055   5.772  1.00  0.00     0.016 A 
HETATM   14  C   UNL     1      40.237 -16.110   6.605  1.00  0.00     0.069 C 
HETATM   15  N   UNL     1      40.110 -14.177   5.054  1.00  0.00    -0.359 N 
HETATM   16  H   UNL     1      39.100 -14.174   5.027  1.00  0.00     0.166 HD
HETATM   17  C   UNL     1      40.899 -13.291   4.367  1.00  0.00     0.043 A 
HETATM   18  C   UNL     1      42.227 -13.607   4.656  1.00  0.00     0.003 A 
HETATM   19  C   UNL     1      40.524 -12.240   3.518  1.00  0.00     0.030 A 
HETATM   20  C   UNL     1      43.229 -12.809   4.058  1.00  0.00     0.014 A 
HETATM   21  C   UNL     1      42.874 -11.757   3.204  1.00  0.00     0.001 A 
HETATM   22  C   UNL     1      41.539 -11.479   2.938  1.00  0.00     0.002 A 
ENDBRANCH   1  12
BRANCH   1  23
HETATM   23  O   UNL     1      44.616 -14.709   6.082  1.00  0.00    -0.371 OA
HETATM   24  H   UNL     1      45.071 -14.926   6.916  1.00  0.00     0.212 HD
ENDBRANCH   1  23
TORSDOF 2
ENDMDL
MODEL 10
REMARK VINA RESULT:      -7.3      2.296      5.215
REMARK  2 active torsions:
REMARK  status: ('A' for Active; 'I' for Inactive)
REMARK    1  A    between atoms: C_7  and  C_8 
REMARK    2  A    between atoms: C_8  and  O_9 
ROOT
HETATM    1  C   UNL     1      42.244 -14.751   5.532  1.00  0.00     0.199 A 
HETATM    2  C   UNL     1      41.029 -15.651   5.937  1.00  0.00     0.266 A 
HETATM    3  O   UNL     1      40.691 -15.976   7.066  1.00  0.00    -0.269 OA
HETATM    4  N   UNL     1      40.419 -16.086   4.761  1.00  0.00    -0.323 N 
HETATM    5  C   UNL     1      41.080 -15.595   3.644  1.00  0.00     0.045 A 
HETATM    6  C   UNL     1      42.161 -14.793   4.025  1.00  0.00     0.017 A 
HETATM    7  C   UNL     1      40.770 -15.848   2.324  1.00  0.00     0.030 A 
HETATM    8  C   UNL     1      41.588 -15.270   1.349  1.00  0.00     0.002 A 
HETATM    9  C   UNL     1      42.682 -14.467   1.713  1.00  0.00     0.001 A 
HETATM   10  C   UNL     1      42.979 -14.226   3.059  1.00  0.00     0.013 A 
HETATM   11  H   UNL     1      39.629 -16.710   4.752  1.00  0.00     0.169 HD
ENDROOT
BRANCH   1  12
HETATM   12  C   UNL     1      42.128 -13.303   5.958  1.00  0.00     0.025 A 
HETATM   13  C   UNL     1      40.964 -12.529   5.937  1.00  0.00     0.016 A 
HETATM   14  C   UNL     1      39.570 -12.860   5.531  1.00  0.00     0.069 C 
HETATM   15  N   UNL     1      41.276 -11.272   6.383  1.00  0.00    -0.359 N 
HETATM   16  H   UNL     1      40.624 -10.505   6.466  1.00  0.00     0.166 HD
HETATM   17  C   UNL     1      42.605 -11.188   6.707  1.00  0.00     0.043 A 
HETATM   18  C   UNL     1      43.172 -12.440   6.464  1.00  0.00     0.003 A 
HETATM   19  C   UNL     1      43.333 -10.094   7.196  1.00  0.00     0.030 A 
HETATM   20  C   UNL     1      44.551 -12.592   6.739  1.00  0.00     0.014 A 
HETATM   21  C   UNL     1      45.296 -11.509   7.225  1.00  0.00     0.001 A 
HETATM   22  C   UNL     1      44.693 -10.277   7.448  1.00  0.00     0.002 A 
ENDBRANCH   1  12
BRANCH   1  23
HETATM   23  O   UNL     1      43.449 -15.369   5.974  1.00  0.00    -0.371 OA
HETATM   24  H   UNL     1      43.172 -16.265   6.240  1.00  0.00     0.212 HD
ENDBRANCH   1  23
TORSDOF 2
ENDMDL
