MODEL 1
REMARK VINA RESULT:      -8.4      0.000      0.000
REMARK  8 active torsions:
REMARK  status: ('A' for Active; 'I' for Inactive)
REMARK    1  A    between atoms: O_2  and  C_3 
REMARK    2  A    between atoms: C_6  and  C_7 
REMARK    3  A    between atoms: C_7  and  O_8 
REMARK    4  A    between atoms: C_7  and  C_9 
REMARK    5  A    between atoms: C_9  and  N_10 
REMARK    6  A    between atoms: C_11  and  N_12 
REMARK    7  A    between atoms: N_13  and  C_14 
REMARK    8  A    between atoms: C_14  and  C_15 
ROOT
HETATM    1  N   UNL     1      40.960 -15.151   4.988  1.00  0.00    -0.178 N 
HETATM    2  C   UNL     1      41.953 -15.996   5.238  1.00  0.00     0.681 C 
HETATM    3  N   UNL     1      42.634 -16.220   4.123  1.00  0.00    -0.177 N 
HETATM    4  C   UNL     1      41.917 -15.694   3.050  1.00  0.00     0.079 A 
HETATM    5  C   UNL     1      40.836 -15.003   3.610  1.00  0.00     0.079 A 
HETATM    6  C   UNL     1      42.128 -15.756   1.676  1.00  0.00     0.032 A 
HETATM    7  C   UNL     1      41.191 -15.087   0.879  1.00  0.00     0.002 A 
HETATM    8  C   UNL     1      40.104 -14.388   1.441  1.00  0.00     0.002 A 
HETATM    9  C   UNL     1      39.905 -14.326   2.827  1.00  0.00     0.032 A 
ENDROOT
BRANCH   1  10
HETATM   10  C   UNL     1      40.176 -14.442   6.013  1.00  0.00     0.184 C 
BRANCH  10  11
HETATM   11  C   UNL     1      40.302 -12.905   5.920  1.00  0.00     0.170 C 
BRANCH  11  12
HETATM   12  C   UNL     1      41.755 -12.491   5.852  1.00  0.00    -0.028 A 
HETATM   13  C   UNL     1      42.252 -11.721   4.789  1.00  0.00     0.012 A 
HETATM   14  C   UNL     1      43.587 -11.299   4.770  1.00  0.00     0.037 A 
HETATM   15  C   UNL     1      44.441 -11.626   5.820  1.00  0.00     0.068 A 
HETATM   16  C   UNL     1      43.952 -12.391   6.881  1.00  0.00     0.037 A 
HETATM   17  C   UNL     1      42.623 -12.822   6.901  1.00  0.00     0.012 A 
BRANCH  15  18
HETATM   18  O   UNL     1      45.753 -11.265   5.935  1.00  0.00    -0.356 OA
HETATM   19  C   UNL     1      46.202 -10.848   7.219  1.00  0.00     0.210 C 
ENDBRANCH  15  18
ENDBRANCH  11  12
BRANCH  11  20
HETATM   20  O   UNL     1      39.663 -12.293   7.060  1.00  0.00    -0.389 OA
HETATM   21  H   UNL     1      38.929 -12.897   7.298  1.00  0.00     0.210 HD
ENDBRANCH  11  20
ENDBRANCH  10  11
ENDBRANCH   1  10
BRANCH   2  22
HETATM   22  N   UNL     1      42.214 -16.540   6.423  1.00  0.00    -0.234 N 
HETATM   23  H   UNL     1      42.964 -16.128   6.981  1.00  0.00     0.174 HD
HETATM   24  H   UNL     1      41.540 -17.122   6.896  1.00  0.00     0.174 HD
ENDBRANCH   2  22
BRANCH   3  25
HETATM   25  C   UNL     1      43.947 -16.842   4.042  1.00  0.00     0.186 C 
BRANCH  25  26
HETATM   26  C   UNL     1      43.877 -18.335   3.846  1.00  0.00    -0.039 A 
HETATM   27  C   UNL     1      43.591 -18.951   2.617  1.00  0.00     0.009 A 
HETATM   28  C   UNL     1      43.554 -20.343   2.509  1.00  0.00     0.001 A 
HETATM   29  C   UNL     1      43.811 -21.140   3.621  1.00  0.00     0.000 A 
HETATM   30  C   UNL     1      44.107 -20.548   4.845  1.00  0.00     0.001 A 
HETATM   31  C   UNL     1      44.138 -19.157   4.957  1.00  0.00     0.009 A 
ENDBRANCH  25  26
ENDBRANCH   3  25
TORSDOF 8
ENDMDL
MODEL 2
REMARK VINA RESULT:      -8.2      2.417      6.146
REMARK  8 active torsions:
REMARK  status: ('A' for Active; 'I' for Inactive)
REMARK    1  A    between atoms: O_2  and  C_3 
REMARK    2  A    between atoms: C_6  and  C_7 
REMARK    3  A    between atoms: C_7  and  O_8 
REMARK    4  A    between atoms: C_7  and  C_9 
REMARK    5  A    between atoms: C_9  and  N_10 
REMARK    6  A    between atoms: C_11  and  N_12 
REMARK    7  A    between atoms: N_13  and  C_14 
REMARK    8  A    between atoms: C_14  and  C_15 
ROOT
HETATM    1  N   UNL     1      41.995 -14.485   6.585  1.00  0.00    -0.178 N 
HETATM    2  C   UNL     1      40.794 -14.403   6.027  1.00  0.00     0.681 C 
HETATM    3  N   UNL     1      40.751 -13.352   5.220  1.00  0.00    -0.177 N 
HETATM    4  C   UNL     1      41.887 -12.576   5.440  1.00  0.00     0.079 A 
HETATM    5  C   UNL     1      42.691 -13.308   6.321  1.00  0.00     0.079 A 
HETATM    6  C   UNL     1      42.268 -11.333   4.944  1.00  0.00     0.032 A 
HETATM    7  C   UNL     1      43.509 -10.851   5.381  1.00  0.00     0.002 A 
HETATM    8  C   UNL     1      44.321 -11.588   6.265  1.00  0.00     0.002 A 
HETATM    9  C   UNL     1      43.929 -12.842   6.754  1.00  0.00     0.032 A 
ENDROOT
BRANCH   1  10
HETATM   10  C   UNL     1      42.517 -15.661   7.299  1.00  0.00     0.184 C 
BRANCH  10  11
HETATM   11  C   UNL     1      43.862 -16.169   6.735  1.00  0.00     0.170 C 
BRANCH  11  12
HETATM   12  C   UNL     1      43.649 -16.924   5.442  1.00  0.00    -0.028 A 
HETATM   13  C   UNL     1      43.345 -16.260   4.243  1.00  0.00     0.012 A 
HETATM   14  C   UNL     1      43.205 -16.969   3.044  1.00  0.00     0.037 A 
HETATM   15  C   UNL     1      43.382 -18.350   3.021  1.00  0.00     0.068 A 
HETATM   16  C   UNL     1      43.685 -19.016   4.209  1.00  0.00     0.037 A 
HETATM   17  C   UNL     1      43.817 -18.315   5.411  1.00  0.00     0.012 A 
BRANCH  15  18
HETATM   18  O   UNL     1      43.293 -19.156   1.922  1.00  0.00    -0.356 OA
HETATM   19  C   UNL     1      43.797 -20.481   2.046  1.00  0.00     0.210 C 
ENDBRANCH  15  18
ENDBRANCH  11  12
BRANCH  11  20
HETATM   20  O   UNL     1      44.509 -17.019   7.705  1.00  0.00    -0.389 OA
HETATM   21  H   UNL     1      43.783 -17.516   8.136  1.00  0.00     0.210 HD
ENDBRANCH  11  20
ENDBRANCH  10  11
ENDBRANCH   1  10
BRANCH   2  22
HETATM   22  N   UNL     1      39.787 -15.241   6.255  1.00  0.00    -0.234 N 
HETATM   23  H   UNL     1      38.838 -14.902   6.088  1.00  0.00     0.174 HD
HETATM   24  H   UNL     1      39.930 -16.238   6.297  1.00  0.00     0.174 HD
ENDBRANCH   2  22
BRANCH   3  25
HETATM   25  C   UNL     1      39.729 -13.095   4.217  1.00  0.00     0.186 C 
BRANCH  25  26
HETATM   26  C   UNL     1      40.040 -13.736   2.887  1.00  0.00    -0.039 A 
HETATM   27  C   UNL     1      39.782 -15.082   2.588  1.00  0.00     0.009 A 
HETATM   28  C   UNL     1      40.086 -15.604   1.328  1.00  0.00     0.001 A 
HETATM   29  C   UNL     1      40.643 -14.788   0.347  1.00  0.00     0.000 A 
HETATM   30  C   UNL     1      40.896 -13.448   0.622  1.00  0.00     0.001 A 
HETATM   31  C   UNL     1      40.598 -12.926   1.882  1.00  0.00     0.009 A 
ENDBRANCH  25  26
ENDBRANCH   3  25
TORSDOF 8
ENDMDL
MODEL 3
REMARK VINA RESULT:      -8.1      1.991      3.097
REMARK  8 active torsions:
REMARK  status: ('A' for Active; 'I' for Inactive)
REMARK    1  A    between atoms: O_2  and  C_3 
REMARK    2  A    between atoms: C_6  and  C_7 
REMARK    3  A    between atoms: C_7  and  O_8 
REMARK    4  A    between atoms: C_7  and  C_9 
REMARK    5  A    between atoms: C_9  and  N_10 
REMARK    6  A    between atoms: C_11  and  N_12 
REMARK    7  A    between atoms: N_13  and  C_14 
REMARK    8  A    between atoms: C_14  and  C_15 
ROOT
HETATM    1  N   UNL     1      41.686 -12.665   3.908  1.00  0.00    -0.178 N 
HETATM    2  C   UNL     1      41.291 -13.745   4.570  1.00  0.00     0.681 C 
HETATM    3  N   UNL     1      40.904 -14.675   3.709  1.00  0.00    -0.177 N 
HETATM    4  C   UNL     1      40.812 -14.099   2.444  1.00  0.00     0.079 A 
HETATM    5  C   UNL     1      41.318 -12.800   2.573  1.00  0.00     0.079 A 
HETATM    6  C   UNL     1      40.350 -14.600   1.230  1.00  0.00     0.032 A 
HETATM    7  C   UNL     1      40.417 -13.725   0.138  1.00  0.00     0.002 A 
HETATM    8  C   UNL     1      40.929 -12.419   0.266  1.00  0.00     0.002 A 
HETATM    9  C   UNL     1      41.398 -11.927   1.492  1.00  0.00     0.032 A 
ENDROOT
BRANCH   1  10
HETATM   10  C   UNL     1      42.449 -11.548   4.491  1.00  0.00     0.184 C 
BRANCH  10  11
HETATM   11  C   UNL     1      43.940 -11.884   4.720  1.00  0.00     0.170 C 
BRANCH  11  12
HETATM   12  C   UNL     1      44.393 -11.401   6.080  1.00  0.00    -0.028 A 
HETATM   13  C   UNL     1      45.754 -11.251   6.392  1.00  0.00     0.012 A 
HETATM   14  C   UNL     1      46.155 -10.750   7.636  1.00  0.00     0.037 A 
HETATM   15  C   UNL     1      45.203 -10.376   8.581  1.00  0.00     0.068 A 
HETATM   16  C   UNL     1      43.849 -10.521   8.277  1.00  0.00     0.037 A 
HETATM   17  C   UNL     1      43.443 -11.029   7.040  1.00  0.00     0.012 A 
BRANCH  15  18
HETATM   18  O   UNL     1      45.457  -9.858   9.819  1.00  0.00    -0.356 OA
HETATM   19  C   UNL     1      44.334  -9.515  10.623  1.00  0.00     0.210 C 
ENDBRANCH  15  18
ENDBRANCH  11  12
BRANCH  11  20
HETATM   20  O   UNL     1      44.742 -11.279   3.685  1.00  0.00    -0.389 OA
HETATM   21  H   UNL     1      45.209 -12.025   3.253  1.00  0.00     0.210 HD
ENDBRANCH  11  20
ENDBRANCH  10  11
ENDBRANCH   1  10
BRANCH   2  22
HETATM   22  N   UNL     1      41.278 -13.867   5.895  1.00  0.00    -0.234 N 
HETATM   23  H   UNL     1      40.955 -14.753   6.288  1.00  0.00     0.174 HD
HETATM   24  H   UNL     1      41.825 -13.261   6.486  1.00  0.00     0.174 HD
ENDBRANCH   2  22
BRANCH   3  25
HETATM   25  C   UNL     1      40.688 -16.080   4.019  1.00  0.00     0.186 C 
BRANCH  25  26
HETATM   26  C   UNL     1      41.927 -16.919   3.826  1.00  0.00    -0.039 A 
HETATM   27  C   UNL     1      42.321 -17.460   2.593  1.00  0.00     0.009 A 
HETATM   28  C   UNL     1      43.490 -18.219   2.488  1.00  0.00     0.001 A 
HETATM   29  C   UNL     1      44.286 -18.440   3.608  1.00  0.00     0.000 A 
HETATM   30  C   UNL     1      43.917 -17.902   4.837  1.00  0.00     0.001 A 
HETATM   31  C   UNL     1      42.747 -17.148   4.946  1.00  0.00     0.009 A 
ENDBRANCH  25  26
ENDBRANCH   3  25
TORSDOF 8
ENDMDL
MODEL 4
REMARK VINA RESULT:      -8.1      3.175      7.016
REMARK  8 active torsions:
REMARK  status: ('A' for Active; 'I' for Inactive)
REMARK    1  A    between atoms: O_2  and  C_3 
REMARK    2  A    between atoms: C_6  and  C_7 
REMARK    3  A    between atoms: C_7  and  O_8 
REMARK    4  A    between atoms: C_7  and  C_9 
REMARK    5  A    between atoms: C_9  and  N_10 
REMARK    6  A    between atoms: C_11  and  N_12 
REMARK    7  A    between atoms: N_13  and  C_14 
REMARK    8  A    between atoms: C_14  and  C_15 
ROOT
HETATM    1  N   UNL     1      41.018 -15.655   3.093  1.00  0.00    -0.178 N 
HETATM    2  C   UNL     1      40.855 -15.002   4.238  1.00  0.00     0.681 C 
HETATM    3  N   UNL     1      41.848 -15.300   5.063  1.00  0.00    -0.177 N 
HETATM    4  C   UNL     1      42.559 -16.375   4.532  1.00  0.00     0.079 A 
HETATM    5  C   UNL     1      42.023 -16.603   3.260  1.00  0.00     0.079 A 
HETATM    6  C   UNL     1      43.606 -17.135   5.046  1.00  0.00     0.032 A 
HETATM    7  C   UNL     1      44.094 -18.151   4.213  1.00  0.00     0.002 A 
HETATM    8  C   UNL     1      43.557 -18.380   2.931  1.00  0.00     0.002 A 
HETATM    9  C   UNL     1      42.508 -17.604   2.422  1.00  0.00     0.032 A 
ENDROOT
BRANCH   1  10
HETATM   10  C   UNL     1      40.296 -15.364   1.844  1.00  0.00     0.184 C 
BRANCH  10  11
HETATM   11  C   UNL     1      40.754 -14.053   1.168  1.00  0.00     0.170 C 
BRANCH  11  12
HETATM   12  C   UNL     1      39.818 -13.678   0.040  1.00  0.00    -0.028 A 
HETATM   13  C   UNL     1      39.567 -14.551  -1.030  1.00  0.00     0.012 A 
HETATM   14  C   UNL     1      38.656 -14.211  -2.037  1.00  0.00     0.037 A 
HETATM   15  C   UNL     1      37.970 -13.000  -1.982  1.00  0.00     0.068 A 
HETATM   16  C   UNL     1      38.215 -12.127  -0.921  1.00  0.00     0.037 A 
HETATM   17  C   UNL     1      39.130 -12.458   0.082  1.00  0.00     0.012 A 
BRANCH  15  18
HETATM   18  O   UNL     1      37.046 -12.555  -2.884  1.00  0.00    -0.356 OA
HETATM   19  C   UNL     1      36.636 -11.196  -2.778  1.00  0.00     0.210 C 
ENDBRANCH  15  18
ENDBRANCH  11  12
BRANCH  11  20
HETATM   20  O   UNL     1      42.098 -14.205   0.667  1.00  0.00    -0.389 OA
HETATM   21  H   UNL     1      42.272 -15.170   0.686  1.00  0.00     0.210 HD
ENDBRANCH  11  20
ENDBRANCH  10  11
ENDBRANCH   1  10
BRANCH   2  22
HETATM   22  N   UNL     1      39.843 -14.185   4.513  1.00  0.00    -0.234 N 
HETATM   23  H   UNL     1      38.908 -14.591   4.583  1.00  0.00     0.174 HD
HETATM   24  H   UNL     1      39.994 -13.279   4.928  1.00  0.00     0.174 HD
ENDBRANCH   2  22
BRANCH   3  25
HETATM   25  C   UNL     1      42.187 -14.576   6.278  1.00  0.00     0.186 C 
BRANCH  25  26
HETATM   26  C   UNL     1      43.130 -13.426   6.031  1.00  0.00    -0.039 A 
HETATM   27  C   UNL     1      43.193 -12.712   4.824  1.00  0.00     0.009 A 
HETATM   28  C   UNL     1      44.086 -11.648   4.672  1.00  0.00     0.001 A 
HETATM   29  C   UNL     1      44.920 -11.276   5.722  1.00  0.00     0.000 A 
HETATM   30  C   UNL     1      44.864 -11.965   6.929  1.00  0.00     0.001 A 
HETATM   31  C   UNL     1      43.977 -13.032   7.082  1.00  0.00     0.009 A 
ENDBRANCH  25  26
ENDBRANCH   3  25
TORSDOF 8
ENDMDL
MODEL 5
REMARK VINA RESULT:      -8.0      2.367      3.271
REMARK  8 active torsions:
REMARK  status: ('A' for Active; 'I' for Inactive)
REMARK    1  A    between atoms: O_2  and  C_3 
REMARK    2  A    between atoms: C_6  and  C_7 
REMARK    3  A    between atoms: C_7  and  O_8 
REMARK    4  A    between atoms: C_7  and  C_9 
REMARK    5  A    between atoms: C_9  and  N_10 
REMARK    6  A    between atoms: C_11  and  N_12 
REMARK    7  A    between atoms: N_13  and  C_14 
REMARK    8  A    between atoms: C_14  and  C_15 
ROOT
HETATM    1  N   UNL     1      40.373 -12.786   4.140  1.00  0.00    -0.178 N 
HETATM    2  C   UNL     1      40.283 -13.680   5.118  1.00  0.00     0.681 C 
HETATM    3  N   UNL     1      40.367 -14.901   4.610  1.00  0.00    -0.177 N 
HETATM    4  C   UNL     1      40.265 -14.814   3.223  1.00  0.00     0.079 A 
HETATM    5  C   UNL     1      40.269 -13.448   2.920  1.00  0.00     0.079 A 
HETATM    6  C   UNL     1      40.183 -15.793   2.238  1.00  0.00     0.032 A 
HETATM    7  C   UNL     1      40.101 -15.332   0.917  1.00  0.00     0.002 A 
HETATM    8  C   UNL     1      40.109 -13.957   0.611  1.00  0.00     0.002 A 
HETATM    9  C   UNL     1      40.199 -12.979   1.611  1.00  0.00     0.032 A 
ENDROOT
BRANCH   1  10
HETATM   10  C   UNL     1      40.613 -11.346   4.332  1.00  0.00     0.184 C 
BRANCH  10  11
HETATM   11  C   UNL     1      42.095 -10.948   4.153  1.00  0.00     0.170 C 
BRANCH  11  12
HETATM   12  C   UNL     1      42.849 -11.094   5.457  1.00  0.00    -0.028 A 
HETATM   13  C   UNL     1      43.729 -12.165   5.683  1.00  0.00     0.012 A 
HETATM   14  C   UNL     1      44.460 -12.255   6.873  1.00  0.00     0.037 A 
HETATM   15  C   UNL     1      44.335 -11.269   7.849  1.00  0.00     0.068 A 
HETATM   16  C   UNL     1      43.463 -10.202   7.630  1.00  0.00     0.037 A 
HETATM   17  C   UNL     1      42.724 -10.111   6.447  1.00  0.00     0.012 A 
BRANCH  15  18
HETATM   18  O   UNL     1      45.001 -11.226   9.041  1.00  0.00    -0.356 OA
HETATM   19  C   UNL     1      44.932 -10.012   9.780  1.00  0.00     0.210 C 
ENDBRANCH  15  18
ENDBRANCH  11  12
BRANCH  11  20
HETATM   20  O   UNL     1      42.182  -9.588   3.679  1.00  0.00    -0.389 OA
HETATM   21  H   UNL     1      42.423  -9.056   4.467  1.00  0.00     0.210 HD
ENDBRANCH  11  20
ENDBRANCH  10  11
ENDBRANCH   1  10
BRANCH   2  22
HETATM   22  N   UNL     1      40.121 -13.390   6.405  1.00  0.00    -0.234 N 
HETATM   23  H   UNL     1      40.414 -14.089   7.091  1.00  0.00     0.174 HD
HETATM   24  H   UNL     1      40.006 -12.440   6.722  1.00  0.00     0.174 HD
ENDBRANCH   2  22
BRANCH   3  25
HETATM   25  C   UNL     1      40.605 -16.120   5.368  1.00  0.00     0.186 C 
BRANCH  25  26
HETATM   26  C   UNL     1      42.034 -16.250   5.832  1.00  0.00    -0.039 A 
HETATM   27  C   UNL     1      42.458 -15.987   7.143  1.00  0.00     0.009 A 
HETATM   28  C   UNL     1      43.799 -16.141   7.503  1.00  0.00     0.001 A 
HETATM   29  C   UNL     1      44.733 -16.569   6.564  1.00  0.00     0.000 A 
HETATM   30  C   UNL     1      44.330 -16.846   5.262  1.00  0.00     0.001 A 
HETATM   31  C   UNL     1      42.991 -16.687   4.898  1.00  0.00     0.009 A 
ENDBRANCH  25  26
ENDBRANCH   3  25
TORSDOF 8
ENDMDL
MODEL 6
REMARK VINA RESULT:      -7.9      2.724      6.962
REMARK  8 active torsions:
REMARK  status: ('A' for Active; 'I' for Inactive)
REMARK    1  A    between atoms: O_2  and  C_3 
REMARK    2  A    between atoms: C_6  and  C_7 
REMARK    3  A    between atoms: C_7  and  O_8 
REMARK    4  A    between atoms: C_7  and  C_9 
REMARK    5  A    between atoms: C_9  and  N_10 
REMARK    6  A    between atoms: C_11  and  N_12 
REMARK    7  A    between atoms: N_13  and  C_14 
REMARK    8  A    between atoms: C_14  and  C_15 
ROOT
HETATM    1  N   UNL     1      41.585 -12.662   4.866  1.00  0.00    -0.178 N 
HETATM    2  C   UNL     1      42.591 -11.851   5.168  1.00  0.00     0.681 C 
HETATM    3  N   UNL     1      43.458 -12.489   5.942  1.00  0.00    -0.177 N 
HETATM    4  C   UNL     1      42.881 -13.685   6.363  1.00  0.00     0.079 A 
HETATM    5  C   UNL     1      41.672 -13.797   5.667  1.00  0.00     0.079 A 
HETATM    6  C   UNL     1      43.314 -14.656   7.262  1.00  0.00     0.032 A 
HETATM    7  C   UNL     1      42.465 -15.756   7.435  1.00  0.00     0.002 A 
HETATM    8  C   UNL     1      41.249 -15.872   6.733  1.00  0.00     0.002 A 
HETATM    9  C   UNL     1      40.826 -14.892   5.825  1.00  0.00     0.032 A 
ENDROOT
BRANCH   1  10
HETATM   10  C   UNL     1      40.593 -12.419   3.806  1.00  0.00     0.184 C 
BRANCH  10  11
HETATM   11  C   UNL     1      41.133 -12.707   2.388  1.00  0.00     0.170 C 
BRANCH  11  12
HETATM   12  C   UNL     1      41.621 -14.135   2.282  1.00  0.00    -0.028 A 
HETATM   13  C   UNL     1      42.988 -14.440   2.176  1.00  0.00     0.012 A 
HETATM   14  C   UNL     1      43.426 -15.769   2.135  1.00  0.00     0.037 A 
HETATM   15  C   UNL     1      42.508 -16.813   2.214  1.00  0.00     0.068 A 
HETATM   16  C   UNL     1      41.149 -16.517   2.320  1.00  0.00     0.037 A 
HETATM   17  C   UNL     1      40.705 -15.192   2.354  1.00  0.00     0.012 A 
BRANCH  15  18
HETATM   18  O   UNL     1      42.801 -18.147   2.204  1.00  0.00    -0.356 OA
HETATM   19  C   UNL     1      43.925 -18.571   2.967  1.00  0.00     0.210 C 
ENDBRANCH  15  18
ENDBRANCH  11  12
BRANCH  11  20
HETATM   20  O   UNL     1      42.204 -11.792   2.078  1.00  0.00    -0.389 OA
HETATM   21  H   UNL     1      42.530 -11.474   2.946  1.00  0.00     0.210 HD
ENDBRANCH  11  20
ENDBRANCH  10  11
ENDBRANCH   1  10
BRANCH   2  22
HETATM   22  N   UNL     1      42.703 -10.589   4.764  1.00  0.00    -0.234 N 
HETATM   23  H   UNL     1      42.098  -9.893   5.205  1.00  0.00     0.174 HD
HETATM   24  H   UNL     1      43.523 -10.260   4.280  1.00  0.00     0.174 HD
ENDBRANCH   2  22
BRANCH   3  25
HETATM   25  C   UNL     1      44.813 -12.051   6.238  1.00  0.00     0.186 C 
BRANCH  25  26
HETATM   26  C   UNL     1      44.884 -11.129   7.430  1.00  0.00    -0.039 A 
HETATM   27  C   UNL     1      43.961 -11.147   8.488  1.00  0.00     0.009 A 
HETATM   28  C   UNL     1      44.098 -10.270   9.567  1.00  0.00     0.001 A 
HETATM   29  C   UNL     1      45.160  -9.371   9.610  1.00  0.00     0.000 A 
HETATM   30  C   UNL     1      46.090  -9.346   8.576  1.00  0.00     0.001 A 
HETATM   31  C   UNL     1      45.952 -10.217   7.494  1.00  0.00     0.009 A 
ENDBRANCH  25  26
ENDBRANCH   3  25
TORSDOF 8
ENDMDL
MODEL 7
REMARK VINA RESULT:      -7.6      3.837      8.467
REMARK  8 active torsions:
REMARK  status: ('A' for Active; 'I' for Inactive)
REMARK    1  A    between atoms: O_2  and  C_3 
REMARK    2  A    between atoms: C_6  and  C_7 
REMARK    3  A    between atoms: C_7  and  O_8 
REMARK    4  A    between atoms: C_7  and  C_9 
REMARK    5  A    between atoms: C_9  and  N_10 
REMARK    6  A    between atoms: C_11  and  N_12 
REMARK    7  A    between atoms: N_13  and  C_14 
REMARK    8  A    between atoms: C_14  and  C_15 
ROOT
HETATM    1  N   UNL     1      42.089 -11.241   6.427  1.00  0.00    -0.178 N 
HETATM    2  C   UNL     1      41.466 -10.464   7.304  1.00  0.00     0.681 C 
HETATM    3  N   UNL     1      42.350  -9.683   7.910  1.00  0.00    -0.177 N 
HETATM    4  C   UNL     1      43.630 -10.133   7.594  1.00  0.00     0.079 A 
HETATM    5  C   UNL     1      43.461 -11.139   6.636  1.00  0.00     0.079 A 
HETATM    6  C   UNL     1      44.886  -9.743   8.049  1.00  0.00     0.032 A 
HETATM    7  C   UNL     1      45.979 -10.421   7.494  1.00  0.00     0.002 A 
HETATM    8  C   UNL     1      45.811 -11.432   6.527  1.00  0.00     0.002 A 
HETATM    9  C   UNL     1      44.541 -11.812   6.070  1.00  0.00     0.032 A 
ENDROOT
BRANCH   1  10
HETATM   10  C   UNL     1      41.426 -12.021   5.369  1.00  0.00     0.184 C 
BRANCH  10  11
HETATM   11  C   UNL     1      40.942 -13.408   5.847  1.00  0.00     0.170 C 
BRANCH  11  12
HETATM   12  C   UNL     1      41.422 -14.494   4.910  1.00  0.00    -0.028 A 
HETATM   13  C   UNL     1      42.727 -15.008   4.985  1.00  0.00     0.012 A 
HETATM   14  C   UNL     1      43.137 -16.052   4.147  1.00  0.00     0.037 A 
HETATM   15  C   UNL     1      42.247 -16.608   3.232  1.00  0.00     0.068 A 
HETATM   16  C   UNL     1      40.949 -16.102   3.153  1.00  0.00     0.037 A 
HETATM   17  C   UNL     1      40.536 -15.055   3.982  1.00  0.00     0.012 A 
BRANCH  15  18
HETATM   18  O   UNL     1      42.511 -17.637   2.373  1.00  0.00    -0.356 OA
HETATM   19  C   UNL     1      43.530 -18.554   2.753  1.00  0.00     0.210 C 
ENDBRANCH  15  18
ENDBRANCH  11  12
BRANCH  11  20
HETATM   20  O   UNL     1      39.502 -13.423   5.927  1.00  0.00    -0.389 OA
HETATM   21  H   UNL     1      39.208 -13.968   5.168  1.00  0.00     0.210 HD
ENDBRANCH  11  20
ENDBRANCH  10  11
ENDBRANCH   1  10
BRANCH   2  22
HETATM   22  N   UNL     1      40.158 -10.477   7.543  1.00  0.00    -0.234 N 
HETATM   23  H   UNL     1      39.794 -11.210   8.156  1.00  0.00     0.174 HD
HETATM   24  H   UNL     1      39.586  -9.661   7.394  1.00  0.00     0.174 HD
ENDBRANCH   2  22
BRANCH   3  25
HETATM   25  C   UNL     1      42.037  -8.507   8.706  1.00  0.00     0.186 C 
BRANCH  25  26
HETATM   26  C   UNL     1      42.237  -8.730  10.184  1.00  0.00    -0.039 A 
HETATM   27  C   UNL     1      43.305  -8.191  10.919  1.00  0.00     0.009 A 
HETATM   28  C   UNL     1      43.419  -8.432  12.291  1.00  0.00     0.001 A 
HETATM   29  C   UNL     1      42.466  -9.204  12.949  1.00  0.00     0.000 A 
HETATM   30  C   UNL     1      41.395  -9.737  12.240  1.00  0.00     0.001 A 
HETATM   31  C   UNL     1      41.282  -9.504  10.868  1.00  0.00     0.009 A 
ENDBRANCH  25  26
ENDBRANCH   3  25
TORSDOF 8
ENDMDL
MODEL 8
REMARK VINA RESULT:      -7.6     14.735     17.153
REMARK  8 active torsions:
REMARK  status: ('A' for Active; 'I' for Inactive)
REMARK    1  A    between atoms: O_2  and  C_3 
REMARK    2  A    between atoms: C_6  and  C_7 
REMARK    3  A    between atoms: C_7  and  O_8 
REMARK    4  A    between atoms: C_7  and  C_9 
REMARK    5  A    between atoms: C_9  and  N_10 
REMARK    6  A    between atoms: C_11  and  N_12 
REMARK    7  A    between atoms: N_13  and  C_14 
REMARK    8  A    between atoms: C_14  and  C_15 
ROOT
HETATM    1  N   UNL     1      47.157 -30.035   1.823  1.00  0.00    -0.178 N 
HETATM    2  C   UNL     1      46.376 -29.035   1.433  1.00  0.00     0.681 C 
HETATM    3  N   UNL     1      46.691 -28.684   0.194  1.00  0.00    -0.177 N 
HETATM    4  C   UNL     1      47.884 -29.313  -0.156  1.00  0.00     0.079 A 
HETATM    5  C   UNL     1      48.184 -30.186   0.895  1.00  0.00     0.079 A 
HETATM    6  C   UNL     1      48.694 -29.198  -1.282  1.00  0.00     0.032 A 
HETATM    7  C   UNL     1      49.836 -30.009  -1.303  1.00  0.00     0.002 A 
HETATM    8  C   UNL     1      50.138 -30.891  -0.246  1.00  0.00     0.002 A 
HETATM    9  C   UNL     1      49.312 -31.003   0.880  1.00  0.00     0.032 A 
ENDROOT
BRANCH   1  10
HETATM   10  C   UNL     1      46.922 -30.880   3.005  1.00  0.00     0.184 C 
BRANCH  10  11
HETATM   11  C   UNL     1      47.489 -30.276   4.308  1.00  0.00     0.170 C 
BRANCH  11  12
HETATM   12  C   UNL     1      48.834 -30.882   4.638  1.00  0.00    -0.028 A 
HETATM   13  C   UNL     1      50.036 -30.228   4.320  1.00  0.00     0.012 A 
HETATM   14  C   UNL     1      51.271 -30.778   4.682  1.00  0.00     0.037 A 
HETATM   15  C   UNL     1      51.325 -31.982   5.380  1.00  0.00     0.068 A 
HETATM   16  C   UNL     1      50.135 -32.637   5.699  1.00  0.00     0.037 A 
HETATM   17  C   UNL     1      48.899 -32.097   5.333  1.00  0.00     0.012 A 
BRANCH  15  18
HETATM   18  O   UNL     1      52.457 -32.616   5.807  1.00  0.00    -0.356 OA
HETATM   19  C   UNL     1      53.268 -31.929   6.753  1.00  0.00     0.210 C 
ENDBRANCH  15  18
ENDBRANCH  11  12
BRANCH  11  20
HETATM   20  O   UNL     1      46.565 -30.499   5.393  1.00  0.00    -0.389 OA
HETATM   21  H   UNL     1      46.021 -29.684   5.440  1.00  0.00     0.210 HD
ENDBRANCH  11  20
ENDBRANCH  10  11
ENDBRANCH   1  10
BRANCH   2  22
HETATM   22  N   UNL     1      45.431 -28.469   2.178  1.00  0.00    -0.234 N 
HETATM   23  H   UNL     1      45.516 -27.470   2.376  1.00  0.00     0.174 HD
HETATM   24  H   UNL     1      44.527 -28.898   2.300  1.00  0.00     0.174 HD
ENDBRANCH   2  22
BRANCH   3  25
HETATM   25  C   UNL     1      45.885 -27.845  -0.680  1.00  0.00     0.186 C 
BRANCH  25  26
HETATM   26  C   UNL     1      45.279 -28.611  -1.829  1.00  0.00    -0.039 A 
HETATM   27  C   UNL     1      44.524 -29.784  -1.676  1.00  0.00     0.009 A 
HETATM   28  C   UNL     1      43.982 -30.434  -2.788  1.00  0.00     0.001 A 
HETATM   29  C   UNL     1      44.178 -29.918  -4.066  1.00  0.00     0.000 A 
HETATM   30  C   UNL     1      44.915 -28.750  -4.237  1.00  0.00     0.001 A 
HETATM   31  C   UNL     1      45.462 -28.103  -3.127  1.00  0.00     0.009 A 
ENDBRANCH  25  26
ENDBRANCH   3  25
TORSDOF 8
ENDMDL
MODEL 9
REMARK VINA RESULT:      -7.6      3.046      5.851
REMARK  8 active torsions:
REMARK  status: ('A' for Active; 'I' for Inactive)
REMARK    1  A    between atoms: O_2  and  C_3 
REMARK    2  A    between atoms: C_6  and  C_7 
REMARK    3  A    between atoms: C_7  and  O_8 
REMARK    4  A    between atoms: C_7  and  C_9 
REMARK    5  A    between atoms: C_9  and  N_10 
REMARK    6  A    between atoms: C_11  and  N_12 
REMARK    7  A    between atoms: N_13  and  C_14 
REMARK    8  A    between atoms: C_14  and  C_15 
ROOT
HETATM    1  N   UNL     1      41.511 -11.975   2.406  1.00  0.00    -0.178 N 
HETATM    2  C   UNL     1      42.434 -12.127   3.348  1.00  0.00     0.681 C 
HETATM    3  N   UNL     1      41.917 -11.818   4.529  1.00  0.00    -0.177 N 
HETATM    4  C   UNL     1      40.681 -11.207   4.326  1.00  0.00     0.079 A 
HETATM    5  C   UNL     1      40.419 -11.309   2.955  1.00  0.00     0.079 A 
HETATM    6  C   UNL     1      39.793 -10.601   5.210  1.00  0.00     0.032 A 
HETATM    7  C   UNL     1      38.615 -10.092   4.646  1.00  0.00     0.002 A 
HETATM    8  C   UNL     1      38.349 -10.197   3.266  1.00  0.00     0.002 A 
HETATM    9  C   UNL     1      39.248 -10.815   2.387  1.00  0.00     0.032 A 
ENDROOT
BRANCH   1  10
HETATM   10  C   UNL     1      41.613 -12.493   1.032  1.00  0.00     0.184 C 
BRANCH  10  11
HETATM   11  C   UNL     1      40.859 -13.825   0.826  1.00  0.00     0.170 C 
BRANCH  11  12
HETATM   12  C   UNL     1      41.498 -14.931   1.636  1.00  0.00    -0.028 A 
HETATM   13  C   UNL     1      40.818 -15.559   2.691  1.00  0.00     0.012 A 
HETATM   14  C   UNL     1      41.403 -16.619   3.394  1.00  0.00     0.037 A 
HETATM   15  C   UNL     1      42.671 -17.078   3.043  1.00  0.00     0.068 A 
HETATM   16  C   UNL     1      43.352 -16.459   1.995  1.00  0.00     0.037 A 
HETATM   17  C   UNL     1      42.776 -15.395   1.295  1.00  0.00     0.012 A 
BRANCH  15  18
HETATM   18  O   UNL     1      43.346 -18.110   3.631  1.00  0.00    -0.356 OA
HETATM   19  C   UNL     1      43.813 -19.150   2.780  1.00  0.00     0.210 C 
ENDBRANCH  15  18
ENDBRANCH  11  12
BRANCH  11  20
HETATM   20  O   UNL     1      40.854 -14.173  -0.574  1.00  0.00    -0.389 OA
HETATM   21  H   UNL     1      41.403 -13.488  -1.011  1.00  0.00     0.210 HD
ENDBRANCH  11  20
ENDBRANCH  10  11
ENDBRANCH   1  10
BRANCH   2  22
HETATM   22  N   UNL     1      43.686 -12.520   3.134  1.00  0.00    -0.234 N 
HETATM   23  H   UNL     1      44.382 -11.801   2.930  1.00  0.00     0.174 HD
HETATM   24  H   UNL     1      44.017 -13.421   3.443  1.00  0.00     0.174 HD
ENDBRANCH   2  22
BRANCH   3  25
HETATM   25  C   UNL     1      42.505 -12.134   5.821  1.00  0.00     0.186 C 
BRANCH  25  26
HETATM   26  C   UNL     1      42.348 -13.587   6.195  1.00  0.00    -0.039 A 
HETATM   27  C   UNL     1      41.108 -14.220   6.372  1.00  0.00     0.009 A 
HETATM   28  C   UNL     1      41.041 -15.575   6.708  1.00  0.00     0.001 A 
HETATM   29  C   UNL     1      42.208 -16.318   6.861  1.00  0.00     0.000 A 
HETATM   30  C   UNL     1      43.446 -15.710   6.679  1.00  0.00     0.001 A 
HETATM   31  C   UNL     1      43.516 -14.355   6.350  1.00  0.00     0.009 A 
ENDBRANCH  25  26
ENDBRANCH   3  25
TORSDOF 8
ENDMDL
MODEL 10
REMARK VINA RESULT:      -7.5      4.549      6.244
REMARK  8 active torsions:
REMARK  status: ('A' for Active; 'I' for Inactive)
REMARK    1  A    between atoms: O_2  and  C_3 
REMARK    2  A    between atoms: C_6  and  C_7 
REMARK    3  A    between atoms: C_7  and  O_8 
REMARK    4  A    between atoms: C_7  and  C_9 
REMARK    5  A    between atoms: C_9  and  N_10 
REMARK    6  A    between atoms: C_11  and  N_12 
REMARK    7  A    between atoms: N_13  and  C_14 
REMARK    8  A    between atoms: C_14  and  C_15 
ROOT
HETATM    1  N   UNL     1      40.735 -13.116   1.477  1.00  0.00    -0.178 N 
HETATM    2  C   UNL     1      40.548 -14.395   1.781  1.00  0.00     0.681 C 
HETATM    3  N   UNL     1      41.124 -14.663   2.944  1.00  0.00    -0.177 N 
HETATM    4  C   UNL     1      41.927 -13.582   3.302  1.00  0.00     0.079 A 
HETATM    5  C   UNL     1      41.675 -12.583   2.355  1.00  0.00     0.079 A 
HETATM    6  C   UNL     1      42.819 -13.400   4.355  1.00  0.00     0.032 A 
HETATM    7  C   UNL     1      43.457 -12.154   4.412  1.00  0.00     0.002 A 
HETATM    8  C   UNL     1      43.202 -11.147   3.461  1.00  0.00     0.002 A 
HETATM    9  C   UNL     1      42.297 -11.338   2.408  1.00  0.00     0.032 A 
ENDROOT
BRANCH   1  10
HETATM   10  C   UNL     1      40.009 -12.381   0.429  1.00  0.00     0.184 C 
BRANCH  10  11
HETATM   11  C   UNL     1      40.558 -12.645  -0.991  1.00  0.00     0.170 C 
BRANCH  11  12
HETATM   12  C   UNL     1      40.833 -11.342  -1.709  1.00  0.00    -0.028 A 
HETATM   13  C   UNL     1      40.453 -11.143  -3.045  1.00  0.00     0.012 A 
HETATM   14  C   UNL     1      40.665  -9.912  -3.677  1.00  0.00     0.037 A 
HETATM   15  C   UNL     1      41.247  -8.857  -2.979  1.00  0.00     0.068 A 
HETATM   16  C   UNL     1      41.627  -9.048  -1.650  1.00  0.00     0.037 A 
HETATM   17  C   UNL     1      41.425 -10.277  -1.017  1.00  0.00     0.012 A 
BRANCH  15  18
HETATM   18  O   UNL     1      41.493  -7.605  -3.467  1.00  0.00    -0.356 OA
HETATM   19  C   UNL     1      42.844  -7.160  -3.463  1.00  0.00     0.210 C 
ENDBRANCH  15  18
ENDBRANCH  11  12
BRANCH  11  20
HETATM   20  O   UNL     1      39.612 -13.435  -1.741  1.00  0.00    -0.389 OA
HETATM   21  H   UNL     1      39.831 -13.272  -2.683  1.00  0.00     0.210 HD
ENDBRANCH  11  20
ENDBRANCH  10  11
ENDBRANCH   1  10
BRANCH   2  22
HETATM   22  N   UNL     1      39.891 -15.271   1.026  1.00  0.00    -0.234 N 
HETATM   23  H   UNL     1      40.279 -16.212   0.944  1.00  0.00     0.174 HD
HETATM   24  H   UNL     1      38.921 -15.138   0.786  1.00  0.00     0.174 HD
ENDBRANCH   2  22
BRANCH   3  25
HETATM   25  C   UNL     1      40.895 -15.852   3.749  1.00  0.00     0.186 C 
BRANCH  25  26
HETATM   26  C   UNL     1      42.033 -16.839   3.673  1.00  0.00    -0.039 A 
HETATM   27  C   UNL     1      42.378 -17.546   2.510  1.00  0.00     0.009 A 
HETATM   28  C   UNL     1      43.455 -18.437   2.511  1.00  0.00     0.001 A 
HETATM   29  C   UNL     1      44.206 -18.629   3.668  1.00  0.00     0.000 A 
HETATM   30  C   UNL     1      43.884 -17.929   4.826  1.00  0.00     0.001 A 
HETATM   31  C   UNL     1      42.806 -17.043   4.830  1.00  0.00     0.009 A 
ENDBRANCH  25  26
ENDBRANCH   3  25
TORSDOF 8
ENDMDL
