MODEL 1
REMARK VINA RESULT:      -7.8      0.000      0.000
REMARK  6 active torsions:
REMARK  status: ('A' for Active; 'I' for Inactive)
REMARK    1  A    between atoms: C_2  and  N_3 
REMARK    2  A    between atoms: C_2  and  C_21 
REMARK       I    between atoms: N_3  and  C_4 
REMARK       I    between atoms: C_4  and  N_5 
REMARK    3  A    between atoms: N_5  and  C_6 
REMARK    4  A    between atoms: C_6  and  C_7 
REMARK    5  A    between atoms: C_10  and  O_11 
REMARK    6  A    between atoms: O_11  and  C_12 
ROOT
HETATM    1  N   UNL     1      43.023  -9.512  10.225  1.00  0.00    -0.332 N 
HETATM    2  C   UNL     1      44.062 -10.133   9.600  1.00  0.00     0.317 C 
HETATM    3  N   UNL     1      44.071  -9.871   8.257  1.00  0.00    -0.339 N 
HETATM    4  O   UNL     1      44.878 -10.846  10.166  1.00  0.00    -0.247 OA
HETATM    5  H   UNL     1      42.575  -8.729   9.771  1.00  0.00     0.165 HD
HETATM    6  H   UNL     1      43.174  -9.653   7.853  1.00  0.00     0.164 HD
ENDROOT
BRANCH   3   7
HETATM    7  C   UNL     1      45.015 -10.561   7.409  1.00  0.00     0.162 C 
BRANCH   7   8
HETATM    8  C   UNL     1      44.324 -11.603   6.573  1.00  0.00    -0.040 A 
HETATM    9  C   UNL     1      43.908 -12.814   7.142  1.00  0.00     0.011 A 
HETATM   10  C   UNL     1      43.275 -13.791   6.362  1.00  0.00     0.037 A 
HETATM   11  C   UNL     1      43.062 -13.575   5.002  1.00  0.00     0.069 A 
HETATM   12  C   UNL     1      43.492 -12.376   4.430  1.00  0.00     0.037 A 
HETATM   13  C   UNL     1      44.119 -11.397   5.204  1.00  0.00     0.011 A 
BRANCH  11  14
HETATM   14  O   UNL     1      42.458 -14.431   4.125  1.00  0.00    -0.346 OA
BRANCH  14  15
HETATM   15  C   UNL     1      41.866 -15.641   4.610  1.00  0.00     0.129 C 
HETATM   16  C   UNL     1      40.686 -16.063   3.722  1.00  0.00     0.032 C 
HETATM   17  C   UNL     1      41.126 -16.401   2.298  1.00  0.00     0.002 C 
HETATM   18  C   UNL     1      42.220 -17.466   2.286  1.00  0.00     0.000 C 
HETATM   19  C   UNL     1      43.402 -17.069   3.162  1.00  0.00     0.002 C 
HETATM   20  C   UNL     1      42.959 -16.722   4.584  1.00  0.00     0.032 C 
ENDBRANCH  14  15
ENDBRANCH  11  14
ENDBRANCH   7   8
ENDBRANCH   3   7
BRANCH   1  21
HETATM   21  C   UNL     1      42.811  -9.611  11.664  1.00  0.00     0.155 C 
HETATM   22  C   UNL     1      43.285  -8.351  12.387  1.00  0.00     0.041 C 
BRANCH  21  23
HETATM   23  C   UNL     1      41.345  -9.854  11.909  1.00  0.00     0.169 A 
HETATM   24  N   UNL     1      40.407  -9.731  10.950  1.00  0.00    -0.156 NA
HETATM   25  N   UNL     1      39.290 -10.044  11.628  1.00  0.00    -0.270 N 
HETATM   26  H   UNL     1      38.396 -10.038  11.149  1.00  0.00     0.190 HD
HETATM   27  C   UNL     1      39.565 -10.335  12.925  1.00  0.00     0.227 A 
HETATM   28  N   UNL     1      40.853 -10.222  13.139  1.00  0.00    -0.223 NA
ENDBRANCH  21  23
ENDBRANCH   1  21
TORSDOF 6
ENDMDL
MODEL 2
REMARK VINA RESULT:      -7.7      6.481      9.843
REMARK  6 active torsions:
REMARK  status: ('A' for Active; 'I' for Inactive)
REMARK    1  A    between atoms: C_2  and  N_3 
REMARK    2  A    between atoms: C_2  and  C_21 
REMARK       I    between atoms: N_3  and  C_4 
REMARK       I    between atoms: C_4  and  N_5 
REMARK    3  A    between atoms: N_5  and  C_6 
REMARK    4  A    between atoms: C_6  and  C_7 
REMARK    5  A    between atoms: C_10  and  O_11 
REMARK    6  A    between atoms: O_11  and  C_12 
ROOT
HETATM    1  N   UNL     1      41.184  -8.967  19.433  1.00  0.00    -0.332 N 
HETATM    2  C   UNL     1      41.184  -7.858  18.643  1.00  0.00     0.317 C 
HETATM    3  N   UNL     1      40.824  -8.154  17.356  1.00  0.00    -0.339 N 
HETATM    4  O   UNL     1      41.480  -6.737  19.031  1.00  0.00    -0.247 OA
HETATM    5  H   UNL     1      40.664  -9.781  19.136  1.00  0.00     0.165 HD
HETATM    6  H   UNL     1      41.015  -9.099  17.062  1.00  0.00     0.164 HD
ENDROOT
BRANCH   3   7
HETATM    7  C   UNL     1      40.909  -7.128  16.344  1.00  0.00     0.162 C 
BRANCH   7   8
HETATM    8  C   UNL     1      41.661  -7.623  15.139  1.00  0.00    -0.040 A 
HETATM    9  C   UNL     1      41.312  -8.835  14.529  1.00  0.00     0.011 A 
HETATM   10  C   UNL     1      42.019  -9.305  13.414  1.00  0.00     0.037 A 
HETATM   11  C   UNL     1      43.090  -8.575  12.903  1.00  0.00     0.069 A 
HETATM   12  C   UNL     1      43.450  -7.375  13.521  1.00  0.00     0.037 A 
HETATM   13  C   UNL     1      42.746  -6.901  14.631  1.00  0.00     0.011 A 
BRANCH  11  14
HETATM   14  O   UNL     1      43.862  -8.905  11.826  1.00  0.00    -0.346 OA
BRANCH  14  15
HETATM   15  C   UNL     1      43.250  -9.471  10.661  1.00  0.00     0.129 C 
HETATM   16  C   UNL     1      42.804  -8.367   9.691  1.00  0.00     0.032 C 
HETATM   17  C   UNL     1      43.986  -7.565   9.146  1.00  0.00     0.002 C 
HETATM   18  C   UNL     1      45.026  -8.471   8.493  1.00  0.00     0.000 C 
HETATM   19  C   UNL     1      45.483  -9.576   9.438  1.00  0.00     0.002 C 
HETATM   20  C   UNL     1      44.300 -10.371   9.991  1.00  0.00     0.032 C 
ENDBRANCH  14  15
ENDBRANCH  11  14
ENDBRANCH   7   8
ENDBRANCH   3   7
BRANCH   1  21
HETATM   21  C   UNL     1      41.504  -8.910  20.854  1.00  0.00     0.155 C 
HETATM   22  C   UNL     1      40.256  -9.092  21.716  1.00  0.00     0.041 C 
BRANCH  21  23
HETATM   23  C   UNL     1      42.526  -9.975  21.151  1.00  0.00     0.169 A 
HETATM   24  N   UNL     1      43.665  -9.735  21.829  1.00  0.00    -0.156 NA
HETATM   25  N   UNL     1      44.228 -10.954  21.845  1.00  0.00    -0.270 N 
HETATM   26  H   UNL     1      45.123 -11.085  22.303  1.00  0.00     0.190 HD
HETATM   27  C   UNL     1      43.452 -11.865  21.203  1.00  0.00     0.227 A 
HETATM   28  N   UNL     1      42.370 -11.279  20.749  1.00  0.00    -0.223 NA
ENDBRANCH  21  23
ENDBRANCH   1  21
TORSDOF 6
ENDMDL
MODEL 3
REMARK VINA RESULT:      -7.6      2.536      4.022
REMARK  6 active torsions:
REMARK  status: ('A' for Active; 'I' for Inactive)
REMARK    1  A    between atoms: C_2  and  N_3 
REMARK    2  A    between atoms: C_2  and  C_21 
REMARK       I    between atoms: N_3  and  C_4 
REMARK       I    between atoms: C_4  and  N_5 
REMARK    3  A    between atoms: N_5  and  C_6 
REMARK    4  A    between atoms: C_6  and  C_7 
REMARK    5  A    between atoms: C_10  and  O_11 
REMARK    6  A    between atoms: O_11  and  C_12 
ROOT
HETATM    1  N   UNL     1      42.472  -9.671   9.188  1.00  0.00    -0.332 N 
HETATM    2  C   UNL     1      41.812  -9.444   8.018  1.00  0.00     0.317 C 
HETATM    3  N   UNL     1      40.753 -10.296   7.863  1.00  0.00    -0.339 N 
HETATM    4  O   UNL     1      42.133  -8.593   7.201  1.00  0.00    -0.247 OA
HETATM    5  H   UNL     1      42.000 -10.170   9.928  1.00  0.00     0.165 HD
HETATM    6  H   UNL     1      40.835 -11.179   8.343  1.00  0.00     0.164 HD
ENDROOT
BRANCH   3   7
HETATM    7  C   UNL     1      40.025 -10.300   6.617  1.00  0.00     0.162 C 
BRANCH   7   8
HETATM    8  C   UNL     1      40.439 -11.461   5.755  1.00  0.00    -0.040 A 
HETATM    9  C   UNL     1      39.965 -12.752   6.022  1.00  0.00     0.011 A 
HETATM   10  C   UNL     1      40.359 -13.838   5.229  1.00  0.00     0.037 A 
HETATM   11  C   UNL     1      41.241 -13.648   4.168  1.00  0.00     0.069 A 
HETATM   12  C   UNL     1      41.729 -12.365   3.912  1.00  0.00     0.037 A 
HETATM   13  C   UNL     1      41.336 -11.278   4.697  1.00  0.00     0.011 A 
BRANCH  11  14
HETATM   14  O   UNL     1      41.707 -14.606   3.313  1.00  0.00    -0.346 OA
BRANCH  14  15
HETATM   15  C   UNL     1      43.113 -14.868   3.238  1.00  0.00     0.129 C 
HETATM   16  C   UNL     1      43.569 -15.732   4.422  1.00  0.00     0.032 C 
HETATM   17  C   UNL     1      42.925 -17.119   4.408  1.00  0.00     0.002 C 
HETATM   18  C   UNL     1      43.173 -17.839   3.086  1.00  0.00     0.000 C 
HETATM   19  C   UNL     1      42.729 -16.999   1.894  1.00  0.00     0.002 C 
HETATM   20  C   UNL     1      43.366 -15.608   1.915  1.00  0.00     0.032 C 
ENDBRANCH  14  15
ENDBRANCH  11  14
ENDBRANCH   7   8
ENDBRANCH   3   7
BRANCH   1  21
HETATM   21  C   UNL     1      43.621  -8.873   9.600  1.00  0.00     0.155 C 
HETATM   22  C   UNL     1      43.874  -8.992  11.101  1.00  0.00     0.041 C 
BRANCH  21  23
HETATM   23  C   UNL     1      44.820  -9.331   8.812  1.00  0.00     0.169 A 
HETATM   24  N   UNL     1      45.715  -8.481   8.271  1.00  0.00    -0.156 NA
HETATM   25  N   UNL     1      46.575  -9.333   7.690  1.00  0.00    -0.270 N 
HETATM   26  H   UNL     1      47.379  -8.969   7.191  1.00  0.00     0.190 HD
HETATM   27  C   UNL     1      46.198 -10.623   7.882  1.00  0.00     0.227 A 
HETATM   28  N   UNL     1      45.091 -10.659   8.584  1.00  0.00    -0.223 NA
ENDBRANCH  21  23
ENDBRANCH   1  21
TORSDOF 6
ENDMDL
MODEL 4
REMARK VINA RESULT:      -7.2      3.308      8.917
REMARK  6 active torsions:
REMARK  status: ('A' for Active; 'I' for Inactive)
REMARK    1  A    between atoms: C_2  and  N_3 
REMARK    2  A    between atoms: C_2  and  C_21 
REMARK       I    between atoms: N_3  and  C_4 
REMARK       I    between atoms: C_4  and  N_5 
REMARK    3  A    between atoms: N_5  and  C_6 
REMARK    4  A    between atoms: C_6  and  C_7 
REMARK    5  A    between atoms: C_10  and  O_11 
REMARK    6  A    between atoms: O_11  and  C_12 
ROOT
HETATM    1  N   UNL     1      43.274 -13.467   5.539  1.00  0.00    -0.332 N 
HETATM    2  C   UNL     1      43.881 -12.248   5.553  1.00  0.00     0.317 C 
HETATM    3  N   UNL     1      44.786 -12.147   6.574  1.00  0.00    -0.339 N 
HETATM    4  O   UNL     1      43.638 -11.350   4.760  1.00  0.00    -0.247 OA
HETATM    5  H   UNL     1      43.713 -14.240   6.019  1.00  0.00     0.165 HD
HETATM    6  H   UNL     1      44.604 -12.734   7.373  1.00  0.00     0.164 HD
ENDROOT
BRANCH   3   7
HETATM    7  C   UNL     1      45.420 -10.876   6.833  1.00  0.00     0.162 C 
BRANCH   7   8
HETATM    8  C   UNL     1      44.901 -10.266   8.106  1.00  0.00    -0.040 A 
HETATM    9  C   UNL     1      43.675  -9.589   8.125  1.00  0.00     0.011 A 
HETATM   10  C   UNL     1      43.195  -9.009   9.306  1.00  0.00     0.037 A 
HETATM   11  C   UNL     1      43.940  -9.088  10.481  1.00  0.00     0.069 A 
HETATM   12  C   UNL     1      45.171  -9.748  10.460  1.00  0.00     0.037 A 
HETATM   13  C   UNL     1      45.652 -10.331   9.285  1.00  0.00     0.011 A 
BRANCH  11  14
HETATM   14  O   UNL     1      43.598  -8.577  11.700  1.00  0.00    -0.346 OA
BRANCH  14  15
HETATM   15  C   UNL     1      42.282  -8.048  11.903  1.00  0.00     0.129 C 
HETATM   16  C   UNL     1      41.444  -8.996  12.774  1.00  0.00     0.032 C 
HETATM   17  C   UNL     1      42.015  -9.142  14.184  1.00  0.00     0.002 C 
HETATM   18  C   UNL     1      42.182  -7.786  14.866  1.00  0.00     0.000 C 
HETATM   19  C   UNL     1      43.011  -6.828  14.019  1.00  0.00     0.002 C 
HETATM   20  C   UNL     1      42.444  -6.690  12.605  1.00  0.00     0.032 C 
ENDBRANCH  14  15
ENDBRANCH  11  14
ENDBRANCH   7   8
ENDBRANCH   3   7
BRANCH   1  21
HETATM   21  C   UNL     1      42.289 -13.834   4.529  1.00  0.00     0.155 C 
HETATM   22  C   UNL     1      42.954 -14.424   3.287  1.00  0.00     0.041 C 
BRANCH  21  23
HETATM   23  C   UNL     1      41.325 -14.815   5.143  1.00  0.00     0.169 A 
HETATM   24  N   UNL     1      40.691 -15.768   4.433  1.00  0.00    -0.156 NA
HETATM   25  N   UNL     1      39.967 -16.375   5.389  1.00  0.00    -0.270 N 
HETATM   26  H   UNL     1      39.371 -17.158   5.143  1.00  0.00     0.190 HD
HETATM   27  C   UNL     1      40.170 -15.800   6.602  1.00  0.00     0.227 A 
HETATM   28  N   UNL     1      41.020 -14.809   6.483  1.00  0.00    -0.223 NA
ENDBRANCH  21  23
ENDBRANCH   1  21
TORSDOF 6
ENDMDL
MODEL 5
REMARK VINA RESULT:      -7.2      5.955     10.319
REMARK  6 active torsions:
REMARK  status: ('A' for Active; 'I' for Inactive)
REMARK    1  A    between atoms: C_2  and  N_3 
REMARK    2  A    between atoms: C_2  and  C_21 
REMARK       I    between atoms: N_3  and  C_4 
REMARK       I    between atoms: C_4  and  N_5 
REMARK    3  A    between atoms: N_5  and  C_6 
REMARK    4  A    between atoms: C_6  and  C_7 
REMARK    5  A    between atoms: C_10  and  O_11 
REMARK    6  A    between atoms: O_11  and  C_12 
ROOT
HETATM    1  N   UNL     1      40.844 -13.542  -0.222  1.00  0.00    -0.332 N 
HETATM    2  C   UNL     1      40.439 -13.363   1.066  1.00  0.00     0.317 C 
HETATM    3  N   UNL     1      41.219 -14.069   1.942  1.00  0.00    -0.339 N 
HETATM    4  O   UNL     1      39.490 -12.669   1.399  1.00  0.00    -0.247 OA
HETATM    5  H   UNL     1      41.779 -13.878  -0.400  1.00  0.00     0.165 HD
HETATM    6  H   UNL     1      41.660 -14.892   1.561  1.00  0.00     0.164 HD
ENDROOT
BRANCH   3   7
HETATM    7  C   UNL     1      40.850 -14.116   3.337  1.00  0.00     0.162 C 
BRANCH   7   8
HETATM    8  C   UNL     1      41.822 -13.335   4.177  1.00  0.00    -0.040 A 
HETATM    9  C   UNL     1      42.593 -13.974   5.156  1.00  0.00     0.011 A 
HETATM   10  C   UNL     1      43.491 -13.247   5.949  1.00  0.00     0.037 A 
HETATM   11  C   UNL     1      43.619 -11.870   5.780  1.00  0.00     0.069 A 
HETATM   12  C   UNL     1      42.838 -11.228   4.817  1.00  0.00     0.037 A 
HETATM   13  C   UNL     1      41.945 -11.950   4.022  1.00  0.00     0.011 A 
BRANCH  11  14
HETATM   14  O   UNL     1      44.451 -11.037   6.474  1.00  0.00    -0.346 OA
BRANCH  14  15
HETATM   15  C   UNL     1      44.479 -11.094   7.905  1.00  0.00     0.129 C 
HETATM   16  C   UNL     1      45.821 -10.579   8.443  1.00  0.00     0.032 C 
HETATM   17  C   UNL     1      46.046  -9.102   8.119  1.00  0.00     0.002 C 
HETATM   18  C   UNL     1      44.894  -8.235   8.620  1.00  0.00     0.000 C 
HETATM   19  C   UNL     1      43.549  -8.729   8.098  1.00  0.00     0.002 C 
HETATM   20  C   UNL     1      43.330 -10.209   8.415  1.00  0.00     0.032 C 
ENDBRANCH  14  15
ENDBRANCH  11  14
ENDBRANCH   7   8
ENDBRANCH   3   7
BRANCH   1  21
HETATM   21  C   UNL     1      40.192 -12.872  -1.342  1.00  0.00     0.155 C 
HETATM   22  C   UNL     1      41.208 -12.171  -2.242  1.00  0.00     0.041 C 
BRANCH  21  23
HETATM   23  C   UNL     1      39.405 -13.899  -2.112  1.00  0.00     0.169 A 
HETATM   24  N   UNL     1      39.083 -15.108  -1.613  1.00  0.00    -0.156 NA
HETATM   25  N   UNL     1      38.399 -15.646  -2.636  1.00  0.00    -0.270 N 
HETATM   26  H   UNL     1      38.019 -16.582  -2.547  1.00  0.00     0.190 HD
HETATM   27  C   UNL     1      38.326 -14.789  -3.686  1.00  0.00     0.227 A 
HETATM   28  N   UNL     1      38.954 -13.676  -3.391  1.00  0.00    -0.223 NA
ENDBRANCH  21  23
ENDBRANCH   1  21
TORSDOF 6
ENDMDL
MODEL 6
REMARK VINA RESULT:      -7.2      1.461      2.291
REMARK  6 active torsions:
REMARK  status: ('A' for Active; 'I' for Inactive)
REMARK    1  A    between atoms: C_2  and  N_3 
REMARK    2  A    between atoms: C_2  and  C_21 
REMARK       I    between atoms: N_3  and  C_4 
REMARK       I    between atoms: C_4  and  N_5 
REMARK    3  A    between atoms: N_5  and  C_6 
REMARK    4  A    between atoms: C_6  and  C_7 
REMARK    5  A    between atoms: C_10  and  O_11 
REMARK    6  A    between atoms: O_11  and  C_12 
ROOT
HETATM    1  N   UNL     1      42.082 -10.150  11.018  1.00  0.00    -0.332 N 
HETATM    2  C   UNL     1      42.599  -9.830   9.799  1.00  0.00     0.317 C 
HETATM    3  N   UNL     1      43.522 -10.752   9.385  1.00  0.00    -0.339 N 
HETATM    4  O   UNL     1      42.287  -8.836   9.159  1.00  0.00    -0.247 OA
HETATM    5  H   UNL     1      42.159 -11.101  11.349  1.00  0.00     0.165 HD
HETATM    6  H   UNL     1      43.993 -11.253  10.122  1.00  0.00     0.164 HD
ENDROOT
BRANCH   3   7
HETATM    7  C   UNL     1      44.281 -10.501   8.183  1.00  0.00     0.162 C 
BRANCH   7   8
HETATM    8  C   UNL     1      43.894 -11.463   7.093  1.00  0.00    -0.040 A 
HETATM    9  C   UNL     1      43.566 -10.996   5.813  1.00  0.00     0.011 A 
HETATM   10  C   UNL     1      43.193 -11.889   4.799  1.00  0.00     0.037 A 
HETATM   11  C   UNL     1      43.132 -13.257   5.056  1.00  0.00     0.069 A 
HETATM   12  C   UNL     1      43.441 -13.722   6.336  1.00  0.00     0.037 A 
HETATM   13  C   UNL     1      43.817 -12.836   7.349  1.00  0.00     0.011 A 
BRANCH  11  14
HETATM   14  O   UNL     1      42.791 -14.238   4.170  1.00  0.00    -0.346 OA
BRANCH  14  15
HETATM   15  C   UNL     1      42.557 -15.570   4.642  1.00  0.00     0.129 C 
HETATM   16  C   UNL     1      41.100 -15.987   4.395  1.00  0.00     0.032 C 
HETATM   17  C   UNL     1      40.761 -16.048   2.905  1.00  0.00     0.002 C 
HETATM   18  C   UNL     1      41.720 -16.962   2.149  1.00  0.00     0.000 C 
HETATM   19  C   UNL     1      43.174 -16.568   2.380  1.00  0.00     0.002 C 
HETATM   20  C   UNL     1      43.509 -16.498   3.870  1.00  0.00     0.032 C 
ENDBRANCH  14  15
ENDBRANCH  11  14
ENDBRANCH   7   8
ENDBRANCH   3   7
BRANCH   1  21
HETATM   21  C   UNL     1      41.056  -9.340  11.664  1.00  0.00     0.155 C 
HETATM   22  C   UNL     1      39.822 -10.172  12.010  1.00  0.00     0.041 C 
BRANCH  21  23
HETATM   23  C   UNL     1      41.653  -8.719  12.899  1.00  0.00     0.169 A 
HETATM   24  N   UNL     1      41.229  -9.003  14.146  1.00  0.00    -0.156 NA
HETATM   25  N   UNL     1      42.043  -8.233  14.887  1.00  0.00    -0.270 N 
HETATM   26  H   UNL     1      41.956  -8.240  15.897  1.00  0.00     0.190 HD
HETATM   27  C   UNL     1      42.903  -7.530  14.106  1.00  0.00     0.227 A 
HETATM   28  N   UNL     1      42.682  -7.810  12.844  1.00  0.00    -0.223 NA
ENDBRANCH  21  23
ENDBRANCH   1  21
TORSDOF 6
ENDMDL
MODEL 7
REMARK VINA RESULT:      -7.1      3.174      4.303
REMARK  6 active torsions:
REMARK  status: ('A' for Active; 'I' for Inactive)
REMARK    1  A    between atoms: C_2  and  N_3 
REMARK    2  A    between atoms: C_2  and  C_21 
REMARK       I    between atoms: N_3  and  C_4 
REMARK       I    between atoms: C_4  and  N_5 
REMARK    3  A    between atoms: N_5  and  C_6 
REMARK    4  A    between atoms: C_6  and  C_7 
REMARK    5  A    between atoms: C_10  and  O_11 
REMARK    6  A    between atoms: O_11  and  C_12 
ROOT
HETATM    1  N   UNL     1      43.219 -10.778   8.263  1.00  0.00    -0.332 N 
HETATM    2  C   UNL     1      43.830 -11.674   7.440  1.00  0.00     0.317 C 
HETATM    3  N   UNL     1      42.931 -12.305   6.625  1.00  0.00    -0.339 N 
HETATM    4  O   UNL     1      45.032 -11.897   7.438  1.00  0.00    -0.247 OA
HETATM    5  H   UNL     1      42.299 -10.438   8.022  1.00  0.00     0.165 HD
HETATM    6  H   UNL     1      41.991 -12.367   6.984  1.00  0.00     0.164 HD
ENDROOT
BRANCH   3   7
HETATM    7  C   UNL     1      43.378 -13.392   5.787  1.00  0.00     0.162 C 
BRANCH   7   8
HETATM    8  C   UNL     1      42.801 -13.275   4.402  1.00  0.00    -0.040 A 
HETATM    9  C   UNL     1      42.213 -12.078   3.973  1.00  0.00     0.011 A 
HETATM   10  C   UNL     1      41.664 -11.971   2.688  1.00  0.00     0.037 A 
HETATM   11  C   UNL     1      41.685 -13.062   1.822  1.00  0.00     0.069 A 
HETATM   12  C   UNL     1      42.255 -14.261   2.255  1.00  0.00     0.037 A 
HETATM   13  C   UNL     1      42.807 -14.372   3.533  1.00  0.00     0.011 A 
BRANCH  11  14
HETATM   14  O   UNL     1      41.195 -13.101   0.548  1.00  0.00    -0.346 OA
BRANCH  14  15
HETATM   15  C   UNL     1      39.809 -13.390   0.330  1.00  0.00     0.129 C 
HETATM   16  C   UNL     1      39.051 -12.127  -0.102  1.00  0.00     0.032 C 
HETATM   17  C   UNL     1      39.541 -11.590  -1.447  1.00  0.00     0.002 C 
HETATM   18  C   UNL     1      39.476 -12.658  -2.534  1.00  0.00     0.000 C 
HETATM   19  C   UNL     1      40.222 -13.924  -2.127  1.00  0.00     0.002 C 
HETATM   20  C   UNL     1      39.737 -14.454  -0.777  1.00  0.00     0.032 C 
ENDBRANCH  14  15
ENDBRANCH  11  14
ENDBRANCH   7   8
ENDBRANCH   3   7
BRANCH   1  21
HETATM   21  C   UNL     1      43.965  -9.955   9.208  1.00  0.00     0.155 C 
HETATM   22  C   UNL     1      43.720  -8.466   8.968  1.00  0.00     0.041 C 
BRANCH  21  23
HETATM   23  C   UNL     1      43.559 -10.351  10.603  1.00  0.00     0.169 A 
HETATM   24  N   UNL     1      44.043 -11.441  11.230  1.00  0.00    -0.156 NA
HETATM   25  N   UNL     1      43.409 -11.372  12.412  1.00  0.00    -0.270 N 
HETATM   26  H   UNL     1      43.581 -12.083  13.114  1.00  0.00     0.190 HD
HETATM   27  C   UNL     1      42.590 -10.290  12.471  1.00  0.00     0.227 A 
HETATM   28  N   UNL     1      42.658  -9.625  11.344  1.00  0.00    -0.223 NA
ENDBRANCH  21  23
ENDBRANCH   1  21
TORSDOF 6
ENDMDL
MODEL 8
REMARK VINA RESULT:      -7.1      2.996      4.301
REMARK  6 active torsions:
REMARK  status: ('A' for Active; 'I' for Inactive)
REMARK    1  A    between atoms: C_2  and  N_3 
REMARK    2  A    between atoms: C_2  and  C_21 
REMARK       I    between atoms: N_3  and  C_4 
REMARK       I    between atoms: C_4  and  N_5 
REMARK    3  A    between atoms: N_5  and  C_6 
REMARK    4  A    between atoms: C_6  and  C_7 
REMARK    5  A    between atoms: C_10  and  O_11 
REMARK    6  A    between atoms: O_11  and  C_12 
ROOT
HETATM    1  N   UNL     1      41.199 -10.076   8.006  1.00  0.00    -0.332 N 
HETATM    2  C   UNL     1      40.556 -10.381   6.846  1.00  0.00     0.317 C 
HETATM    3  N   UNL     1      39.994 -11.628   6.893  1.00  0.00    -0.339 N 
HETATM    4  O   UNL     1      40.497  -9.639   5.876  1.00  0.00    -0.247 OA
HETATM    5  H   UNL     1      40.970 -10.591   8.845  1.00  0.00     0.165 HD
HETATM    6  H   UNL     1      40.441 -12.280   7.519  1.00  0.00     0.164 HD
ENDROOT
BRANCH   3   7
HETATM    7  C   UNL     1      39.394 -12.179   5.701  1.00  0.00     0.162 C 
BRANCH   7   8
HETATM    8  C   UNL     1      40.109 -13.430   5.268  1.00  0.00    -0.040 A 
HETATM    9  C   UNL     1      40.356 -13.678   3.912  1.00  0.00     0.011 A 
HETATM   10  C   UNL     1      41.010 -14.848   3.505  1.00  0.00     0.037 A 
HETATM   11  C   UNL     1      41.415 -15.790   4.448  1.00  0.00     0.069 A 
HETATM   12  C   UNL     1      41.155 -15.552   5.799  1.00  0.00     0.037 A 
HETATM   13  C   UNL     1      40.506 -14.386   6.210  1.00  0.00     0.011 A 
BRANCH  11  14
HETATM   14  O   UNL     1      42.063 -16.967   4.200  1.00  0.00    -0.346 OA
BRANCH  14  15
HETATM   15  C   UNL     1      43.411 -16.945   3.716  1.00  0.00     0.129 C 
HETATM   16  C   UNL     1      44.322 -17.802   4.606  1.00  0.00     0.032 C 
HETATM   17  C   UNL     1      43.933 -19.281   4.579  1.00  0.00     0.002 C 
HETATM   18  C   UNL     1      43.902 -19.826   3.154  1.00  0.00     0.000 C 
HETATM   19  C   UNL     1      43.003 -18.990   2.250  1.00  0.00     0.002 C 
HETATM   20  C   UNL     1      43.387 -17.510   2.286  1.00  0.00     0.032 C 
ENDBRANCH  14  15
ENDBRANCH  11  14
ENDBRANCH   7   8
ENDBRANCH   3   7
BRANCH   1  21
HETATM   21  C   UNL     1      41.856  -8.792   8.217  1.00  0.00     0.155 C 
HETATM   22  C   UNL     1      40.996  -7.858   9.067  1.00  0.00     0.041 C 
BRANCH  21  23
HETATM   23  C   UNL     1      43.188  -9.044   8.871  1.00  0.00     0.169 A 
HETATM   24  N   UNL     1      44.351  -9.064   8.191  1.00  0.00    -0.156 NA
HETATM   25  N   UNL     1      45.231  -9.314   9.175  1.00  0.00    -0.270 N 
HETATM   26  H   UNL     1      46.219  -9.385   8.956  1.00  0.00     0.190 HD
HETATM   27  C   UNL     1      44.609  -9.436  10.375  1.00  0.00     0.227 A 
HETATM   28  N   UNL     1      43.317  -9.275  10.220  1.00  0.00    -0.223 NA
ENDBRANCH  21  23
ENDBRANCH   1  21
TORSDOF 6
ENDMDL
MODEL 9
REMARK VINA RESULT:      -7.0     19.372     22.310
REMARK  6 active torsions:
REMARK  status: ('A' for Active; 'I' for Inactive)
REMARK    1  A    between atoms: C_2  and  N_3 
REMARK    2  A    between atoms: C_2  and  C_21 
REMARK       I    between atoms: N_3  and  C_4 
REMARK       I    between atoms: C_4  and  N_5 
REMARK    3  A    between atoms: N_5  and  C_6 
REMARK    4  A    between atoms: C_6  and  C_7 
REMARK    5  A    between atoms: C_10  and  O_11 
REMARK    6  A    between atoms: O_11  and  C_12 
ROOT
HETATM    1  N   UNL     1      44.885 -30.276  -5.520  1.00  0.00    -0.332 N 
HETATM    2  C   UNL     1      44.405 -29.454  -4.546  1.00  0.00     0.317 C 
HETATM    3  N   UNL     1      45.355 -28.566  -4.121  1.00  0.00    -0.339 N 
HETATM    4  O   UNL     1      43.269 -29.510  -4.097  1.00  0.00    -0.247 OA
HETATM    5  H   UNL     1      45.708 -29.997  -6.036  1.00  0.00     0.165 HD
HETATM    6  H   UNL     1      46.310 -28.870  -4.231  1.00  0.00     0.164 HD
ENDROOT
BRANCH   3   7
HETATM    7  C   UNL     1      45.071 -27.712  -2.992  1.00  0.00     0.162 C 
BRANCH   7   8
HETATM    8  C   UNL     1      45.895 -28.108  -1.798  1.00  0.00    -0.040 A 
HETATM    9  C   UNL     1      45.278 -28.455  -0.589  1.00  0.00     0.011 A 
HETATM   10  C   UNL     1      46.044 -28.812   0.529  1.00  0.00     0.037 A 
HETATM   11  C   UNL     1      47.435 -28.814   0.455  1.00  0.00     0.069 A 
HETATM   12  C   UNL     1      48.051 -28.451  -0.744  1.00  0.00     0.037 A 
HETATM   13  C   UNL     1      47.293 -28.098  -1.862  1.00  0.00     0.011 A 
BRANCH  11  14
HETATM   14  O   UNL     1      48.304 -29.141   1.457  1.00  0.00    -0.346 OA
BRANCH  14  15
HETATM   15  C   UNL     1      48.658 -30.513   1.668  1.00  0.00     0.129 C 
HETATM   16  C   UNL     1      50.184 -30.685   1.681  1.00  0.00     0.032 C 
HETATM   17  C   UNL     1      50.840 -29.942   2.845  1.00  0.00     0.002 C 
HETATM   18  C   UNL     1      50.238 -30.354   4.185  1.00  0.00     0.000 C 
HETATM   19  C   UNL     1      48.722 -30.192   4.196  1.00  0.00     0.002 C 
HETATM   20  C   UNL     1      48.068 -30.929   3.025  1.00  0.00     0.032 C 
ENDBRANCH  14  15
ENDBRANCH  11  14
ENDBRANCH   7   8
ENDBRANCH   3   7
BRANCH   1  21
HETATM   21  C   UNL     1      44.058 -31.292  -6.158  1.00  0.00     0.155 C 
HETATM   22  C   UNL     1      44.223 -31.275  -7.677  1.00  0.00     0.041 C 
BRANCH  21  23
HETATM   23  C   UNL     1      44.434 -32.634  -5.589  1.00  0.00     0.169 A 
HETATM   24  N   UNL     1      45.586 -32.857  -4.928  1.00  0.00    -0.156 NA
HETATM   25  N   UNL     1      45.470 -34.160  -4.621  1.00  0.00    -0.270 N 
HETATM   26  H   UNL     1      46.211 -34.620  -4.104  1.00  0.00     0.190 HD
HETATM   27  C   UNL     1      44.301 -34.674  -5.084  1.00  0.00     0.227 A 
HETATM   28  N   UNL     1      43.624 -33.738  -5.704  1.00  0.00    -0.223 NA
ENDBRANCH  21  23
ENDBRANCH   1  21
TORSDOF 6
ENDMDL
MODEL 10
REMARK VINA RESULT:      -6.8      5.227      9.620
REMARK  6 active torsions:
REMARK  status: ('A' for Active; 'I' for Inactive)
REMARK    1  A    between atoms: C_2  and  N_3 
REMARK    2  A    between atoms: C_2  and  C_21 
REMARK       I    between atoms: N_3  and  C_4 
REMARK       I    between atoms: C_4  and  N_5 
REMARK    3  A    between atoms: N_5  and  C_6 
REMARK    4  A    between atoms: C_6  and  C_7 
REMARK    5  A    between atoms: C_10  and  O_11 
REMARK    6  A    between atoms: O_11  and  C_12 
ROOT
HETATM    1  N   UNL     1      39.576 -14.372   0.466  1.00  0.00    -0.332 N 
HETATM    2  C   UNL     1      40.221 -15.188   1.344  1.00  0.00     0.317 C 
HETATM    3  N   UNL     1      39.560 -15.267   2.539  1.00  0.00    -0.339 N 
HETATM    4  O   UNL     1      41.269 -15.771   1.100  1.00  0.00    -0.247 OA
HETATM    5  H   UNL     1      38.600 -14.162   0.617  1.00  0.00     0.165 HD
HETATM    6  H   UNL     1      38.992 -14.467   2.772  1.00  0.00     0.164 HD
ENDROOT
BRANCH   3   7
HETATM    7  C   UNL     1      40.171 -15.971   3.641  1.00  0.00     0.162 C 
BRANCH   7   8
HETATM    8  C   UNL     1      41.017 -15.044   4.469  1.00  0.00    -0.040 A 
HETATM    9  C   UNL     1      40.425 -14.039   5.244  1.00  0.00     0.011 A 
HETATM   10  C   UNL     1      41.212 -13.165   6.007  1.00  0.00     0.037 A 
HETATM   11  C   UNL     1      42.600 -13.278   5.993  1.00  0.00     0.069 A 
HETATM   12  C   UNL     1      43.193 -14.268   5.206  1.00  0.00     0.037 A 
HETATM   13  C   UNL     1      42.413 -15.144   4.448  1.00  0.00     0.011 A 
BRANCH  11  14
HETATM   14  O   UNL     1      43.488 -12.504   6.685  1.00  0.00    -0.346 OA
BRANCH  14  15
HETATM   15  C   UNL     1      43.804 -11.191   6.210  1.00  0.00     0.129 C 
HETATM   16  C   UNL     1      43.181 -10.120   7.118  1.00  0.00     0.032 C 
HETATM   17  C   UNL     1      43.755 -10.158   8.534  1.00  0.00     0.002 C 
HETATM   18  C   UNL     1      45.276 -10.043   8.527  1.00  0.00     0.000 C 
HETATM   19  C   UNL     1      45.917 -11.096   7.631  1.00  0.00     0.002 C 
HETATM   20  C   UNL     1      45.336 -11.063   6.217  1.00  0.00     0.032 C 
ENDBRANCH  14  15
ENDBRANCH  11  14
ENDBRANCH   7   8
ENDBRANCH   3   7
BRANCH   1  21
HETATM   21  C   UNL     1      40.066 -14.146  -0.889  1.00  0.00     0.155 C 
HETATM   22  C   UNL     1      38.973 -14.395  -1.927  1.00  0.00     0.041 C 
BRANCH  21  23
HETATM   23  C   UNL     1      40.581 -12.733  -0.976  1.00  0.00     0.169 A 
HETATM   24  N   UNL     1      40.766 -11.949   0.104  1.00  0.00    -0.156 NA
HETATM   25  N   UNL     1      41.227 -10.821  -0.462  1.00  0.00    -0.270 N 
HETATM   26  H   UNL     1      41.462 -10.027   0.124  1.00  0.00     0.190 HD
HETATM   27  C   UNL     1      41.306 -10.942  -1.812  1.00  0.00     0.227 A 
HETATM   28  N   UNL     1      40.902 -12.137  -2.171  1.00  0.00    -0.223 NA
ENDBRANCH  21  23
ENDBRANCH   1  21
TORSDOF 6
ENDMDL
