MODEL 1
REMARK VINA RESULT:      -8.0      0.000      0.000
REMARK  11 active torsions:
REMARK  status: ('A' for Active; 'I' for Inactive)
REMARK    1  A    between atoms: O_2  and  C_3 
REMARK    2  A    between atoms: C_6  and  C_7 
REMARK    3  A    between atoms: C_7  and  N_8 
REMARK    4  A    between atoms: C_7  and  C_29 
REMARK       I    between atoms: N_8  and  C_9 
REMARK    5  A    between atoms: N_8  and  C_20 
REMARK    6  A    between atoms: C_9  and  C_10 
REMARK    7  A    between atoms: C_13  and  C_14 
REMARK       I    between atoms: C_14  and  N_15 
REMARK    8  A    between atoms: C_17  and  N_18 
REMARK    9  A    between atoms: C_20  and  C_21 
REMARK   10  A    between atoms: C_21  and  N_22 
REMARK       I    between atoms: C_29  and  N_30 
REMARK   11  A    between atoms: N_30  and  C_31 
ROOT
HETATM    1  N   UNL     1      40.768 -12.520   3.709  1.00  0.00    -0.328 N 
HETATM    2  C   UNL     1      39.679 -11.634   3.807  1.00  0.00     0.265 C 
HETATM    3  O   UNL     1      38.736 -11.709   3.022  1.00  0.00    -0.267 OA
ENDROOT
BRANCH   1   4
HETATM    4  C   UNL     1      40.757 -13.497   2.600  1.00  0.00     0.213 C 
BRANCH   4   5
HETATM    5  C   UNL     1      41.660 -14.714   2.716  1.00  0.00    -0.026 A 
HETATM    6  C   UNL     1      41.401 -15.770   3.599  1.00  0.00     0.012 A 
HETATM    7  C   UNL     1      42.177 -16.934   3.572  1.00  0.00     0.037 A 
HETATM    8  C   UNL     1      43.208 -17.083   2.644  1.00  0.00     0.068 A 
HETATM    9  C   UNL     1      43.491 -16.038   1.771  1.00  0.00     0.037 A 
HETATM   10  C   UNL     1      42.722 -14.869   1.803  1.00  0.00     0.012 A 
BRANCH   8  11
HETATM   11  O   UNL     1      43.859 -18.283   2.691  1.00  0.00    -0.356 OA
HETATM   12  C   UNL     1      44.321 -18.701   3.972  1.00  0.00     0.210 C 
ENDBRANCH   8  11
ENDBRANCH   4   5
BRANCH   4  13
HETATM   13  C   UNL     1      40.748 -12.719   1.265  1.00  0.00     0.245 C 
HETATM   14  N   UNL     1      39.904 -13.165   0.284  1.00  0.00    -0.354 N 
HETATM   15  H   UNL     1      39.580 -14.126   0.401  1.00  0.00     0.162 HD
HETATM   16  O   UNL     1      41.579 -11.816   1.113  1.00  0.00    -0.271 OA
BRANCH  14  17
HETATM   17  C   UNL     1      39.755 -12.617  -1.060  1.00  0.00     0.084 C 
HETATM   18  C   UNL     1      40.185 -13.580  -2.170  1.00  0.00     0.025 C 
HETATM   19  C   UNL     1      38.936 -13.896  -2.992  1.00  0.00     0.002 C 
HETATM   20  C   UNL     1      37.751 -13.321  -2.232  1.00  0.00     0.002 C 
HETATM   21  C   UNL     1      38.331 -12.186  -1.406  1.00  0.00     0.025 C 
ENDBRANCH  14  17
ENDBRANCH   4  13
ENDBRANCH   1   4
BRANCH   1  22
HETATM   22  C   UNL     1      41.930 -12.525   4.619  1.00  0.00     0.155 C 
BRANCH  22  23
HETATM   23  C   UNL     1      42.997 -11.438   4.348  1.00  0.00     0.255 C 
BRANCH  23  24
HETATM   24  N   UNL     1      43.722 -10.955   5.584  1.00  0.00    -0.066 N 
HETATM   25  H   UNL     1      43.863  -9.926   5.521  1.00  0.00     0.280 HD
HETATM   26  C   UNL     1      42.998 -11.244   6.891  1.00  0.00     0.261 C 
HETATM   27  C   UNL     1      43.825 -10.731   8.075  1.00  0.00     0.195 C 
HETATM   28  O   UNL     1      45.124 -11.333   8.084  1.00  0.00    -0.388 OA
HETATM   29  C   UNL     1      45.857 -10.999   6.900  1.00  0.00     0.195 C 
HETATM   30  C   UNL     1      45.143 -11.521   5.648  1.00  0.00     0.261 C 
ENDBRANCH  23  24
ENDBRANCH  22  23
ENDBRANCH   1  22
BRANCH   2  31
HETATM   31  C   UNL     1      39.700 -10.662   4.865  1.00  0.00     0.115 A 
HETATM   32  S   UNL     1      39.998  -9.024   4.503  1.00  0.00     0.019 SA
HETATM   33  N   UNL     1      39.981  -8.491   6.071  1.00  0.00    -0.203 NA
HETATM   34  C   UNL     1      39.650  -9.510   6.882  1.00  0.00     0.155 A 
HETATM   35  C   UNL     1      39.458 -10.782   6.215  1.00  0.00     0.065 A 
BRANCH  34  36
HETATM   36  C   UNL     1      39.507  -9.282   8.330  1.00  0.00     0.270 C 
HETATM   37  N   UNL     1      40.392  -9.959   9.121  1.00  0.00    -0.365 N 
HETATM   38  H   UNL     1      41.129 -10.513   8.699  1.00  0.00     0.159 HD
HETATM   39  H   UNL     1      40.391  -9.798  10.118  1.00  0.00     0.159 HD
HETATM   40  O   UNL     1      38.654  -8.539   8.808  1.00  0.00    -0.266 OA
ENDBRANCH  34  36
BRANCH  35  41
HETATM   41  N   UNL     1      39.106 -11.947   6.832  1.00  0.00    -0.299 NA
HETATM   42  H   UNL     1      39.080 -12.780   6.225  1.00  0.00     0.124 HD
HETATM   43  H   UNL     1      39.594 -12.192   7.697  1.00  0.00     0.124 HD
ENDBRANCH  35  41
ENDBRANCH   2  31
TORSDOF 11
ENDMDL
MODEL 2
REMARK VINA RESULT:      -7.8      1.633      2.095
REMARK  11 active torsions:
REMARK  status: ('A' for Active; 'I' for Inactive)
REMARK    1  A    between atoms: O_2  and  C_3 
REMARK    2  A    between atoms: C_6  and  C_7 
REMARK    3  A    between atoms: C_7  and  N_8 
REMARK    4  A    between atoms: C_7  and  C_29 
REMARK       I    between atoms: N_8  and  C_9 
REMARK    5  A    between atoms: N_8  and  C_20 
REMARK    6  A    between atoms: C_9  and  C_10 
REMARK    7  A    between atoms: C_13  and  C_14 
REMARK       I    between atoms: C_14  and  N_15 
REMARK    8  A    between atoms: C_17  and  N_18 
REMARK    9  A    between atoms: C_20  and  C_21 
REMARK   10  A    between atoms: C_21  and  N_22 
REMARK       I    between atoms: C_29  and  N_30 
REMARK   11  A    between atoms: N_30  and  C_31 
ROOT
HETATM    1  N   UNL     1      40.657 -12.473   3.158  1.00  0.00    -0.328 N 
HETATM    2  C   UNL     1      39.482 -11.761   3.464  1.00  0.00     0.265 C 
HETATM    3  O   UNL     1      38.415 -12.049   2.925  1.00  0.00    -0.267 OA
ENDROOT
BRANCH   1   4
HETATM    4  C   UNL     1      40.568 -13.532   2.133  1.00  0.00     0.213 C 
BRANCH   4   5
HETATM    5  C   UNL     1      41.443 -14.763   2.304  1.00  0.00    -0.026 A 
HETATM    6  C   UNL     1      41.028 -15.897   3.015  1.00  0.00     0.012 A 
HETATM    7  C   UNL     1      41.805 -17.059   3.028  1.00  0.00     0.037 A 
HETATM    8  C   UNL     1      42.997 -17.129   2.308  1.00  0.00     0.068 A 
HETATM    9  C   UNL     1      43.435 -16.007   1.611  1.00  0.00     0.037 A 
HETATM   10  C   UNL     1      42.663 -14.840   1.605  1.00  0.00     0.012 A 
BRANCH   8  11
HETATM   11  O   UNL     1      43.638 -18.333   2.366  1.00  0.00    -0.356 OA
HETATM   12  C   UNL     1      44.160 -18.712   3.636  1.00  0.00     0.210 C 
ENDBRANCH   8  11
ENDBRANCH   4   5
BRANCH   4  13
HETATM   13  C   UNL     1      40.517 -12.861   0.742  1.00  0.00     0.245 C 
HETATM   14  N   UNL     1      39.488 -13.215  -0.089  1.00  0.00    -0.354 N 
HETATM   15  H   UNL     1      39.025 -14.092   0.152  1.00  0.00     0.162 HD
HETATM   16  O   UNL     1      41.462 -12.135   0.412  1.00  0.00    -0.271 OA
BRANCH  14  17
HETATM   17  C   UNL     1      39.260 -12.746  -1.451  1.00  0.00     0.084 C 
HETATM   18  C   UNL     1      39.759 -13.712  -2.529  1.00  0.00     0.025 C 
HETATM   19  C   UNL     1      38.531 -14.183  -3.306  1.00  0.00     0.002 C 
HETATM   20  C   UNL     1      37.311 -13.691  -2.543  1.00  0.00     0.002 C 
HETATM   21  C   UNL     1      37.795 -12.469  -1.781  1.00  0.00     0.025 C 
ENDBRANCH  14  17
ENDBRANCH   4  13
ENDBRANCH   1   4
BRANCH   1  22
HETATM   22  C   UNL     1      41.975 -12.217   3.772  1.00  0.00     0.155 C 
BRANCH  22  23
HETATM   23  C   UNL     1      42.071 -12.494   5.291  1.00  0.00     0.255 C 
BRANCH  23  24
HETATM   24  N   UNL     1      42.278 -13.948   5.648  1.00  0.00    -0.066 N 
HETATM   25  H   UNL     1      42.329 -14.514   4.776  1.00  0.00     0.280 HD
HETATM   26  C   UNL     1      43.538 -14.225   6.454  1.00  0.00     0.261 C 
HETATM   27  C   UNL     1      43.639 -15.720   6.776  1.00  0.00     0.195 C 
HETATM   28  O   UNL     1      42.483 -16.163   7.495  1.00  0.00    -0.388 OA
HETATM   29  C   UNL     1      41.293 -15.993   6.717  1.00  0.00     0.195 C 
HETATM   30  C   UNL     1      41.061 -14.514   6.386  1.00  0.00     0.261 C 
ENDBRANCH  23  24
ENDBRANCH  22  23
ENDBRANCH   1  22
BRANCH   2  31
HETATM   31  C   UNL     1      39.569 -10.709   4.438  1.00  0.00     0.115 A 
HETATM   32  S   UNL     1      40.074  -9.153   3.961  1.00  0.00     0.019 SA
HETATM   33  N   UNL     1      40.050  -8.487   5.476  1.00  0.00    -0.203 NA
HETATM   34  C   UNL     1      39.566  -9.387   6.348  1.00  0.00     0.155 A 
HETATM   35  C   UNL     1      39.255 -10.682   5.778  1.00  0.00     0.065 A 
BRANCH  34  36
HETATM   36  C   UNL     1      39.386  -9.018   7.763  1.00  0.00     0.270 C 
HETATM   37  N   UNL     1      40.080  -9.780   8.661  1.00  0.00    -0.365 N 
HETATM   38  H   UNL     1      40.722 -10.492   8.333  1.00  0.00     0.159 HD
HETATM   39  H   UNL     1      40.054  -9.541   9.642  1.00  0.00     0.159 HD
HETATM   40  O   UNL     1      38.663  -8.095   8.127  1.00  0.00    -0.266 OA
ENDBRANCH  34  36
BRANCH  35  41
HETATM   41  N   UNL     1      38.741 -11.742   6.468  1.00  0.00    -0.299 NA
HETATM   42  H   UNL     1      39.095 -11.859   7.429  1.00  0.00     0.124 HD
HETATM   43  H   UNL     1      37.725 -11.851   6.482  1.00  0.00     0.124 HD
ENDBRANCH  35  41
ENDBRANCH   2  31
TORSDOF 11
ENDMDL
MODEL 3
REMARK VINA RESULT:      -7.7      1.763      4.808
REMARK  11 active torsions:
REMARK  status: ('A' for Active; 'I' for Inactive)
REMARK    1  A    between atoms: O_2  and  C_3 
REMARK    2  A    between atoms: C_6  and  C_7 
REMARK    3  A    between atoms: C_7  and  N_8 
REMARK    4  A    between atoms: C_7  and  C_29 
REMARK       I    between atoms: N_8  and  C_9 
REMARK    5  A    between atoms: N_8  and  C_20 
REMARK    6  A    between atoms: C_9  and  C_10 
REMARK    7  A    between atoms: C_13  and  C_14 
REMARK       I    between atoms: C_14  and  N_15 
REMARK    8  A    between atoms: C_17  and  N_18 
REMARK    9  A    between atoms: C_20  and  C_21 
REMARK   10  A    between atoms: C_21  and  N_22 
REMARK       I    between atoms: C_29  and  N_30 
REMARK   11  A    between atoms: N_30  and  C_31 
ROOT
HETATM    1  N   UNL     1      41.508 -12.419   3.192  1.00  0.00    -0.328 N 
HETATM    2  C   UNL     1      40.176 -12.470   3.644  1.00  0.00     0.265 C 
HETATM    3  O   UNL     1      39.371 -13.250   3.139  1.00  0.00    -0.267 OA
ENDROOT
BRANCH   1   4
HETATM    4  C   UNL     1      41.879 -13.291   2.060  1.00  0.00     0.213 C 
BRANCH   4   5
HETATM    5  C   UNL     1      41.005 -13.255   0.817  1.00  0.00    -0.026 A 
HETATM    6  C   UNL     1      40.887 -12.120   0.004  1.00  0.00     0.012 A 
HETATM    7  C   UNL     1      40.185 -12.174  -1.205  1.00  0.00     0.037 A 
HETATM    8  C   UNL     1      39.614 -13.367  -1.646  1.00  0.00     0.068 A 
HETATM    9  C   UNL     1      39.705 -14.500  -0.844  1.00  0.00     0.037 A 
HETATM   10  C   UNL     1      40.398 -14.446   0.371  1.00  0.00     0.012 A 
BRANCH   8  11
HETATM   11  O   UNL     1      38.997 -13.297  -2.862  1.00  0.00    -0.356 OA
HETATM   12  C   UNL     1      37.629 -13.689  -2.901  1.00  0.00     0.210 C 
ENDBRANCH   8  11
ENDBRANCH   4   5
BRANCH   4  13
HETATM   13  C   UNL     1      42.292 -14.670   2.621  1.00  0.00     0.245 C 
HETATM   14  N   UNL     1      41.752 -15.047   3.822  1.00  0.00    -0.354 N 
HETATM   15  H   UNL     1      41.369 -14.282   4.378  1.00  0.00     0.162 HD
HETATM   16  O   UNL     1      43.168 -15.304   2.021  1.00  0.00    -0.271 OA
BRANCH  14  17
HETATM   17  C   UNL     1      42.025 -16.276   4.558  1.00  0.00     0.084 C 
HETATM   18  C   UNL     1      43.460 -16.378   5.082  1.00  0.00     0.025 C 
HETATM   19  C   UNL     1      43.375 -16.391   6.608  1.00  0.00     0.002 C 
HETATM   20  C   UNL     1      41.936 -16.060   6.973  1.00  0.00     0.002 C 
HETATM   21  C   UNL     1      41.119 -16.495   5.768  1.00  0.00     0.025 C 
ENDBRANCH  14  17
ENDBRANCH   4  13
ENDBRANCH   1   4
BRANCH   1  22
HETATM   22  C   UNL     1      42.550 -11.536   3.752  1.00  0.00     0.155 C 
BRANCH  22  23
HETATM   23  C   UNL     1      43.441 -12.165   4.849  1.00  0.00     0.255 C 
BRANCH  23  24
HETATM   24  N   UNL     1      44.019 -11.170   5.829  1.00  0.00    -0.066 N 
HETATM   25  H   UNL     1      44.379 -10.343   5.310  1.00  0.00     0.280 HD
HETATM   26  C   UNL     1      43.030 -10.667   6.871  1.00  0.00     0.261 C 
HETATM   27  C   UNL     1      43.722  -9.682   7.821  1.00  0.00     0.195 C 
HETATM   28  O   UNL     1      44.846 -10.298   8.459  1.00  0.00    -0.388 OA
HETATM   29  C   UNL     1      45.830 -10.699   7.500  1.00  0.00     0.195 C 
HETATM   30  C   UNL     1      45.257 -11.737   6.528  1.00  0.00     0.261 C 
ENDBRANCH  23  24
ENDBRANCH  22  23
ENDBRANCH   1  22
BRANCH   2  31
HETATM   31  C   UNL     1      39.801 -11.600   4.725  1.00  0.00     0.115 A 
HETATM   32  S   UNL     1      39.283 -10.012   4.392  1.00  0.00     0.019 SA
HETATM   33  N   UNL     1      39.108  -9.549   5.972  1.00  0.00    -0.203 NA
HETATM   34  C   UNL     1      39.334 -10.605   6.771  1.00  0.00     0.155 A 
HETATM   35  C   UNL     1      39.718 -11.820   6.081  1.00  0.00     0.065 A 
BRANCH  34  36
HETATM   36  C   UNL     1      39.182 -10.470   8.230  1.00  0.00     0.270 C 
HETATM   37  N   UNL     1      40.057  -9.612   8.835  1.00  0.00    -0.365 N 
HETATM   38  H   UNL     1      40.702  -9.067   8.274  1.00  0.00     0.159 HD
HETATM   39  H   UNL     1      39.966  -9.423   9.823  1.00  0.00     0.159 HD
HETATM   40  O   UNL     1      38.334 -11.083   8.873  1.00  0.00    -0.266 OA
ENDBRANCH  34  36
BRANCH  35  41
HETATM   41  N   UNL     1      39.983 -13.015   6.684  1.00  0.00    -0.299 NA
HETATM   42  H   UNL     1      39.157 -13.576   6.939  1.00  0.00     0.124 HD
HETATM   43  H   UNL     1      40.666 -13.631   6.237  1.00  0.00     0.124 HD
ENDBRANCH  35  41
ENDBRANCH   2  31
TORSDOF 11
ENDMDL
MODEL 4
REMARK VINA RESULT:      -7.3      1.524      1.926
REMARK  11 active torsions:
REMARK  status: ('A' for Active; 'I' for Inactive)
REMARK    1  A    between atoms: O_2  and  C_3 
REMARK    2  A    between atoms: C_6  and  C_7 
REMARK    3  A    between atoms: C_7  and  N_8 
REMARK    4  A    between atoms: C_7  and  C_29 
REMARK       I    between atoms: N_8  and  C_9 
REMARK    5  A    between atoms: N_8  and  C_20 
REMARK    6  A    between atoms: C_9  and  C_10 
REMARK    7  A    between atoms: C_13  and  C_14 
REMARK       I    between atoms: C_14  and  N_15 
REMARK    8  A    between atoms: C_17  and  N_18 
REMARK    9  A    between atoms: C_20  and  C_21 
REMARK   10  A    between atoms: C_21  and  N_22 
REMARK       I    between atoms: C_29  and  N_30 
REMARK   11  A    between atoms: N_30  and  C_31 
ROOT
HETATM    1  N   UNL     1      41.360 -11.893   3.691  1.00  0.00    -0.328 N 
HETATM    2  C   UNL     1      40.264 -11.125   4.128  1.00  0.00     0.265 C 
HETATM    3  O   UNL     1      39.127 -11.373   3.733  1.00  0.00    -0.267 OA
ENDROOT
BRANCH   1   4
HETATM    4  C   UNL     1      41.098 -12.960   2.705  1.00  0.00     0.213 C 
BRANCH   4   5
HETATM    5  C   UNL     1      41.878 -14.258   2.836  1.00  0.00    -0.026 A 
HETATM    6  C   UNL     1      41.591 -15.221   3.812  1.00  0.00     0.012 A 
HETATM    7  C   UNL     1      42.240 -16.460   3.808  1.00  0.00     0.037 A 
HETATM    8  C   UNL     1      43.165 -16.779   2.814  1.00  0.00     0.068 A 
HETATM    9  C   UNL     1      43.477 -15.828   1.848  1.00  0.00     0.037 A 
HETATM   10  C   UNL     1      42.836 -14.584   1.856  1.00  0.00     0.012 A 
BRANCH   8  11
HETATM   11  O   UNL     1      43.693 -18.036   2.897  1.00  0.00    -0.356 OA
HETATM   12  C   UNL     1      43.058 -19.041   2.112  1.00  0.00     0.210 C 
ENDBRANCH   8  11
ENDBRANCH   4   5
BRANCH   4  13
HETATM   13  C   UNL     1      40.985 -12.315   1.305  1.00  0.00     0.245 C 
HETATM   14  N   UNL     1      40.138 -12.906   0.407  1.00  0.00    -0.354 N 
HETATM   15  H   UNL     1      39.886 -13.871   0.626  1.00  0.00     0.162 HD
HETATM   16  O   UNL     1      41.745 -11.378   1.035  1.00  0.00    -0.271 OA
BRANCH  14  17
HETATM   17  C   UNL     1      39.901 -12.500  -0.974  1.00  0.00     0.084 C 
HETATM   18  C   UNL     1      40.519 -13.443  -2.010  1.00  0.00     0.025 C 
HETATM   19  C   UNL     1      39.362 -14.052  -2.801  1.00  0.00     0.002 C 
HETATM   20  C   UNL     1      38.081 -13.659  -2.081  1.00  0.00     0.002 C 
HETATM   21  C   UNL     1      38.425 -12.375  -1.346  1.00  0.00     0.025 C 
ENDBRANCH  14  17
ENDBRANCH   4  13
ENDBRANCH   1   4
BRANCH   1  22
HETATM   22  C   UNL     1      42.754 -11.688   4.129  1.00  0.00     0.155 C 
BRANCH  22  23
HETATM   23  C   UNL     1      43.130 -12.324   5.488  1.00  0.00     0.255 C 
BRANCH  23  24
HETATM   24  N   UNL     1      43.911 -11.414   6.409  1.00  0.00    -0.066 N 
HETATM   25  H   UNL     1      43.803 -10.429   6.092  1.00  0.00     0.280 HD
HETATM   26  C   UNL     1      43.485 -11.481   7.868  1.00  0.00     0.261 C 
HETATM   27  C   UNL     1      44.349 -10.538   8.712  1.00  0.00     0.195 C 
HETATM   28  O   UNL     1      45.736 -10.870   8.583  1.00  0.00    -0.388 OA
HETATM   29  C   UNL     1      46.179 -10.726   7.229  1.00  0.00     0.195 C 
HETATM   30  C   UNL     1      45.415 -11.675   6.299  1.00  0.00     0.261 C 
ENDBRANCH  23  24
ENDBRANCH  22  23
ENDBRANCH   1  22
BRANCH   2  31
HETATM   31  C   UNL     1      40.518 -10.065   5.064  1.00  0.00     0.115 A 
HETATM   32  S   UNL     1      40.134 -10.280   6.710  1.00  0.00     0.019 SA
HETATM   33  N   UNL     1      40.557  -8.753   7.190  1.00  0.00    -0.203 NA
HETATM   34  C   UNL     1      41.089  -8.092   6.149  1.00  0.00     0.155 A 
HETATM   35  C   UNL     1      41.104  -8.830   4.902  1.00  0.00     0.065 A 
BRANCH  34  36
HETATM   36  C   UNL     1      41.604  -6.724   6.330  1.00  0.00     0.270 C 
HETATM   37  N   UNL     1      40.973  -5.757   5.598  1.00  0.00    -0.365 N 
HETATM   38  H   UNL     1      40.162  -5.994   5.038  1.00  0.00     0.159 HD
HETATM   39  H   UNL     1      41.233  -4.790   5.724  1.00  0.00     0.159 HD
HETATM   40  O   UNL     1      42.538  -6.455   7.081  1.00  0.00    -0.266 OA
ENDBRANCH  34  36
BRANCH  35  41
HETATM   41  N   UNL     1      41.606  -8.367   3.721  1.00  0.00    -0.299 NA
HETATM   42  H   UNL     1      41.571  -7.345   3.593  1.00  0.00     0.124 HD
HETATM   43  H   UNL     1      42.532  -8.696   3.437  1.00  0.00     0.124 HD
ENDBRANCH  35  41
ENDBRANCH   2  31
TORSDOF 11
ENDMDL
MODEL 5
REMARK VINA RESULT:      -7.3      2.243      5.073
REMARK  11 active torsions:
REMARK  status: ('A' for Active; 'I' for Inactive)
REMARK    1  A    between atoms: O_2  and  C_3 
REMARK    2  A    between atoms: C_6  and  C_7 
REMARK    3  A    between atoms: C_7  and  N_8 
REMARK    4  A    between atoms: C_7  and  C_29 
REMARK       I    between atoms: N_8  and  C_9 
REMARK    5  A    between atoms: N_8  and  C_20 
REMARK    6  A    between atoms: C_9  and  C_10 
REMARK    7  A    between atoms: C_13  and  C_14 
REMARK       I    between atoms: C_14  and  N_15 
REMARK    8  A    between atoms: C_17  and  N_18 
REMARK    9  A    between atoms: C_20  and  C_21 
REMARK   10  A    between atoms: C_21  and  N_22 
REMARK       I    between atoms: C_29  and  N_30 
REMARK   11  A    between atoms: N_30  and  C_31 
ROOT
HETATM    1  N   UNL     1      41.480 -12.938   2.940  1.00  0.00    -0.328 N 
HETATM    2  C   UNL     1      40.207 -12.401   3.207  1.00  0.00     0.265 C 
HETATM    3  O   UNL     1      39.202 -12.872   2.679  1.00  0.00    -0.267 OA
ENDROOT
BRANCH   1   4
HETATM    4  C   UNL     1      41.563 -14.045   1.965  1.00  0.00     0.213 C 
BRANCH   4   5
HETATM    5  C   UNL     1      40.856 -13.872   0.631  1.00  0.00    -0.026 A 
HETATM    6  C   UNL     1      41.054 -12.758  -0.195  1.00  0.00     0.012 A 
HETATM    7  C   UNL     1      40.493 -12.707  -1.476  1.00  0.00     0.037 A 
HETATM    8  C   UNL     1      39.750 -13.776  -1.974  1.00  0.00     0.068 A 
HETATM    9  C   UNL     1      39.527 -14.884  -1.161  1.00  0.00     0.037 A 
HETATM   10  C   UNL     1      40.079 -14.933   0.124  1.00  0.00     0.012 A 
BRANCH   8  11
HETATM   11  O   UNL     1      39.298 -13.620  -3.252  1.00  0.00    -0.356 OA
HETATM   12  C   UNL     1      38.058 -14.247  -3.565  1.00  0.00     0.210 C 
ENDBRANCH   8  11
ENDBRANCH   4   5
BRANCH   4  13
HETATM   13  C   UNL     1      41.376 -15.378   2.723  1.00  0.00     0.245 C 
HETATM   14  N   UNL     1      42.383 -16.301   2.627  1.00  0.00    -0.354 N 
HETATM   15  H   UNL     1      43.020 -16.162   1.842  1.00  0.00     0.162 HD
HETATM   16  O   UNL     1      40.289 -15.586   3.273  1.00  0.00    -0.271 OA
BRANCH  14  17
HETATM   17  C   UNL     1      42.409 -17.634   3.220  1.00  0.00     0.084 C 
HETATM   18  C   UNL     1      42.717 -18.750   2.218  1.00  0.00     0.025 C 
HETATM   19  C   UNL     1      44.045 -19.374   2.642  1.00  0.00     0.002 C 
HETATM   20  C   UNL     1      44.624 -18.481   3.729  1.00  0.00     0.002 C 
HETATM   21  C   UNL     1      43.420 -17.796   4.353  1.00  0.00     0.025 C 
ENDBRANCH  14  17
ENDBRANCH   4  13
ENDBRANCH   1   4
BRANCH   1  22
HETATM   22  C   UNL     1      42.737 -12.457   3.546  1.00  0.00     0.155 C 
BRANCH  22  23
HETATM   23  C   UNL     1      42.828 -12.579   5.085  1.00  0.00     0.255 C 
BRANCH  23  24
HETATM   24  N   UNL     1      42.809 -14.001   5.600  1.00  0.00    -0.066 N 
HETATM   25  H   UNL     1      42.882 -14.659   4.797  1.00  0.00     0.280 HD
HETATM   26  C   UNL     1      43.929 -14.331   6.575  1.00  0.00     0.261 C 
HETATM   27  C   UNL     1      43.805 -15.785   7.047  1.00  0.00     0.195 C 
HETATM   28  O   UNL     1      42.530 -16.011   7.659  1.00  0.00    -0.388 OA
HETATM   29  C   UNL     1      41.463 -15.791   6.730  1.00  0.00     0.195 C 
HETATM   30  C   UNL     1      41.458 -14.340   6.235  1.00  0.00     0.261 C 
ENDBRANCH  23  24
ENDBRANCH  22  23
ENDBRANCH   1  22
BRANCH   2  31
HETATM   31  C   UNL     1      40.123 -11.304   4.132  1.00  0.00     0.115 A 
HETATM   32  S   UNL     1      40.736  -9.776   3.690  1.00  0.00     0.019 SA
HETATM   33  N   UNL     1      40.433  -9.039   5.141  1.00  0.00    -0.203 NA
HETATM   34  C   UNL     1      39.774  -9.892   5.943  1.00  0.00     0.155 A 
HETATM   35  C   UNL     1      39.557 -11.210   5.383  1.00  0.00     0.065 A 
BRANCH  34  36
HETATM   36  C   UNL     1      39.332  -9.455   7.278  1.00  0.00     0.270 C 
HETATM   37  N   UNL     1      39.546 -10.349   8.290  1.00  0.00    -0.365 N 
HETATM   38  H   UNL     1      40.045 -11.212   8.107  1.00  0.00     0.159 HD
HETATM   39  H   UNL     1      39.326 -10.087   9.240  1.00  0.00     0.159 HD
HETATM   40  O   UNL     1      38.803  -8.366   7.484  1.00  0.00    -0.266 OA
ENDBRANCH  34  36
BRANCH  35  41
HETATM   41  N   UNL     1      38.902 -12.232   6.008  1.00  0.00    -0.299 NA
HETATM   42  H   UNL     1      38.767 -12.117   7.024  1.00  0.00     0.124 HD
HETATM   43  H   UNL     1      38.021 -12.551   5.599  1.00  0.00     0.124 HD
ENDBRANCH  35  41
ENDBRANCH   2  31
TORSDOF 11
ENDMDL
MODEL 6
REMARK VINA RESULT:      -7.3      2.835      7.439
REMARK  11 active torsions:
REMARK  status: ('A' for Active; 'I' for Inactive)
REMARK    1  A    between atoms: O_2  and  C_3 
REMARK    2  A    between atoms: C_6  and  C_7 
REMARK    3  A    between atoms: C_7  and  N_8 
REMARK    4  A    between atoms: C_7  and  C_29 
REMARK       I    between atoms: N_8  and  C_9 
REMARK    5  A    between atoms: N_8  and  C_20 
REMARK    6  A    between atoms: C_9  and  C_10 
REMARK    7  A    between atoms: C_13  and  C_14 
REMARK       I    between atoms: C_14  and  N_15 
REMARK    8  A    between atoms: C_17  and  N_18 
REMARK    9  A    between atoms: C_20  and  C_21 
REMARK   10  A    between atoms: C_21  and  N_22 
REMARK       I    between atoms: C_29  and  N_30 
REMARK   11  A    between atoms: N_30  and  C_31 
ROOT
HETATM    1  N   UNL     1      40.800 -12.448   3.034  1.00  0.00    -0.328 N 
HETATM    2  C   UNL     1      39.736 -13.083   2.365  1.00  0.00     0.265 C 
HETATM    3  O   UNL     1      38.947 -13.799   2.978  1.00  0.00    -0.267 OA
ENDROOT
BRANCH   1   4
HETATM    4  C   UNL     1      40.960 -12.721   4.477  1.00  0.00     0.213 C 
BRANCH   4   5
HETATM    5  C   UNL     1      41.972 -11.892   5.250  1.00  0.00    -0.026 A 
HETATM    6  C   UNL     1      41.614 -10.774   6.014  1.00  0.00     0.012 A 
HETATM    7  C   UNL     1      42.555 -10.126   6.821  1.00  0.00     0.037 A 
HETATM    8  C   UNL     1      43.865 -10.596   6.909  1.00  0.00     0.068 A 
HETATM    9  C   UNL     1      44.244 -11.694   6.143  1.00  0.00     0.037 A 
HETATM   10  C   UNL     1      43.307 -12.338   5.327  1.00  0.00     0.012 A 
BRANCH   8  11
HETATM   11  O   UNL     1      44.671  -9.903   7.766  1.00  0.00    -0.356 OA
HETATM   12  C   UNL     1      44.112  -8.734   8.355  1.00  0.00     0.210 C 
ENDBRANCH   8  11
ENDBRANCH   4   5
BRANCH   4  13
HETATM   13  C   UNL     1      40.957 -14.252   4.688  1.00  0.00     0.245 C 
HETATM   14  N   UNL     1      41.552 -15.019   3.723  1.00  0.00    -0.354 N 
HETATM   15  H   UNL     1      41.677 -14.556   2.823  1.00  0.00     0.162 HD
HETATM   16  O   UNL     1      40.323 -14.705   5.648  1.00  0.00    -0.271 OA
BRANCH  14  17
HETATM   17  C   UNL     1      41.634 -16.476   3.689  1.00  0.00     0.084 C 
HETATM   18  C   UNL     1      42.060 -17.039   2.331  1.00  0.00     0.025 C 
HETATM   19  C   UNL     1      43.404 -17.735   2.540  1.00  0.00     0.002 C 
HETATM   20  C   UNL     1      43.872 -17.376   3.942  1.00  0.00     0.002 C 
HETATM   21  C   UNL     1      42.599 -17.072   4.712  1.00  0.00     0.025 C 
ENDBRANCH  14  17
ENDBRANCH   4  13
ENDBRANCH   1   4
BRANCH   1  22
HETATM   22  C   UNL     1      41.779 -11.552   2.390  1.00  0.00     0.155 C 
BRANCH  22  23
HETATM   23  C   UNL     1      41.456 -10.041   2.467  1.00  0.00     0.255 C 
BRANCH  23  24
HETATM   24  N   UNL     1      41.634  -9.298   1.162  1.00  0.00    -0.066 N 
HETATM   25  H   UNL     1      42.463  -8.673   1.231  1.00  0.00     0.280 HD
HETATM   26  C   UNL     1      41.832 -10.197  -0.050  1.00  0.00     0.261 C 
HETATM   27  C   UNL     1      41.983  -9.346  -1.317  1.00  0.00     0.195 C 
HETATM   28  O   UNL     1      40.839  -8.506  -1.502  1.00  0.00    -0.388 OA
HETATM   29  C   UNL     1      40.686  -7.590  -0.412  1.00  0.00     0.195 C 
HETATM   30  C   UNL     1      40.468  -8.340   0.907  1.00  0.00     0.261 C 
ENDBRANCH  23  24
ENDBRANCH  22  23
ENDBRANCH   1  22
BRANCH   2  31
HETATM   31  C   UNL     1      39.595 -12.845   0.955  1.00  0.00     0.115 A 
HETATM   32  S   UNL     1      38.524 -11.639   0.404  1.00  0.00     0.019 SA
HETATM   33  N   UNL     1      38.749 -11.929  -1.211  1.00  0.00    -0.203 NA
HETATM   34  C   UNL     1      39.705 -12.861  -1.365  1.00  0.00     0.155 A 
HETATM   35  C   UNL     1      40.235 -13.401  -0.130  1.00  0.00     0.065 A 
BRANCH  34  36
HETATM   36  C   UNL     1      40.136 -13.256  -2.717  1.00  0.00     0.270 C 
HETATM   37  N   UNL     1      41.443 -12.989  -3.018  1.00  0.00    -0.365 N 
HETATM   38  H   UNL     1      42.060 -12.613  -2.307  1.00  0.00     0.159 HD
HETATM   39  H   UNL     1      41.821 -13.293  -3.903  1.00  0.00     0.159 HD
HETATM   40  O   UNL     1      39.385 -13.787  -3.530  1.00  0.00    -0.266 OA
ENDBRANCH  34  36
BRANCH  35  41
HETATM   41  N   UNL     1      41.217 -14.344  -0.041  1.00  0.00    -0.299 NA
HETATM   42  H   UNL     1      41.040 -15.108   0.627  1.00  0.00     0.124 HD
HETATM   43  H   UNL     1      41.564 -14.751  -0.913  1.00  0.00     0.124 HD
ENDBRANCH  35  41
ENDBRANCH   2  31
TORSDOF 11
ENDMDL
MODEL 7
REMARK VINA RESULT:      -7.2     17.441     19.578
REMARK  11 active torsions:
REMARK  status: ('A' for Active; 'I' for Inactive)
REMARK    1  A    between atoms: O_2  and  C_3 
REMARK    2  A    between atoms: C_6  and  C_7 
REMARK    3  A    between atoms: C_7  and  N_8 
REMARK    4  A    between atoms: C_7  and  C_29 
REMARK       I    between atoms: N_8  and  C_9 
REMARK    5  A    between atoms: N_8  and  C_20 
REMARK    6  A    between atoms: C_9  and  C_10 
REMARK    7  A    between atoms: C_13  and  C_14 
REMARK       I    between atoms: C_14  and  N_15 
REMARK    8  A    between atoms: C_17  and  N_18 
REMARK    9  A    between atoms: C_20  and  C_21 
REMARK   10  A    between atoms: C_21  and  N_22 
REMARK       I    between atoms: C_29  and  N_30 
REMARK   11  A    between atoms: N_30  and  C_31 
ROOT
HETATM    1  N   UNL     1      43.719 -30.063   1.348  1.00  0.00    -0.328 N 
HETATM    2  C   UNL     1      42.372 -29.725   1.574  1.00  0.00     0.265 C 
HETATM    3  O   UNL     1      41.897 -28.691   1.110  1.00  0.00    -0.267 OA
ENDROOT
BRANCH   1   4
HETATM    4  C   UNL     1      44.545 -29.105   0.585  1.00  0.00     0.213 C 
BRANCH   4   5
HETATM    5  C   UNL     1      44.491 -29.170  -0.932  1.00  0.00    -0.026 A 
HETATM    6  C   UNL     1      44.951 -28.133  -1.754  1.00  0.00     0.012 A 
HETATM    7  C   UNL     1      45.014 -28.293  -3.142  1.00  0.00     0.037 A 
HETATM    8  C   UNL     1      44.649 -29.499  -3.740  1.00  0.00     0.068 A 
HETATM    9  C   UNL     1      44.171 -30.534  -2.942  1.00  0.00     0.037 A 
HETATM   10  C   UNL     1      44.099 -30.373  -1.553  1.00  0.00     0.012 A 
BRANCH   8  11
HETATM   11  O   UNL     1      44.799 -29.541  -5.096  1.00  0.00    -0.356 OA
HETATM   12  C   UNL     1      44.116 -30.589  -5.776  1.00  0.00     0.210 C 
ENDBRANCH   8  11
ENDBRANCH   4   5
BRANCH   4  13
HETATM   13  C   UNL     1      45.931 -29.007   1.262  1.00  0.00     0.245 C 
HETATM   14  N   UNL     1      46.936 -29.783   0.751  1.00  0.00    -0.354 N 
HETATM   15  H   UNL     1      46.623 -30.565   0.174  1.00  0.00     0.162 HD
HETATM   16  O   UNL     1      46.028 -28.329   2.291  1.00  0.00    -0.271 OA
BRANCH  14  17
HETATM   17  C   UNL     1      48.304 -29.885   1.248  1.00  0.00     0.084 C 
HETATM   18  C   UNL     1      48.542 -31.092   2.159  1.00  0.00     0.025 C 
HETATM   19  C   UNL     1      49.550 -31.994   1.448  1.00  0.00     0.002 C 
HETATM   20  C   UNL     1      49.714 -31.445   0.039  1.00  0.00     0.002 C 
HETATM   21  C   UNL     1      49.363 -29.972   0.151  1.00  0.00     0.025 C 
ENDBRANCH  14  17
ENDBRANCH   4  13
ENDBRANCH   1   4
BRANCH   1  22
HETATM   22  C   UNL     1      44.369 -31.292   1.842  1.00  0.00     0.155 C 
BRANCH  22  23
HETATM   23  C   UNL     1      44.854 -31.251   3.310  1.00  0.00     0.255 C 
BRANCH  23  24
HETATM   24  N   UNL     1      44.133 -32.208   4.232  1.00  0.00    -0.066 N 
HETATM   25  H   UNL     1      43.268 -31.755   4.592  1.00  0.00     0.280 HD
HETATM   26  C   UNL     1      43.731 -33.524   3.582  1.00  0.00     0.261 C 
HETATM   27  C   UNL     1      43.027 -34.423   4.604  1.00  0.00     0.195 C 
HETATM   28  O   UNL     1      43.874 -34.665   5.733  1.00  0.00    -0.388 OA
HETATM   29  C   UNL     1      44.193 -33.446   6.413  1.00  0.00     0.195 C 
HETATM   30  C   UNL     1      44.957 -32.488   5.492  1.00  0.00     0.261 C 
ENDBRANCH  23  24
ENDBRANCH  22  23
ENDBRANCH   1  22
BRANCH   2  31
HETATM   31  C   UNL     1      41.572 -30.639   2.342  1.00  0.00     0.115 A 
HETATM   32  S   UNL     1      40.843 -31.975   1.576  1.00  0.00     0.019 SA
HETATM   33  N   UNL     1      40.040 -32.529   2.915  1.00  0.00    -0.203 NA
HETATM   34  C   UNL     1      40.386 -31.785   3.979  1.00  0.00     0.155 A 
HETATM   35  C   UNL     1      41.291 -30.691   3.689  1.00  0.00     0.065 A 
BRANCH  34  36
HETATM   36  C   UNL     1      39.852 -32.113   5.311  1.00  0.00     0.270 C 
HETATM   37  N   UNL     1      40.769 -32.130   6.324  1.00  0.00    -0.365 N 
HETATM   38  H   UNL     1      41.729 -31.857   6.144  1.00  0.00     0.159 HD
HETATM   39  H   UNL     1      40.460 -32.284   7.273  1.00  0.00     0.159 HD
HETATM   40  O   UNL     1      38.666 -32.360   5.514  1.00  0.00    -0.266 OA
ENDBRANCH  34  36
BRANCH  35  41
HETATM   41  N   UNL     1      41.786 -29.815   4.611  1.00  0.00    -0.299 NA
HETATM   42  H   UNL     1      41.924 -28.850   4.277  1.00  0.00     0.124 HD
HETATM   43  H   UNL     1      41.327 -29.779   5.525  1.00  0.00     0.124 HD
ENDBRANCH  35  41
ENDBRANCH   2  31
TORSDOF 11
ENDMDL
MODEL 8
REMARK VINA RESULT:      -7.2      2.335      2.907
REMARK  11 active torsions:
REMARK  status: ('A' for Active; 'I' for Inactive)
REMARK    1  A    between atoms: O_2  and  C_3 
REMARK    2  A    between atoms: C_6  and  C_7 
REMARK    3  A    between atoms: C_7  and  N_8 
REMARK    4  A    between atoms: C_7  and  C_29 
REMARK       I    between atoms: N_8  and  C_9 
REMARK    5  A    between atoms: N_8  and  C_20 
REMARK    6  A    between atoms: C_9  and  C_10 
REMARK    7  A    between atoms: C_13  and  C_14 
REMARK       I    between atoms: C_14  and  N_15 
REMARK    8  A    between atoms: C_17  and  N_18 
REMARK    9  A    between atoms: C_20  and  C_21 
REMARK   10  A    between atoms: C_21  and  N_22 
REMARK       I    between atoms: C_29  and  N_30 
REMARK   11  A    between atoms: N_30  and  C_31 
ROOT
HETATM    1  N   UNL     1      41.790 -12.170   4.923  1.00  0.00    -0.328 N 
HETATM    2  C   UNL     1      40.622 -11.397   5.068  1.00  0.00     0.265 C 
HETATM    3  O   UNL     1      39.525 -11.852   4.752  1.00  0.00    -0.267 OA
ENDROOT
BRANCH   1   4
HETATM    4  C   UNL     1      41.649 -13.515   4.330  1.00  0.00     0.213 C 
BRANCH   4   5
HETATM    5  C   UNL     1      42.203 -14.698   5.108  1.00  0.00    -0.026 A 
HETATM    6  C   UNL     1      41.744 -15.048   6.385  1.00  0.00     0.012 A 
HETATM    7  C   UNL     1      42.179 -16.224   7.005  1.00  0.00     0.037 A 
HETATM    8  C   UNL     1      43.055 -17.092   6.355  1.00  0.00     0.068 A 
HETATM    9  C   UNL     1      43.536 -16.752   5.095  1.00  0.00     0.037 A 
HETATM   10  C   UNL     1      43.110 -15.571   4.476  1.00  0.00     0.012 A 
BRANCH   8  11
HETATM   11  O   UNL     1      43.366 -18.226   7.049  1.00  0.00    -0.356 OA
HETATM   12  C   UNL     1      43.490 -19.421   6.285  1.00  0.00     0.210 C 
ENDBRANCH   8  11
ENDBRANCH   4   5
BRANCH   4  13
HETATM   13  C   UNL     1      41.972 -13.420   2.822  1.00  0.00     0.245 C 
HETATM   14  N   UNL     1      40.983 -13.773   1.944  1.00  0.00    -0.354 N 
HETATM   15  H   UNL     1      40.237 -14.342   2.345  1.00  0.00     0.162 HD
HETATM   16  O   UNL     1      43.132 -13.143   2.493  1.00  0.00    -0.271 OA
BRANCH  14  17
HETATM   17  C   UNL     1      41.072 -13.799   0.488  1.00  0.00     0.084 C 
HETATM   18  C   UNL     1      40.030 -14.701  -0.178  1.00  0.00     0.025 C 
HETATM   19  C   UNL     1      39.130 -13.795  -1.017  1.00  0.00     0.002 C 
HETATM   20  C   UNL     1      39.488 -12.362  -0.657  1.00  0.00     0.002 C 
HETATM   21  C   UNL     1      40.927 -12.430  -0.173  1.00  0.00     0.025 C 
ENDBRANCH  14  17
ENDBRANCH   4  13
ENDBRANCH   1   4
BRANCH   1  22
HETATM   22  C   UNL     1      43.144 -11.721   5.299  1.00  0.00     0.155 C 
BRANCH  22  23
HETATM   23  C   UNL     1      43.501 -11.848   6.799  1.00  0.00     0.255 C 
BRANCH  23  24
HETATM   24  N   UNL     1      44.151 -10.619   7.392  1.00  0.00    -0.066 N 
HETATM   25  H   UNL     1      43.919  -9.790   6.807  1.00  0.00     0.280 HD
HETATM   26  C   UNL     1      43.729 -10.312   8.821  1.00  0.00     0.261 C 
HETATM   27  C   UNL     1      44.458  -9.063   9.329  1.00  0.00     0.195 C 
HETATM   28  O   UNL     1      45.877  -9.241   9.257  1.00  0.00    -0.388 OA
HETATM   29  C   UNL     1      46.307  -9.443   7.907  1.00  0.00     0.195 C 
HETATM   30  C   UNL     1      45.677 -10.710   7.315  1.00  0.00     0.261 C 
ENDBRANCH  23  24
ENDBRANCH  22  23
ENDBRANCH   1  22
BRANCH   2  31
HETATM   31  C   UNL     1      40.757 -10.076   5.616  1.00  0.00     0.115 A 
HETATM   32  S   UNL     1      40.391  -9.799   7.258  1.00  0.00     0.019 SA
HETATM   33  N   UNL     1      40.645  -8.164   7.222  1.00  0.00    -0.203 NA
HETATM   34  C   UNL     1      41.108  -7.813   6.010  1.00  0.00     0.155 A 
HETATM   35  C   UNL     1      41.207  -8.901   5.058  1.00  0.00     0.065 A 
BRANCH  34  36
HETATM   36  C   UNL     1      41.471  -6.412   5.738  1.00  0.00     0.270 C 
HETATM   37  N   UNL     1      40.857  -5.845   4.657  1.00  0.00    -0.365 N 
HETATM   38  H   UNL     1      40.149  -6.362   4.147  1.00  0.00     0.159 HD
HETATM   39  H   UNL     1      41.011  -4.869   4.452  1.00  0.00     0.159 HD
HETATM   40  O   UNL     1      42.273  -5.784   6.424  1.00  0.00    -0.266 OA
ENDBRANCH  34  36
BRANCH  35  41
HETATM   41  N   UNL     1      41.662  -8.784   3.776  1.00  0.00    -0.299 NA
HETATM   42  H   UNL     1      42.291  -7.987   3.599  1.00  0.00     0.124 HD
HETATM   43  H   UNL     1      42.062  -9.617   3.337  1.00  0.00     0.124 HD
ENDBRANCH  35  41
ENDBRANCH   2  31
TORSDOF 11
ENDMDL
MODEL 9
REMARK VINA RESULT:      -7.1      2.469      3.109
REMARK  11 active torsions:
REMARK  status: ('A' for Active; 'I' for Inactive)
REMARK    1  A    between atoms: O_2  and  C_3 
REMARK    2  A    between atoms: C_6  and  C_7 
REMARK    3  A    between atoms: C_7  and  N_8 
REMARK    4  A    between atoms: C_7  and  C_29 
REMARK       I    between atoms: N_8  and  C_9 
REMARK    5  A    between atoms: N_8  and  C_20 
REMARK    6  A    between atoms: C_9  and  C_10 
REMARK    7  A    between atoms: C_13  and  C_14 
REMARK       I    between atoms: C_14  and  N_15 
REMARK    8  A    between atoms: C_17  and  N_18 
REMARK    9  A    between atoms: C_20  and  C_21 
REMARK   10  A    between atoms: C_21  and  N_22 
REMARK       I    between atoms: C_29  and  N_30 
REMARK   11  A    between atoms: N_30  and  C_31 
ROOT
HETATM    1  N   UNL     1      40.724 -12.515   2.788  1.00  0.00    -0.328 N 
HETATM    2  C   UNL     1      39.640 -11.621   2.870  1.00  0.00     0.265 C 
HETATM    3  O   UNL     1      38.583 -11.860   2.289  1.00  0.00    -0.267 OA
ENDROOT
BRANCH   1   4
HETATM    4  C   UNL     1      40.560 -13.712   1.937  1.00  0.00     0.213 C 
BRANCH   4   5
HETATM    5  C   UNL     1      41.472 -14.899   2.197  1.00  0.00    -0.026 A 
HETATM    6  C   UNL     1      41.093 -15.988   2.994  1.00  0.00     0.012 A 
HETATM    7  C   UNL     1      41.906 -17.122   3.091  1.00  0.00     0.037 A 
HETATM    8  C   UNL     1      43.098 -17.210   2.373  1.00  0.00     0.068 A 
HETATM    9  C   UNL     1      43.500 -16.132   1.591  1.00  0.00     0.037 A 
HETATM   10  C   UNL     1      42.693 -14.992   1.500  1.00  0.00     0.012 A 
BRANCH   8  11
HETATM   11  O   UNL     1      43.775 -18.387   2.520  1.00  0.00    -0.356 OA
HETATM   12  C   UNL     1      43.106 -19.561   2.072  1.00  0.00     0.210 C 
ENDBRANCH   8  11
ENDBRANCH   4   5
BRANCH   4  13
HETATM   13  C   UNL     1      40.364 -13.249   0.476  1.00  0.00     0.245 C 
HETATM   14  N   UNL     1      39.359 -13.840  -0.241  1.00  0.00    -0.354 N 
HETATM   15  H   UNL     1      39.026 -14.727   0.139  1.00  0.00     0.162 HD
HETATM   16  O   UNL     1      41.190 -12.460   0.001  1.00  0.00    -0.271 OA
BRANCH  14  17
HETATM   17  C   UNL     1      39.016 -13.594  -1.637  1.00  0.00     0.084 C 
HETATM   18  C   UNL     1      38.727 -12.124  -1.952  1.00  0.00     0.025 C 
HETATM   19  C   UNL     1      39.801 -11.660  -2.935  1.00  0.00     0.002 C 
HETATM   20  C   UNL     1      40.841 -12.768  -3.005  1.00  0.00     0.002 C 
HETATM   21  C   UNL     1      40.088 -14.033  -2.632  1.00  0.00     0.025 C 
ENDBRANCH  14  17
ENDBRANCH   4  13
ENDBRANCH   1   4
BRANCH   1  22
HETATM   22  C   UNL     1      42.019 -12.327   3.471  1.00  0.00     0.155 C 
BRANCH  22  23
HETATM   23  C   UNL     1      42.004 -12.532   5.004  1.00  0.00     0.255 C 
BRANCH  23  24
HETATM   24  N   UNL     1      41.834 -13.970   5.439  1.00  0.00    -0.066 N 
HETATM   25  H   UNL     1      41.752 -14.578   4.598  1.00  0.00     0.280 HD
HETATM   26  C   UNL     1      42.976 -14.508   6.289  1.00  0.00     0.261 C 
HETATM   27  C   UNL     1      42.695 -15.961   6.689  1.00  0.00     0.195 C 
HETATM   28  O   UNL     1      41.456 -16.061   7.400  1.00  0.00    -0.388 OA
HETATM   29  C   UNL     1      40.356 -15.643   6.584  1.00  0.00     0.195 C 
HETATM   30  C   UNL     1      40.507 -14.174   6.173  1.00  0.00     0.261 C 
ENDBRANCH  23  24
ENDBRANCH  22  23
ENDBRANCH   1  22
BRANCH   2  31
HETATM   31  C   UNL     1      39.804 -10.440   3.672  1.00  0.00     0.115 A 
HETATM   32  S   UNL     1      39.089 -10.360   5.217  1.00  0.00     0.019 SA
HETATM   33  N   UNL     1      39.551  -8.803   5.543  1.00  0.00    -0.203 NA
HETATM   34  C   UNL     1      40.333  -8.355   4.548  1.00  0.00     0.155 A 
HETATM   35  C   UNL     1      40.521  -9.285   3.453  1.00  0.00     0.065 A 
BRANCH  34  36
HETATM   36  C   UNL     1      40.927  -7.009   4.627  1.00  0.00     0.270 C 
HETATM   37  N   UNL     1      41.256  -6.585   5.884  1.00  0.00    -0.365 N 
HETATM   38  H   UNL     1      41.153  -7.212   6.674  1.00  0.00     0.159 HD
HETATM   39  H   UNL     1      41.726  -5.700   6.003  1.00  0.00     0.159 HD
HETATM   40  O   UNL     1      41.116  -6.303   3.641  1.00  0.00    -0.266 OA
ENDBRANCH  34  36
BRANCH  35  41
HETATM   41  N   UNL     1      41.283  -9.052   2.346  1.00  0.00    -0.299 NA
HETATM   42  H   UNL     1      41.925  -9.814   2.080  1.00  0.00     0.124 HD
HETATM   43  H   UNL     1      40.807  -8.722   1.503  1.00  0.00     0.124 HD
ENDBRANCH  35  41
ENDBRANCH   2  31
TORSDOF 11
ENDMDL
MODEL 10
REMARK VINA RESULT:      -7.1      2.506      6.045
REMARK  11 active torsions:
REMARK  status: ('A' for Active; 'I' for Inactive)
REMARK    1  A    between atoms: O_2  and  C_3 
REMARK    2  A    between atoms: C_6  and  C_7 
REMARK    3  A    between atoms: C_7  and  N_8 
REMARK    4  A    between atoms: C_7  and  C_29 
REMARK       I    between atoms: N_8  and  C_9 
REMARK    5  A    between atoms: N_8  and  C_20 
REMARK    6  A    between atoms: C_9  and  C_10 
REMARK    7  A    between atoms: C_13  and  C_14 
REMARK       I    between atoms: C_14  and  N_15 
REMARK    8  A    between atoms: C_17  and  N_18 
REMARK    9  A    between atoms: C_20  and  C_21 
REMARK   10  A    between atoms: C_21  and  N_22 
REMARK       I    between atoms: C_29  and  N_30 
REMARK   11  A    between atoms: N_30  and  C_31 
ROOT
HETATM    1  N   UNL     1      41.623 -12.927   3.465  1.00  0.00    -0.328 N 
HETATM    2  C   UNL     1      42.769 -12.171   3.776  1.00  0.00     0.265 C 
HETATM    3  O   UNL     1      43.783 -12.253   3.085  1.00  0.00    -0.267 OA
ENDROOT
BRANCH   1   4
HETATM    4  C   UNL     1      41.708 -13.857   2.321  1.00  0.00     0.213 C 
BRANCH   4   5
HETATM    5  C   UNL     1      41.062 -13.434   1.012  1.00  0.00    -0.026 A 
HETATM    6  C   UNL     1      41.227 -12.156   0.461  1.00  0.00     0.012 A 
HETATM    7  C   UNL     1      40.732 -11.855  -0.812  1.00  0.00     0.037 A 
HETATM    8  C   UNL     1      40.091 -12.828  -1.578  1.00  0.00     0.068 A 
HETATM    9  C   UNL     1      39.901 -14.097  -1.041  1.00  0.00     0.037 A 
HETATM   10  C   UNL     1      40.386 -14.398   0.237  1.00  0.00     0.012 A 
BRANCH   8  11
HETATM   11  O   UNL     1      39.697 -12.419  -2.820  1.00  0.00    -0.356 OA
HETATM   12  C   UNL     1      39.546 -11.016  -3.005  1.00  0.00     0.210 C 
ENDBRANCH   8  11
ENDBRANCH   4   5
BRANCH   4  13
HETATM   13  C   UNL     1      41.444 -15.290   2.835  1.00  0.00     0.245 C 
HETATM   14  N   UNL     1      42.529 -16.104   3.011  1.00  0.00    -0.354 N 
HETATM   15  H   UNL     1      43.372 -15.809   2.515  1.00  0.00     0.162 HD
HETATM   16  O   UNL     1      40.269 -15.658   2.949  1.00  0.00    -0.271 OA
BRANCH  14  17
HETATM   17  C   UNL     1      42.520 -17.497   3.446  1.00  0.00     0.084 C 
HETATM   18  C   UNL     1      43.024 -18.479   2.385  1.00  0.00     0.025 C 
HETATM   19  C   UNL     1      44.296 -19.117   2.941  1.00  0.00     0.002 C 
HETATM   20  C   UNL     1      44.664 -18.346   4.199  1.00  0.00     0.002 C 
HETATM   21  C   UNL     1      43.351 -17.767   4.698  1.00  0.00     0.025 C 
ENDBRANCH  14  17
ENDBRANCH   4  13
ENDBRANCH   1   4
BRANCH   1  22
HETATM   22  C   UNL     1      40.355 -12.875   4.218  1.00  0.00     0.155 C 
BRANCH  22  23
HETATM   23  C   UNL     1      39.132 -12.343   3.434  1.00  0.00     0.255 C 
BRANCH  23  24
HETATM   24  N   UNL     1      39.091 -10.839   3.288  1.00  0.00    -0.066 N 
HETATM   25  H   UNL     1      40.061 -10.463   3.318  1.00  0.00     0.280 HD
HETATM   26  C   UNL     1      38.445 -10.350   2.000  1.00  0.00     0.261 C 
HETATM   27  C   UNL     1      38.440  -8.818   1.962  1.00  0.00     0.195 C 
HETATM   28  O   UNL     1      37.748  -8.286   3.098  1.00  0.00    -0.388 OA
HETATM   29  C   UNL     1      38.393  -8.661   4.320  1.00  0.00     0.195 C 
HETATM   30  C   UNL     1      38.403 -10.185   4.489  1.00  0.00     0.261 C 
ENDBRANCH  23  24
ENDBRANCH  22  23
ENDBRANCH   1  22
BRANCH   2  31
HETATM   31  C   UNL     1      42.703 -11.287   4.907  1.00  0.00     0.115 A 
HETATM   32  S   UNL     1      43.264 -11.815   6.427  1.00  0.00     0.019 SA
HETATM   33  N   UNL     1      42.841 -10.446   7.257  1.00  0.00    -0.203 NA
HETATM   34  C   UNL     1      42.368  -9.533   6.393  1.00  0.00     0.155 A 
HETATM   35  C   UNL     1      42.293  -9.977   5.016  1.00  0.00     0.065 A 
BRANCH  34  36
HETATM   36  C   UNL     1      41.976  -8.197   6.874  1.00  0.00     0.270 C 
HETATM   37  N   UNL     1      40.682  -7.838   6.621  1.00  0.00    -0.365 N 
HETATM   38  H   UNL     1      40.045  -8.502   6.195  1.00  0.00     0.159 HD
HETATM   39  H   UNL     1      40.329  -6.963   6.981  1.00  0.00     0.159 HD
HETATM   40  O   UNL     1      42.749  -7.445   7.462  1.00  0.00    -0.266 OA
ENDBRANCH  34  36
BRANCH  35  41
HETATM   41  N   UNL     1      41.859  -9.219   3.967  1.00  0.00    -0.299 NA
HETATM   42  H   UNL     1      42.422  -9.288   3.106  1.00  0.00     0.124 HD
HETATM   43  H   UNL     1      40.870  -9.282   3.713  1.00  0.00     0.124 HD
ENDBRANCH  35  41
ENDBRANCH   2  31
TORSDOF 11
ENDMDL
