MODEL 1
REMARK VINA RESULT:      -8.9      0.000      0.000
REMARK  5 active torsions:
REMARK  status: ('A' for Active; 'I' for Inactive)
REMARK    1  A    between atoms: C_2  and  N_3 
REMARK       I    between atoms: N_3  and  C_4 
REMARK       I    between atoms: C_4  and  N_5 
REMARK    2  A    between atoms: N_5  and  C_6 
REMARK    3  A    between atoms: C_9  and  C_10 
REMARK    4  A    between atoms: C_10  and  C_11 
REMARK       I    between atoms: C_11  and  N_12 
REMARK    5  A    between atoms: N_12  and  C_13 
ROOT
HETATM    1  C   UNL     1      42.128 -12.170   5.674  1.00  0.00     0.174 A 
HETATM    2  S   UNL     1      41.112 -10.880   5.219  1.00  0.00    -0.062 SA
HETATM    3  C   UNL     1      42.062  -9.820   6.181  1.00  0.00     0.081 A 
HETATM    4  C   UNL     1      43.104 -10.518   6.766  1.00  0.00     0.052 A 
HETATM    5  N   UNL     1      43.130 -11.873   6.460  1.00  0.00    -0.228 NA
ENDROOT
BRANCH   1   6
HETATM    6  N   UNL     1      41.797 -13.378   5.134  1.00  0.00    -0.287 N 
HETATM    7  C   UNL     1      40.790 -14.139   5.645  1.00  0.00     0.326 C 
HETATM    8  N   UNL     1      40.614 -15.377   5.087  1.00  0.00    -0.309 N 
HETATM    9  O   UNL     1      39.978 -13.776   6.494  1.00  0.00    -0.247 OA
HETATM   10  H   UNL     1      39.703 -15.756   5.320  1.00  0.00     0.170 HD
HETATM   11  H   UNL     1      42.134 -13.580   4.206  1.00  0.00     0.172 HD
BRANCH   8  12
HETATM   12  C   UNL     1      41.491 -16.232   4.399  1.00  0.00     0.036 A 
HETATM   13  C   UNL     1      41.434 -16.468   3.021  1.00  0.00     0.032 A 
HETATM   14  C   UNL     1      42.377 -17.301   2.409  1.00  0.00     0.044 A 
HETATM   15  C   UNL     1      43.380 -17.885   3.172  1.00  0.00     0.116 A 
HETATM   16  C   UNL     1      43.465 -17.646   4.536  1.00  0.00     0.044 A 
HETATM   17  F   UNL     1      44.284 -18.676   2.580  1.00  0.00    -0.206 F 
HETATM   18  C   UNL     1      42.527 -16.811   5.148  1.00  0.00     0.032 A 
ENDBRANCH   8  12
ENDBRANCH   1   6
BRANCH   4  19
HETATM   19  C   UNL     1      44.195  -9.960   7.621  1.00  0.00     0.163 C 
BRANCH  19  20
HETATM   20  C   UNL     1      43.991 -10.159   9.116  1.00  0.00     0.227 C 
HETATM   21  N   UNL     1      43.222  -9.188   9.731  1.00  0.00    -0.327 N 
HETATM   22  H   UNL     1      43.043  -8.344   9.177  1.00  0.00     0.169 HD
HETATM   23  O   UNL     1      44.435 -11.169   9.661  1.00  0.00    -0.273 OA
BRANCH  21  24
HETATM   24  C   UNL     1      42.729  -9.183  11.052  1.00  0.00     0.036 A 
HETATM   25  C   UNL     1      41.573  -9.857  11.456  1.00  0.00     0.056 A 
HETATM   26  C   UNL     1      41.139  -9.771  12.783  1.00  0.00     0.074 A 
HETATM   27 CL   UNL     1      39.700 -10.591  13.260  1.00  0.00    -0.081 Cl
HETATM   28  C   UNL     1      41.860  -9.020  13.707  1.00  0.00     0.138 A 
HETATM   29  F   UNL     1      41.457  -8.927  14.984  1.00  0.00    -0.204 F 
HETATM   30  C   UNL     1      43.010  -8.347  13.320  1.00  0.00     0.046 A 
HETATM   31  C   UNL     1      43.440  -8.425  11.993  1.00  0.00     0.032 A 
ENDBRANCH  21  24
ENDBRANCH  19  20
ENDBRANCH   4  19
TORSDOF 5
ENDMDL
MODEL 2
REMARK VINA RESULT:      -8.8      4.445      9.448
REMARK  5 active torsions:
REMARK  status: ('A' for Active; 'I' for Inactive)
REMARK    1  A    between atoms: C_2  and  N_3 
REMARK       I    between atoms: N_3  and  C_4 
REMARK       I    between atoms: C_4  and  N_5 
REMARK    2  A    between atoms: N_5  and  C_6 
REMARK    3  A    between atoms: C_9  and  C_10 
REMARK    4  A    between atoms: C_10  and  C_11 
REMARK       I    between atoms: C_11  and  N_12 
REMARK    5  A    between atoms: N_12  and  C_13 
ROOT
HETATM    1  C   UNL     1      42.014 -11.955   3.549  1.00  0.00     0.174 A 
HETATM    2  S   UNL     1      41.661 -10.550   2.651  1.00  0.00    -0.062 SA
HETATM    3  C   UNL     1      41.197 -11.540   1.326  1.00  0.00     0.081 A 
HETATM    4  C   UNL     1      41.321 -12.875   1.666  1.00  0.00     0.052 A 
HETATM    5  N   UNL     1      41.790 -13.098   2.955  1.00  0.00    -0.228 NA
ENDROOT
BRANCH   1   6
HETATM    6  N   UNL     1      42.466 -11.726   4.816  1.00  0.00    -0.287 N 
HETATM    7  C   UNL     1      41.613 -11.577   5.866  1.00  0.00     0.326 C 
HETATM    8  N   UNL     1      42.175 -11.250   7.070  1.00  0.00    -0.309 N 
HETATM    9  O   UNL     1      40.403 -11.800   5.842  1.00  0.00    -0.247 OA
HETATM   10  H   UNL     1      41.531 -11.427   7.833  1.00  0.00     0.170 HD
HETATM   11  H   UNL     1      43.437 -11.920   5.003  1.00  0.00     0.172 HD
BRANCH   8  12
HETATM   12  C   UNL     1      43.379 -10.608   7.403  1.00  0.00     0.036 A 
HETATM   13  C   UNL     1      43.456  -9.323   7.950  1.00  0.00     0.032 A 
HETATM   14  C   UNL     1      44.698  -8.777   8.294  1.00  0.00     0.044 A 
HETATM   15  C   UNL     1      45.856  -9.520   8.102  1.00  0.00     0.116 A 
HETATM   16  C   UNL     1      45.797 -10.804   7.580  1.00  0.00     0.044 A 
HETATM   17  F   UNL     1      47.041  -8.996   8.439  1.00  0.00    -0.206 F 
HETATM   18  C   UNL     1      44.558 -11.352   7.240  1.00  0.00     0.032 A 
ENDBRANCH   8  12
ENDBRANCH   1   6
BRANCH   4  19
HETATM   19  C   UNL     1      40.958 -14.057   0.827  1.00  0.00     0.163 C 
BRANCH  19  20
HETATM   20  C   UNL     1      41.211 -15.404   1.488  1.00  0.00     0.227 C 
HETATM   21  N   UNL     1      42.536 -15.663   1.789  1.00  0.00    -0.327 N 
HETATM   22  H   UNL     1      43.221 -15.031   1.361  1.00  0.00     0.169 HD
HETATM   23  O   UNL     1      40.259 -16.127   1.780  1.00  0.00    -0.273 OA
BRANCH  21  24
HETATM   24  C   UNL     1      43.059 -16.736   2.539  1.00  0.00     0.036 A 
HETATM   25  C   UNL     1      43.190 -18.040   2.053  1.00  0.00     0.056 A 
HETATM   26  C   UNL     1      43.691 -19.049   2.879  1.00  0.00     0.074 A 
HETATM   27 CL   UNL     1      43.825 -20.656   2.270  1.00  0.00    -0.081 Cl
HETATM   28  C   UNL     1      44.068 -18.760   4.188  1.00  0.00     0.138 A 
HETATM   29  F   UNL     1      44.551 -19.717   4.994  1.00  0.00    -0.204 F 
HETATM   30  C   UNL     1      43.945 -17.469   4.684  1.00  0.00     0.046 A 
HETATM   31  C   UNL     1      43.437 -16.461   3.862  1.00  0.00     0.032 A 
ENDBRANCH  21  24
ENDBRANCH  19  20
ENDBRANCH   4  19
TORSDOF 5
ENDMDL
MODEL 3
REMARK VINA RESULT:      -8.8      6.627      8.976
REMARK  5 active torsions:
REMARK  status: ('A' for Active; 'I' for Inactive)
REMARK    1  A    between atoms: C_2  and  N_3 
REMARK       I    between atoms: N_3  and  C_4 
REMARK       I    between atoms: C_4  and  N_5 
REMARK    2  A    between atoms: N_5  and  C_6 
REMARK    3  A    between atoms: C_9  and  C_10 
REMARK    4  A    between atoms: C_10  and  C_11 
REMARK       I    between atoms: C_11  and  N_12 
REMARK    5  A    between atoms: N_12  and  C_13 
ROOT
HETATM    1  C   UNL     1      41.709 -14.806   5.179  1.00  0.00     0.174 A 
HETATM    2  S   UNL     1      40.507 -14.692   6.382  1.00  0.00    -0.062 SA
HETATM    3  C   UNL     1      40.208 -13.071   5.899  1.00  0.00     0.081 A 
HETATM    4  C   UNL     1      41.029 -12.733   4.838  1.00  0.00     0.052 A 
HETATM    5  N   UNL     1      41.887 -13.748   4.431  1.00  0.00    -0.228 NA
ENDROOT
BRANCH   1   6
HETATM    6  N   UNL     1      42.337 -16.015   5.109  1.00  0.00    -0.287 N 
HETATM    7  C   UNL     1      43.552 -16.226   5.685  1.00  0.00     0.326 C 
HETATM    8  N   UNL     1      44.132 -17.446   5.464  1.00  0.00    -0.309 N 
HETATM    9  O   UNL     1      44.124 -15.454   6.453  1.00  0.00    -0.247 OA
HETATM   10  H   UNL     1      44.875 -17.623   6.130  1.00  0.00     0.170 HD
HETATM   11  H   UNL     1      41.779 -16.813   4.848  1.00  0.00     0.172 HD
BRANCH   8  12
HETATM   12  C   UNL     1      43.976 -18.388   4.433  1.00  0.00     0.036 A 
HETATM   13  C   UNL     1      44.108 -19.770   4.610  1.00  0.00     0.032 A 
HETATM   14  C   UNL     1      43.892 -20.641   3.536  1.00  0.00     0.044 A 
HETATM   15  C   UNL     1      43.533 -20.130   2.295  1.00  0.00     0.116 A 
HETATM   16  C   UNL     1      43.377 -18.765   2.106  1.00  0.00     0.044 A 
HETATM   17  F   UNL     1      43.320 -20.968   1.272  1.00  0.00    -0.206 F 
HETATM   18  C   UNL     1      43.589 -17.894   3.178  1.00  0.00     0.032 A 
ENDBRANCH   8  12
ENDBRANCH   1   6
BRANCH   4  19
HETATM   19  C   UNL     1      41.039 -11.446   4.080  1.00  0.00     0.163 C 
BRANCH  19  20
HETATM   20  C   UNL     1      40.524 -11.549   2.651  1.00  0.00     0.227 C 
HETATM   21  N   UNL     1      41.143 -12.515   1.880  1.00  0.00    -0.327 N 
HETATM   22  H   UNL     1      42.003 -12.914   2.271  1.00  0.00     0.169 HD
HETATM   23  O   UNL     1      39.573 -10.853   2.296  1.00  0.00    -0.273 OA
BRANCH  21  24
HETATM   24  C   UNL     1      40.781 -12.955   0.590  1.00  0.00     0.036 A 
HETATM   25  C   UNL     1      41.020 -12.228  -0.579  1.00  0.00     0.056 A 
HETATM   26  C   UNL     1      40.598 -12.728  -1.814  1.00  0.00     0.074 A 
HETATM   27 CL   UNL     1      40.882 -11.808  -3.244  1.00  0.00    -0.081 Cl
HETATM   28  C   UNL     1      39.945 -13.955  -1.886  1.00  0.00     0.138 A 
HETATM   29  F   UNL     1      39.533 -14.449  -3.064  1.00  0.00    -0.204 F 
HETATM   30  C   UNL     1      39.702 -14.689  -0.733  1.00  0.00     0.046 A 
HETATM   31  C   UNL     1      40.115 -14.186   0.502  1.00  0.00     0.032 A 
ENDBRANCH  21  24
ENDBRANCH  19  20
ENDBRANCH   4  19
TORSDOF 5
ENDMDL
MODEL 4
REMARK VINA RESULT:      -8.6      3.608      9.787
REMARK  5 active torsions:
REMARK  status: ('A' for Active; 'I' for Inactive)
REMARK    1  A    between atoms: C_2  and  N_3 
REMARK       I    between atoms: N_3  and  C_4 
REMARK       I    between atoms: C_4  and  N_5 
REMARK    2  A    between atoms: N_5  and  C_6 
REMARK    3  A    between atoms: C_9  and  C_10 
REMARK    4  A    between atoms: C_10  and  C_11 
REMARK       I    between atoms: C_11  and  N_12 
REMARK    5  A    between atoms: N_12  and  C_13 
ROOT
HETATM    1  C   UNL     1      41.821 -11.823   5.759  1.00  0.00     0.174 A 
HETATM    2  S   UNL     1      40.180 -11.802   6.219  1.00  0.00    -0.062 SA
HETATM    3  C   UNL     1      39.786 -12.642   4.774  1.00  0.00     0.081 A 
HETATM    4  C   UNL     1      40.935 -12.901   4.048  1.00  0.00     0.052 A 
HETATM    5  N   UNL     1      42.102 -12.426   4.632  1.00  0.00    -0.228 NA
ENDROOT
BRANCH   1   6
HETATM    6  N   UNL     1      42.672 -11.228   6.644  1.00  0.00    -0.287 N 
HETATM    7  C   UNL     1      43.725 -11.899   7.187  1.00  0.00     0.326 C 
HETATM    8  N   UNL     1      44.449 -11.235   8.139  1.00  0.00    -0.309 N 
HETATM    9  O   UNL     1      44.129 -13.005   6.832  1.00  0.00    -0.247 OA
HETATM   10  H   UNL     1      45.350 -11.676   8.287  1.00  0.00     0.170 HD
HETATM   11  H   UNL     1      42.660 -10.222   6.694  1.00  0.00     0.172 HD
BRANCH   8  12
HETATM   12  C   UNL     1      44.118 -10.181   9.008  1.00  0.00     0.036 A 
HETATM   13  C   UNL     1      43.991  -8.847   8.607  1.00  0.00     0.032 A 
HETATM   14  C   UNL     1      43.613  -7.867   9.531  1.00  0.00     0.044 A 
HETATM   15  C   UNL     1      43.352  -8.224  10.848  1.00  0.00     0.116 A 
HETATM   16  C   UNL     1      43.452  -9.545  11.259  1.00  0.00     0.044 A 
HETATM   17  F   UNL     1      42.984  -7.283  11.727  1.00  0.00    -0.206 F 
HETATM   18  C   UNL     1      43.825 -10.526  10.337  1.00  0.00     0.032 A 
ENDBRANCH   8  12
ENDBRANCH   1   6
BRANCH   4  19
HETATM   19  C   UNL     1      41.040 -13.666   2.769  1.00  0.00     0.163 C 
BRANCH  19  20
HETATM   20  C   UNL     1      41.296 -15.156   2.942  1.00  0.00     0.227 C 
HETATM   21  N   UNL     1      42.625 -15.501   3.105  1.00  0.00    -0.327 N 
HETATM   22  H   UNL     1      43.306 -14.765   2.893  1.00  0.00     0.169 HD
HETATM   23  O   UNL     1      40.344 -15.934   3.005  1.00  0.00    -0.273 OA
BRANCH  21  24
HETATM   24  C   UNL     1      43.156 -16.762   3.446  1.00  0.00     0.036 A 
HETATM   25  C   UNL     1      43.248 -17.837   2.558  1.00  0.00     0.056 A 
HETATM   26  C   UNL     1      43.761 -19.063   2.992  1.00  0.00     0.074 A 
HETATM   27 CL   UNL     1      43.847 -20.385   1.890  1.00  0.00    -0.081 Cl
HETATM   28  C   UNL     1      44.188 -19.217   4.308  1.00  0.00     0.138 A 
HETATM   29  F   UNL     1      44.681 -20.387   4.742  1.00  0.00    -0.204 F 
HETATM   30  C   UNL     1      44.103 -18.157   5.201  1.00  0.00     0.046 A 
HETATM   31  C   UNL     1      43.583 -16.934   4.771  1.00  0.00     0.032 A 
ENDBRANCH  21  24
ENDBRANCH  19  20
ENDBRANCH   4  19
TORSDOF 5
ENDMDL
MODEL 5
REMARK VINA RESULT:      -8.5      6.393      9.259
REMARK  5 active torsions:
REMARK  status: ('A' for Active; 'I' for Inactive)
REMARK    1  A    between atoms: C_2  and  N_3 
REMARK       I    between atoms: N_3  and  C_4 
REMARK       I    between atoms: C_4  and  N_5 
REMARK    2  A    between atoms: N_5  and  C_6 
REMARK    3  A    between atoms: C_9  and  C_10 
REMARK    4  A    between atoms: C_10  and  C_11 
REMARK       I    between atoms: C_11  and  N_12 
REMARK    5  A    between atoms: N_12  and  C_13 
ROOT
HETATM    1  C   UNL     1      41.582 -12.384   2.684  1.00  0.00     0.174 A 
HETATM    2  S   UNL     1      42.892 -11.377   3.100  1.00  0.00    -0.062 SA
HETATM    3  C   UNL     1      43.005 -12.184   4.612  1.00  0.00     0.081 A 
HETATM    4  C   UNL     1      42.050 -13.182   4.688  1.00  0.00     0.052 A 
HETATM    5  N   UNL     1      41.239 -13.287   3.565  1.00  0.00    -0.228 NA
ENDROOT
BRANCH   1   6
HETATM    6  N   UNL     1      41.052 -12.152   1.448  1.00  0.00    -0.287 N 
HETATM    7  C   UNL     1      40.171 -11.138   1.225  1.00  0.00     0.326 C 
HETATM    8  N   UNL     1      39.627 -11.065  -0.028  1.00  0.00    -0.309 N 
HETATM    9  O   UNL     1      39.898 -10.240   2.019  1.00  0.00    -0.247 OA
HETATM   10  H   UNL     1      39.213 -10.154  -0.194  1.00  0.00     0.170 HD
HETATM   11  H   UNL     1      41.511 -12.578   0.659  1.00  0.00     0.172 HD
BRANCH   8  12
HETATM   12  C   UNL     1      39.425 -12.034  -1.025  1.00  0.00     0.036 A 
HETATM   13  C   UNL     1      40.460 -12.662  -1.727  1.00  0.00     0.032 A 
HETATM   14  C   UNL     1      40.171 -13.651  -2.673  1.00  0.00     0.044 A 
HETATM   15  C   UNL     1      38.851 -14.018  -2.907  1.00  0.00     0.116 A 
HETATM   16  C   UNL     1      37.813 -13.421  -2.206  1.00  0.00     0.044 A 
HETATM   17  F   UNL     1      38.580 -14.970  -3.809  1.00  0.00    -0.206 F 
HETATM   18  C   UNL     1      38.101 -12.437  -1.257  1.00  0.00     0.032 A 
ENDBRANCH   8  12
ENDBRANCH   1   6
BRANCH   4  19
HETATM   19  C   UNL     1      41.853 -14.157   5.802  1.00  0.00     0.163 C 
BRANCH  19  20
HETATM   20  C   UNL     1      41.821 -15.616   5.367  1.00  0.00     0.227 C 
HETATM   21  N   UNL     1      42.793 -15.969   4.449  1.00  0.00    -0.327 N 
HETATM   22  H   UNL     1      43.294 -15.190   4.009  1.00  0.00     0.169 HD
HETATM   23  O   UNL     1      41.018 -16.389   5.890  1.00  0.00    -0.273 OA
BRANCH  21  24
HETATM   24  C   UNL     1      43.118 -17.260   3.987  1.00  0.00     0.036 A 
HETATM   25  C   UNL     1      43.668 -18.263   4.792  1.00  0.00     0.056 A 
HETATM   26  C   UNL     1      43.989 -19.507   4.240  1.00  0.00     0.074 A 
HETATM   27 CL   UNL     1      44.686 -20.724   5.242  1.00  0.00    -0.081 Cl
HETATM   28  C   UNL     1      43.756 -19.755   2.891  1.00  0.00     0.138 A 
HETATM   29  F   UNL     1      44.058 -20.944   2.346  1.00  0.00    -0.204 F 
HETATM   30  C   UNL     1      43.209 -18.770   2.081  1.00  0.00     0.046 A 
HETATM   31  C   UNL     1      42.896 -17.523   2.628  1.00  0.00     0.032 A 
ENDBRANCH  21  24
ENDBRANCH  19  20
ENDBRANCH   4  19
TORSDOF 5
ENDMDL
MODEL 6
REMARK VINA RESULT:      -8.4      2.308      2.720
REMARK  5 active torsions:
REMARK  status: ('A' for Active; 'I' for Inactive)
REMARK    1  A    between atoms: C_2  and  N_3 
REMARK       I    between atoms: N_3  and  C_4 
REMARK       I    between atoms: C_4  and  N_5 
REMARK    2  A    between atoms: N_5  and  C_6 
REMARK    3  A    between atoms: C_9  and  C_10 
REMARK    4  A    between atoms: C_10  and  C_11 
REMARK       I    between atoms: C_11  and  N_12 
REMARK    5  A    between atoms: N_12  and  C_13 
ROOT
HETATM    1  C   UNL     1      43.050 -14.706   6.180  1.00  0.00     0.174 A 
HETATM    2  S   UNL     1      41.618 -13.901   5.726  1.00  0.00    -0.062 SA
HETATM    3  C   UNL     1      42.273 -12.436   6.339  1.00  0.00     0.081 A 
HETATM    4  C   UNL     1      43.548 -12.656   6.828  1.00  0.00     0.052 A 
HETATM    5  N   UNL     1      43.984 -13.971   6.725  1.00  0.00    -0.228 NA
ENDROOT
BRANCH   1   6
HETATM    6  N   UNL     1      43.073 -16.040   5.891  1.00  0.00    -0.287 N 
HETATM    7  C   UNL     1      43.658 -16.944   6.724  1.00  0.00     0.326 C 
HETATM    8  N   UNL     1      43.712 -18.238   6.283  1.00  0.00    -0.309 N 
HETATM    9  O   UNL     1      44.056 -16.713   7.865  1.00  0.00    -0.247 OA
HETATM   10  H   UNL     1      43.900 -18.877   7.048  1.00  0.00     0.170 HD
HETATM   11  H   UNL     1      42.436 -16.373   5.185  1.00  0.00     0.172 HD
BRANCH   8  12
HETATM   12  C   UNL     1      43.693 -18.794   4.993  1.00  0.00     0.036 A 
HETATM   13  C   UNL     1      43.615 -18.040   3.817  1.00  0.00     0.032 A 
HETATM   14  C   UNL     1      43.648 -18.675   2.570  1.00  0.00     0.044 A 
HETATM   15  C   UNL     1      43.770 -20.057   2.502  1.00  0.00     0.116 A 
HETATM   16  C   UNL     1      43.870 -20.819   3.657  1.00  0.00     0.044 A 
HETATM   17  F   UNL     1      43.808 -20.658   1.307  1.00  0.00    -0.206 F 
HETATM   18  C   UNL     1      43.842 -20.187   4.902  1.00  0.00     0.032 A 
ENDBRANCH   8  12
ENDBRANCH   1   6
BRANCH   4  19
HETATM   19  C   UNL     1      44.488 -11.637   7.386  1.00  0.00     0.163 C 
BRANCH  19  20
HETATM   20  C   UNL     1      43.811 -10.482   8.110  1.00  0.00     0.227 C 
HETATM   21  N   UNL     1      43.449 -10.749   9.418  1.00  0.00    -0.327 N 
HETATM   22  H   UNL     1      43.484 -11.735   9.697  1.00  0.00     0.169 HD
HETATM   23  O   UNL     1      43.696  -9.394   7.546  1.00  0.00    -0.273 OA
BRANCH  21  24
HETATM   24  C   UNL     1      42.961  -9.845  10.382  1.00  0.00     0.036 A 
HETATM   25  C   UNL     1      41.618  -9.473  10.496  1.00  0.00     0.056 A 
HETATM   26  C   UNL     1      41.228  -8.543  11.465  1.00  0.00     0.074 A 
HETATM   27 CL   UNL     1      39.572  -8.079  11.577  1.00  0.00    -0.081 Cl
HETATM   28  C   UNL     1      42.173  -7.989  12.324  1.00  0.00     0.138 A 
HETATM   29  F   UNL     1      41.816  -7.095  13.259  1.00  0.00    -0.204 F 
HETATM   30  C   UNL     1      43.510  -8.351  12.223  1.00  0.00     0.046 A 
HETATM   31  C   UNL     1      43.902  -9.272  11.250  1.00  0.00     0.032 A 
ENDBRANCH  21  24
ENDBRANCH  19  20
ENDBRANCH   4  19
TORSDOF 5
ENDMDL
MODEL 7
REMARK VINA RESULT:      -8.2      7.082      9.822
REMARK  5 active torsions:
REMARK  status: ('A' for Active; 'I' for Inactive)
REMARK    1  A    between atoms: C_2  and  N_3 
REMARK       I    between atoms: N_3  and  C_4 
REMARK       I    between atoms: C_4  and  N_5 
REMARK    2  A    between atoms: N_5  and  C_6 
REMARK    3  A    between atoms: C_9  and  C_10 
REMARK    4  A    between atoms: C_10  and  C_11 
REMARK       I    between atoms: C_11  and  N_12 
REMARK    5  A    between atoms: N_12  and  C_13 
ROOT
HETATM    1  C   UNL     1      41.190 -13.326   3.560  1.00  0.00     0.174 A 
HETATM    2  S   UNL     1      39.842 -12.890   4.507  1.00  0.00    -0.062 SA
HETATM    3  C   UNL     1      39.671 -11.462   3.568  1.00  0.00     0.081 A 
HETATM    4  C   UNL     1      40.641 -11.425   2.582  1.00  0.00     0.052 A 
HETATM    5  N   UNL     1      41.508 -12.511   2.588  1.00  0.00    -0.228 NA
ENDROOT
BRANCH   1   6
HETATM    6  N   UNL     1      41.776 -14.509   3.908  1.00  0.00    -0.287 N 
HETATM    7  C   UNL     1      42.849 -14.558   4.745  1.00  0.00     0.326 C 
HETATM    8  N   UNL     1      43.416 -15.788   4.941  1.00  0.00    -0.309 N 
HETATM    9  O   UNL     1      43.289 -13.615   5.401  1.00  0.00    -0.247 OA
HETATM   10  H   UNL     1      44.010 -15.789   5.763  1.00  0.00     0.170 HD
HETATM   11  H   UNL     1      41.251 -15.352   3.743  1.00  0.00     0.172 HD
BRANCH   8  12
HETATM   12  C   UNL     1      43.429 -16.954   4.158  1.00  0.00     0.036 A 
HETATM   13  C   UNL     1      42.896 -17.035   2.867  1.00  0.00     0.032 A 
HETATM   14  C   UNL     1      42.993 -18.227   2.139  1.00  0.00     0.044 A 
HETATM   15  C   UNL     1      43.631 -19.327   2.698  1.00  0.00     0.116 A 
HETATM   16  C   UNL     1      44.183 -19.259   3.968  1.00  0.00     0.044 A 
HETATM   17  F   UNL     1      43.726 -20.462   1.994  1.00  0.00    -0.206 F 
HETATM   18  C   UNL     1      44.092 -18.069   4.694  1.00  0.00     0.032 A 
ENDBRANCH   8  12
ENDBRANCH   1   6
BRANCH   4  19
HETATM   19  C   UNL     1      40.803 -10.392   1.514  1.00  0.00     0.163 C 
BRANCH  19  20
HETATM   20  C   UNL     1      40.436 -10.866   0.115  1.00  0.00     0.227 C 
HETATM   21  N   UNL     1      39.904 -12.141   0.056  1.00  0.00    -0.327 N 
HETATM   22  H   UNL     1      39.998 -12.704   0.908  1.00  0.00     0.169 HD
HETATM   23  O   UNL     1      40.552 -10.097  -0.838  1.00  0.00    -0.273 OA
BRANCH  21  24
HETATM   24  C   UNL     1      39.325 -12.786  -1.056  1.00  0.00     0.036 A 
HETATM   25  C   UNL     1      38.078 -12.452  -1.593  1.00  0.00     0.056 A 
HETATM   26  C   UNL     1      37.568 -13.167  -2.680  1.00  0.00     0.074 A 
HETATM   27 CL   UNL     1      36.019 -12.755  -3.315  1.00  0.00    -0.081 Cl
HETATM   28  C   UNL     1      38.301 -14.211  -3.237  1.00  0.00     0.138 A 
HETATM   29  F   UNL     1      37.826 -14.908  -4.281  1.00  0.00    -0.204 F 
HETATM   30  C   UNL     1      39.542 -14.553  -2.716  1.00  0.00     0.046 A 
HETATM   31  C   UNL     1      40.049 -13.845  -1.624  1.00  0.00     0.032 A 
ENDBRANCH  21  24
ENDBRANCH  19  20
ENDBRANCH   4  19
TORSDOF 5
ENDMDL
MODEL 8
REMARK VINA RESULT:      -8.1      2.378      3.009
REMARK  5 active torsions:
REMARK  status: ('A' for Active; 'I' for Inactive)
REMARK    1  A    between atoms: C_2  and  N_3 
REMARK       I    between atoms: N_3  and  C_4 
REMARK       I    between atoms: C_4  and  N_5 
REMARK    2  A    between atoms: N_5  and  C_6 
REMARK    3  A    between atoms: C_9  and  C_10 
REMARK    4  A    between atoms: C_10  and  C_11 
REMARK       I    between atoms: C_11  and  N_12 
REMARK    5  A    between atoms: N_12  and  C_13 
ROOT
HETATM    1  C   UNL     1      44.738 -12.020   7.206  1.00  0.00     0.174 A 
HETATM    2  S   UNL     1      45.876 -11.135   6.296  1.00  0.00    -0.062 SA
HETATM    3  C   UNL     1      46.111 -10.095   7.643  1.00  0.00     0.081 A 
HETATM    4  C   UNL     1      45.322 -10.506   8.702  1.00  0.00     0.052 A 
HETATM    5  N   UNL     1      44.538 -11.621   8.435  1.00  0.00    -0.228 NA
ENDROOT
BRANCH   1   6
HETATM    6  N   UNL     1      44.179 -13.078   6.550  1.00  0.00    -0.287 N 
HETATM    7  C   UNL     1      42.859 -13.098   6.218  1.00  0.00     0.326 C 
HETATM    8  N   UNL     1      42.387 -14.253   5.655  1.00  0.00    -0.309 N 
HETATM    9  O   UNL     1      42.085 -12.145   6.298  1.00  0.00    -0.247 OA
HETATM   10  H   UNL     1      41.496 -14.097   5.195  1.00  0.00     0.170 HD
HETATM   11  H   UNL     1      44.803 -13.724   6.095  1.00  0.00     0.172 HD
BRANCH   8  12
HETATM   12  C   UNL     1      42.832 -15.583   5.723  1.00  0.00     0.036 A 
HETATM   13  C   UNL     1      42.802 -16.360   6.886  1.00  0.00     0.032 A 
HETATM   14  C   UNL     1      43.225 -17.694   6.853  1.00  0.00     0.044 A 
HETATM   15  C   UNL     1      43.665 -18.250   5.658  1.00  0.00     0.116 A 
HETATM   16  C   UNL     1      43.682 -17.501   4.490  1.00  0.00     0.044 A 
HETATM   17  F   UNL     1      44.062 -19.528   5.631  1.00  0.00    -0.206 F 
HETATM   18  C   UNL     1      43.256 -16.170   4.521  1.00  0.00     0.032 A 
ENDBRANCH   8  12
ENDBRANCH   1   6
BRANCH   4  19
HETATM   19  C   UNL     1      45.278  -9.917  10.075  1.00  0.00     0.163 C 
BRANCH  19  20
HETATM   20  C   UNL     1      43.968  -9.226  10.425  1.00  0.00     0.227 C 
HETATM   21  N   UNL     1      43.579  -9.355  11.746  1.00  0.00    -0.327 N 
HETATM   22  H   UNL     1      44.089 -10.055  12.294  1.00  0.00     0.169 HD
HETATM   23  O   UNL     1      43.388  -8.553   9.573  1.00  0.00    -0.273 OA
BRANCH  21  24
HETATM   24  C   UNL     1      42.516  -8.702  12.402  1.00  0.00     0.036 A 
HETATM   25  C   UNL     1      42.601  -7.413  12.938  1.00  0.00     0.056 A 
HETATM   26  C   UNL     1      41.504  -6.856  13.601  1.00  0.00     0.074 A 
HETATM   27 CL   UNL     1      41.634  -5.274  14.275  1.00  0.00    -0.081 Cl
HETATM   28  C   UNL     1      40.320  -7.577  13.724  1.00  0.00     0.138 A 
HETATM   29  F   UNL     1      39.258  -7.057  14.358  1.00  0.00    -0.204 F 
HETATM   30  C   UNL     1      40.221  -8.857  13.196  1.00  0.00     0.046 A 
HETATM   31  C   UNL     1      41.319  -9.419  12.541  1.00  0.00     0.032 A 
ENDBRANCH  21  24
ENDBRANCH  19  20
ENDBRANCH   4  19
TORSDOF 5
ENDMDL
MODEL 9
REMARK VINA RESULT:      -8.1      3.436     10.051
REMARK  5 active torsions:
REMARK  status: ('A' for Active; 'I' for Inactive)
REMARK    1  A    between atoms: C_2  and  N_3 
REMARK       I    between atoms: N_3  and  C_4 
REMARK       I    between atoms: C_4  and  N_5 
REMARK    2  A    between atoms: N_5  and  C_6 
REMARK    3  A    between atoms: C_9  and  C_10 
REMARK    4  A    between atoms: C_10  and  C_11 
REMARK       I    between atoms: C_11  and  N_12 
REMARK    5  A    between atoms: N_12  and  C_13 
ROOT
HETATM    1  C   UNL     1      42.578 -10.915   7.099  1.00  0.00     0.174 A 
HETATM    2  S   UNL     1      44.251 -11.236   7.079  1.00  0.00    -0.062 SA
HETATM    3  C   UNL     1      44.027 -12.206   5.679  1.00  0.00     0.081 A 
HETATM    4  C   UNL     1      42.694 -12.201   5.309  1.00  0.00     0.052 A 
HETATM    5  N   UNL     1      41.871 -11.448   6.136  1.00  0.00    -0.228 NA
ENDROOT
BRANCH   1   6
HETATM    6  N   UNL     1      42.162 -10.102   8.113  1.00  0.00    -0.287 N 
HETATM    7  C   UNL     1      42.122  -8.748   7.975  1.00  0.00     0.326 C 
HETATM    8  N   UNL     1      41.788  -8.029   9.090  1.00  0.00    -0.309 N 
HETATM    9  O   UNL     1      42.272  -8.131   6.922  1.00  0.00    -0.247 OA
HETATM   10  H   UNL     1      41.515  -7.083   8.846  1.00  0.00     0.170 HD
HETATM   11  H   UNL     1      41.649 -10.528   8.868  1.00  0.00     0.172 HD
BRANCH   8  12
HETATM   12  C   UNL     1      41.888  -8.317  10.462  1.00  0.00     0.036 A 
HETATM   13  C   UNL     1      40.877  -8.932  11.208  1.00  0.00     0.032 A 
HETATM   14  C   UNL     1      41.080  -9.224  12.562  1.00  0.00     0.044 A 
HETATM   15  C   UNL     1      42.294  -8.912  13.161  1.00  0.00     0.116 A 
HETATM   16  C   UNL     1      43.315  -8.321  12.432  1.00  0.00     0.044 A 
HETATM   17  F   UNL     1      42.485  -9.200  14.455  1.00  0.00    -0.206 F 
HETATM   18  C   UNL     1      43.116  -8.033  11.079  1.00  0.00     0.032 A 
ENDBRANCH   8  12
ENDBRANCH   1   6
BRANCH   4  19
HETATM   19  C   UNL     1      42.089 -12.862   4.113  1.00  0.00     0.163 C 
BRANCH  19  20
HETATM   20  C   UNL     1      42.008 -14.379   4.202  1.00  0.00     0.227 C 
HETATM   21  N   UNL     1      43.150 -15.045   3.795  1.00  0.00    -0.327 N 
HETATM   22  H   UNL     1      43.842 -14.479   3.294  1.00  0.00     0.169 HD
HETATM   23  O   UNL     1      41.007 -14.908   4.683  1.00  0.00    -0.273 OA
BRANCH  21  24
HETATM   24  C   UNL     1      43.437 -16.421   3.913  1.00  0.00     0.036 A 
HETATM   25  C   UNL     1      43.238 -17.351   2.888  1.00  0.00     0.056 A 
HETATM   26  C   UNL     1      43.521 -18.703   3.104  1.00  0.00     0.074 A 
HETATM   27 CL   UNL     1      43.249 -19.840   1.838  1.00  0.00    -0.081 Cl
HETATM   28  C   UNL     1      44.010 -19.127   4.337  1.00  0.00     0.138 A 
HETATM   29  F   UNL     1      44.286 -20.421   4.561  1.00  0.00    -0.204 F 
HETATM   30  C   UNL     1      44.213 -18.214   5.363  1.00  0.00     0.046 A 
HETATM   31  C   UNL     1      43.922 -16.865   5.151  1.00  0.00     0.032 A 
ENDBRANCH  21  24
ENDBRANCH  19  20
ENDBRANCH   4  19
TORSDOF 5
ENDMDL
MODEL 10
REMARK VINA RESULT:      -8.1      1.967      2.209
REMARK  5 active torsions:
REMARK  status: ('A' for Active; 'I' for Inactive)
REMARK    1  A    between atoms: C_2  and  N_3 
REMARK       I    between atoms: N_3  and  C_4 
REMARK       I    between atoms: C_4  and  N_5 
REMARK    2  A    between atoms: N_5  and  C_6 
REMARK    3  A    between atoms: C_9  and  C_10 
REMARK    4  A    between atoms: C_10  and  C_11 
REMARK       I    between atoms: C_11  and  N_12 
REMARK    5  A    between atoms: N_12  and  C_13 
ROOT
HETATM    1  C   UNL     1      42.170 -12.140   5.880  1.00  0.00     0.174 A 
HETATM    2  S   UNL     1      43.626 -12.244   6.760  1.00  0.00    -0.062 SA
HETATM    3  C   UNL     1      43.455 -10.592   7.197  1.00  0.00     0.081 A 
HETATM    4  C   UNL     1      42.287 -10.078   6.661  1.00  0.00     0.052 A 
HETATM    5  N   UNL     1      41.555 -10.986   5.907  1.00  0.00    -0.228 NA
ENDROOT
BRANCH   1   6
HETATM    6  N   UNL     1      41.789 -13.296   5.265  1.00  0.00    -0.287 N 
HETATM    7  C   UNL     1      40.722 -14.021   5.699  1.00  0.00     0.326 C 
HETATM    8  N   UNL     1      40.495 -15.215   5.069  1.00  0.00    -0.309 N 
HETATM    9  O   UNL     1      39.901 -13.655   6.539  1.00  0.00    -0.247 OA
HETATM   10  H   UNL     1      39.555 -15.551   5.251  1.00  0.00     0.170 HD
HETATM   11  H   UNL     1      42.148 -13.469   4.340  1.00  0.00     0.172 HD
BRANCH   8  12
HETATM   12  C   UNL     1      41.346 -16.084   4.365  1.00  0.00     0.036 A 
HETATM   13  C   UNL     1      41.278 -16.296   2.984  1.00  0.00     0.032 A 
HETATM   14  C   UNL     1      42.196 -17.146   2.357  1.00  0.00     0.044 A 
HETATM   15  C   UNL     1      43.183 -17.771   3.108  1.00  0.00     0.116 A 
HETATM   16  C   UNL     1      43.278 -17.556   4.476  1.00  0.00     0.044 A 
HETATM   17  F   UNL     1      44.063 -18.578   2.502  1.00  0.00    -0.206 F 
HETATM   18  C   UNL     1      42.366 -16.704   5.103  1.00  0.00     0.032 A 
ENDBRANCH   8  12
ENDBRANCH   1   6
BRANCH   4  19
HETATM   19  C   UNL     1      41.733  -8.705   6.858  1.00  0.00     0.163 C 
BRANCH  19  20
HETATM   20  C   UNL     1      42.281  -7.970   8.073  1.00  0.00     0.227 C 
HETATM   21  N   UNL     1      41.723  -8.350   9.280  1.00  0.00    -0.327 N 
HETATM   22  H   UNL     1      40.875  -8.923   9.219  1.00  0.00     0.169 HD
HETATM   23  O   UNL     1      43.205  -7.169   7.935  1.00  0.00    -0.273 OA
BRANCH  21  24
HETATM   24  C   UNL     1      42.131  -7.976  10.577  1.00  0.00     0.036 A 
HETATM   25  C   UNL     1      41.868  -6.727  11.149  1.00  0.00     0.056 A 
HETATM   26  C   UNL     1      42.339  -6.431  12.432  1.00  0.00     0.074 A 
HETATM   27 CL   UNL     1      42.025  -4.880  13.113  1.00  0.00    -0.081 Cl
HETATM   28  C   UNL     1      43.063  -7.380  13.148  1.00  0.00     0.138 A 
HETATM   29  F   UNL     1      43.522  -7.112  14.380  1.00  0.00    -0.204 F 
HETATM   30  C   UNL     1      43.330  -8.624  12.593  1.00  0.00     0.046 A 
HETATM   31  C   UNL     1      42.869  -8.918  11.308  1.00  0.00     0.032 A 
ENDBRANCH  21  24
ENDBRANCH  19  20
ENDBRANCH   4  19
TORSDOF 5
ENDMDL
