MODEL 1
REMARK VINA RESULT:      -7.5      0.000      0.000
REMARK  6 active torsions:
REMARK  status: ('A' for Active; 'I' for Inactive)
REMARK    1  A    between atoms: C_9  and  C_10 
REMARK       I    between atoms: C_10  and  N_11 
REMARK    2  A    between atoms: N_11  and  C_12 
REMARK    3  A    between atoms: C_12  and  C_13 
REMARK    4  A    between atoms: C_13  and  O_14 
REMARK    5  A    between atoms: C_13  and  C_15 
REMARK    6  A    between atoms: C_18  and  O_19 
ROOT
HETATM    1  C   UNL     1      42.701 -15.229   2.567  1.00  0.00     0.258 C 
HETATM    2  N   UNL     1      41.357 -15.076   2.298  1.00  0.00    -0.350 N 
HETATM    3  O   UNL     1      43.571 -14.589   1.982  1.00  0.00    -0.267 OA
HETATM    4  H   UNL     1      40.718 -15.566   2.923  1.00  0.00     0.163 HD
ENDROOT
BRANCH   2   5
HETATM    5  C   UNL     1      40.818 -13.992   1.461  1.00  0.00     0.114 C 
HETATM    6  C   UNL     1      40.287 -14.562   0.144  1.00  0.00     0.035 C 
BRANCH   5   7
HETATM    7  C   UNL     1      39.795 -13.107   2.234  1.00  0.00     0.173 C 
BRANCH   7   8
HETATM    8  O   UNL     1      38.667 -13.927   2.588  1.00  0.00    -0.389 OA
HETATM    9  H   UNL     1      38.270 -14.190   1.739  1.00  0.00     0.210 HD
ENDBRANCH   7   8
BRANCH   7  10
HETATM   10  C   UNL     1      40.341 -12.462   3.490  1.00  0.00    -0.028 A 
HETATM   11  C   UNL     1      41.506 -11.683   3.413  1.00  0.00     0.012 A 
HETATM   12  C   UNL     1      42.043 -11.088   4.556  1.00  0.00     0.037 A 
HETATM   13  C   UNL     1      41.428 -11.252   5.797  1.00  0.00     0.068 A 
HETATM   14  C   UNL     1      40.273 -12.030   5.887  1.00  0.00     0.037 A 
HETATM   15  C   UNL     1      39.735 -12.632   4.741  1.00  0.00     0.012 A 
BRANCH  13  16
HETATM   16  O   UNL     1      42.053 -10.611   6.830  1.00  0.00    -0.356 OA
HETATM   17  C   UNL     1      43.427 -10.911   7.032  1.00  0.00     0.210 C 
ENDBRANCH  13  16
ENDBRANCH   7  10
ENDBRANCH   5   7
ENDBRANCH   2   5
BRANCH   1  18
HETATM   18  C   UNL     1      43.030 -16.196   3.597  1.00  0.00     0.105 A 
HETATM   19  C   UNL     1      43.288 -17.548   3.450  1.00  0.00     0.169 A 
HETATM   20  N   UNL     1      43.323 -18.350   2.337  1.00  0.00    -0.233 NA
HETATM   21  N   UNL     1      43.507 -18.051   4.738  1.00  0.00    -0.219 N 
HETATM   22  C   UNL     1      43.560 -19.615   2.543  1.00  0.00     0.035 A 
HETATM   23  C   UNL     1      43.607 -20.545   1.358  1.00  0.00     0.070 C 
HETATM   24  C   UNL     1      43.794 -20.240   3.883  1.00  0.00     0.053 A 
HETATM   25  C   UNL     1      43.759 -19.414   4.944  1.00  0.00     0.036 A 
HETATM   26  C   UNL     1      43.968 -19.886   6.350  1.00  0.00     0.070 C 
HETATM   27  N   UNL     1      43.432 -17.075   5.675  1.00  0.00    -0.170 NA
HETATM   28  C   UNL     1      43.137 -15.964   4.994  1.00  0.00     0.071 A 
HETATM   29  C   UNL     1      42.962 -14.679   5.720  1.00  0.00     0.073 C 
ENDBRANCH   1  18
TORSDOF 6
ENDMDL
MODEL 2
REMARK VINA RESULT:      -7.4      2.255      5.073
REMARK  6 active torsions:
REMARK  status: ('A' for Active; 'I' for Inactive)
REMARK    1  A    between atoms: C_9  and  C_10 
REMARK       I    between atoms: C_10  and  N_11 
REMARK    2  A    between atoms: N_11  and  C_12 
REMARK    3  A    between atoms: C_12  and  C_13 
REMARK    4  A    between atoms: C_13  and  O_14 
REMARK    5  A    between atoms: C_13  and  C_15 
REMARK    6  A    between atoms: C_18  and  O_19 
ROOT
HETATM    1  C   UNL     1      40.899 -13.662   3.774  1.00  0.00     0.258 C 
HETATM    2  N   UNL     1      41.585 -12.583   3.257  1.00  0.00    -0.350 N 
HETATM    3  O   UNL     1      39.940 -13.537   4.530  1.00  0.00    -0.267 OA
HETATM    4  H   UNL     1      42.284 -12.797   2.547  1.00  0.00     0.163 HD
ENDROOT
BRANCH   2   5
HETATM    5  C   UNL     1      41.111 -11.194   3.370  1.00  0.00     0.114 C 
HETATM    6  C   UNL     1      41.948 -10.439   4.404  1.00  0.00     0.035 C 
BRANCH   5   7
HETATM    7  C   UNL     1      41.020 -10.490   1.984  1.00  0.00     0.173 C 
BRANCH   7   8
HETATM    8  O   UNL     1      42.356 -10.297   1.487  1.00  0.00    -0.389 OA
HETATM    9  H   UNL     1      42.550 -11.098   0.969  1.00  0.00     0.210 HD
ENDBRANCH   7   8
BRANCH   7  10
HETATM   10  C   UNL     1      40.217 -11.244   0.944  1.00  0.00    -0.028 A 
HETATM   11  C   UNL     1      40.884 -11.851  -0.131  1.00  0.00     0.012 A 
HETATM   12  C   UNL     1      40.170 -12.540  -1.114  1.00  0.00     0.037 A 
HETATM   13  C   UNL     1      38.781 -12.641  -1.043  1.00  0.00     0.068 A 
HETATM   14  C   UNL     1      38.107 -12.035   0.018  1.00  0.00     0.037 A 
HETATM   15  C   UNL     1      38.821 -11.339   1.004  1.00  0.00     0.012 A 
BRANCH  13  16
HETATM   16  O   UNL     1      38.209 -13.348  -2.064  1.00  0.00    -0.356 OA
HETATM   17  C   UNL     1      38.853 -14.556  -2.446  1.00  0.00     0.210 C 
ENDBRANCH  13  16
ENDBRANCH   7  10
ENDBRANCH   5   7
ENDBRANCH   2   5
BRANCH   1  18
HETATM   18  C   UNL     1      41.380 -14.968   3.363  1.00  0.00     0.105 A 
HETATM   19  C   UNL     1      42.333 -15.762   3.979  1.00  0.00     0.169 A 
HETATM   20  N   UNL     1      43.071 -15.574   5.121  1.00  0.00    -0.233 NA
HETATM   21  N   UNL     1      42.478 -16.900   3.177  1.00  0.00    -0.219 N 
HETATM   22  C   UNL     1      43.929 -16.510   5.415  1.00  0.00     0.035 A 
HETATM   23  C   UNL     1      44.771 -16.355   6.656  1.00  0.00     0.070 C 
HETATM   24  C   UNL     1      44.158 -17.751   4.611  1.00  0.00     0.053 A 
HETATM   25  C   UNL     1      43.406 -17.897   3.506  1.00  0.00     0.036 A 
HETATM   26  C   UNL     1      43.520 -19.079   2.593  1.00  0.00     0.070 C 
HETATM   27  N   UNL     1      41.641 -16.870   2.112  1.00  0.00    -0.170 NA
HETATM   28  C   UNL     1      40.988 -15.709   2.217  1.00  0.00     0.071 A 
HETATM   29  C   UNL     1      39.982 -15.333   1.189  1.00  0.00     0.073 C 
ENDBRANCH   1  18
TORSDOF 6
ENDMDL
MODEL 3
REMARK VINA RESULT:      -7.4      3.129      7.807
REMARK  6 active torsions:
REMARK  status: ('A' for Active; 'I' for Inactive)
REMARK    1  A    between atoms: C_9  and  C_10 
REMARK       I    between atoms: C_10  and  N_11 
REMARK    2  A    between atoms: N_11  and  C_12 
REMARK    3  A    between atoms: C_12  and  C_13 
REMARK    4  A    between atoms: C_13  and  O_14 
REMARK    5  A    between atoms: C_13  and  C_15 
REMARK    6  A    between atoms: C_18  and  O_19 
ROOT
HETATM    1  C   UNL     1      40.886 -12.658   1.689  1.00  0.00     0.258 C 
HETATM    2  N   UNL     1      40.492 -13.866   2.224  1.00  0.00    -0.350 N 
HETATM    3  O   UNL     1      41.965 -12.136   1.953  1.00  0.00    -0.267 OA
HETATM    4  H   UNL     1      39.634 -14.265   1.844  1.00  0.00     0.163 HD
ENDROOT
BRANCH   2   5
HETATM    5  C   UNL     1      41.398 -14.751   2.975  1.00  0.00     0.114 C 
HETATM    6  C   UNL     1      40.608 -15.546   4.017  1.00  0.00     0.035 C 
BRANCH   5   7
HETATM    7  C   UNL     1      42.276 -15.629   2.033  1.00  0.00     0.173 C 
BRANCH   7   8
HETATM    8  O   UNL     1      43.320 -14.802   1.489  1.00  0.00    -0.389 OA
HETATM    9  H   UNL     1      44.101 -14.989   2.038  1.00  0.00     0.210 HD
ENDBRANCH   7   8
BRANCH   7  10
HETATM   10  C   UNL     1      42.906 -16.834   2.699  1.00  0.00    -0.028 A 
HETATM   11  C   UNL     1      43.571 -16.673   3.924  1.00  0.00     0.012 A 
HETATM   12  C   UNL     1      44.175 -17.762   4.555  1.00  0.00     0.037 A 
HETATM   13  C   UNL     1      44.126 -19.032   3.981  1.00  0.00     0.068 A 
HETATM   14  C   UNL     1      43.473 -19.202   2.760  1.00  0.00     0.037 A 
HETATM   15  C   UNL     1      42.870 -18.110   2.122  1.00  0.00     0.012 A 
BRANCH  13  16
HETATM   16  O   UNL     1      44.752 -20.008   4.706  1.00  0.00    -0.356 OA
HETATM   17  C   UNL     1      43.917 -20.958   5.356  1.00  0.00     0.210 C 
ENDBRANCH  13  16
ENDBRANCH   7  10
ENDBRANCH   5   7
ENDBRANCH   2   5
BRANCH   1  18
HETATM   18  C   UNL     1      39.942 -12.036   0.780  1.00  0.00     0.105 A 
HETATM   19  C   UNL     1      39.325 -12.594  -0.327  1.00  0.00     0.169 A 
HETATM   20  N   UNL     1      39.401 -13.851  -0.871  1.00  0.00    -0.233 NA
HETATM   21  N   UNL     1      38.543 -11.581  -0.896  1.00  0.00    -0.219 N 
HETATM   22  C   UNL     1      38.713 -14.052  -1.960  1.00  0.00     0.035 A 
HETATM   23  C   UNL     1      38.761 -15.413  -2.605  1.00  0.00     0.070 C 
HETATM   24  C   UNL     1      37.862 -13.027  -2.642  1.00  0.00     0.053 A 
HETATM   25  C   UNL     1      37.811 -11.812  -2.068  1.00  0.00     0.036 A 
HETATM   26  C   UNL     1      37.010 -10.679  -2.632  1.00  0.00     0.070 C 
HETATM   27  N   UNL     1      38.617 -10.432  -0.182  1.00  0.00    -0.170 NA
HETATM   28  C   UNL     1      39.462 -10.699   0.818  1.00  0.00     0.071 A 
HETATM   29  C   UNL     1      39.794  -9.641   1.807  1.00  0.00     0.073 C 
ENDBRANCH   1  18
TORSDOF 6
ENDMDL
MODEL 4
REMARK VINA RESULT:      -7.3      2.603      7.176
REMARK  6 active torsions:
REMARK  status: ('A' for Active; 'I' for Inactive)
REMARK    1  A    between atoms: C_9  and  C_10 
REMARK       I    between atoms: C_10  and  N_11 
REMARK    2  A    between atoms: N_11  and  C_12 
REMARK    3  A    between atoms: C_12  and  C_13 
REMARK    4  A    between atoms: C_13  and  O_14 
REMARK    5  A    between atoms: C_13  and  C_15 
REMARK    6  A    between atoms: C_18  and  O_19 
ROOT
HETATM    1  C   UNL     1      41.248 -14.435   4.540  1.00  0.00     0.258 C 
HETATM    2  N   UNL     1      41.410 -14.282   3.179  1.00  0.00    -0.350 N 
HETATM    3  O   UNL     1      40.734 -15.432   5.039  1.00  0.00    -0.267 OA
HETATM    4  H   UNL     1      41.955 -13.474   2.882  1.00  0.00     0.163 HD
ENDROOT
BRANCH   2   5
HETATM    5  C   UNL     1      41.197 -15.372   2.213  1.00  0.00     0.114 C 
HETATM    6  C   UNL     1      40.251 -14.910   1.103  1.00  0.00     0.035 C 
BRANCH   5   7
HETATM    7  C   UNL     1      42.540 -15.971   1.699  1.00  0.00     0.173 C 
BRANCH   7   8
HETATM    8  O   UNL     1      43.487 -14.898   1.553  1.00  0.00    -0.389 OA
HETATM    9  H   UNL     1      44.211 -15.116   2.165  1.00  0.00     0.210 HD
ENDBRANCH   7   8
BRANCH   7  10
HETATM   10  C   UNL     1      43.142 -17.033   2.596  1.00  0.00    -0.028 A 
HETATM   11  C   UNL     1      43.152 -18.369   2.169  1.00  0.00     0.012 A 
HETATM   12  C   UNL     1      43.685 -19.372   2.981  1.00  0.00     0.037 A 
HETATM   13  C   UNL     1      44.223 -19.064   4.230  1.00  0.00     0.068 A 
HETATM   14  C   UNL     1      44.211 -17.739   4.668  1.00  0.00     0.037 A 
HETATM   15  C   UNL     1      43.672 -16.731   3.857  1.00  0.00     0.012 A 
BRANCH  13  16
HETATM   16  O   UNL     1      44.716 -20.138   4.917  1.00  0.00    -0.356 OA
HETATM   17  C   UNL     1      43.789 -21.158   5.263  1.00  0.00     0.210 C 
ENDBRANCH  13  16
ENDBRANCH   7  10
ENDBRANCH   5   7
ENDBRANCH   2   5
BRANCH   1  18
HETATM   18  C   UNL     1      41.730 -13.338   5.357  1.00  0.00     0.105 A 
HETATM   19  C   UNL     1      41.245 -12.042   5.424  1.00  0.00     0.169 A 
HETATM   20  N   UNL     1      40.200 -11.430   4.778  1.00  0.00    -0.233 NA
HETATM   21  N   UNL     1      42.073 -11.355   6.320  1.00  0.00    -0.219 N 
HETATM   22  C   UNL     1      40.025 -10.164   5.034  1.00  0.00     0.035 A 
HETATM   23  C   UNL     1      38.895  -9.437   4.352  1.00  0.00     0.070 C 
HETATM   24  C   UNL     1      40.867  -9.350   5.967  1.00  0.00     0.053 A 
HETATM   25  C   UNL     1      41.873  -9.994   6.584  1.00  0.00     0.036 A 
HETATM   26  C   UNL     1      42.807  -9.318   7.540  1.00  0.00     0.070 C 
HETATM   27  N   UNL     1      43.027 -12.165   6.839  1.00  0.00    -0.170 NA
HETATM   28  C   UNL     1      42.829 -13.352   6.257  1.00  0.00     0.071 A 
HETATM   29  C   UNL     1      43.721 -14.494   6.587  1.00  0.00     0.073 C 
ENDBRANCH   1  18
TORSDOF 6
ENDMDL
MODEL 5
REMARK VINA RESULT:      -7.3      1.884      4.165
REMARK  6 active torsions:
REMARK  status: ('A' for Active; 'I' for Inactive)
REMARK    1  A    between atoms: C_9  and  C_10 
REMARK       I    between atoms: C_10  and  N_11 
REMARK    2  A    between atoms: N_11  and  C_12 
REMARK    3  A    between atoms: C_12  and  C_13 
REMARK    4  A    between atoms: C_13  and  O_14 
REMARK    5  A    between atoms: C_13  and  C_15 
REMARK    6  A    between atoms: C_18  and  O_19 
ROOT
HETATM    1  C   UNL     1      40.698 -13.944   3.584  1.00  0.00     0.258 C 
HETATM    2  N   UNL     1      41.516 -13.095   4.299  1.00  0.00    -0.350 N 
HETATM    3  O   UNL     1      39.557 -13.640   3.249  1.00  0.00    -0.267 OA
HETATM    4  H   UNL     1      42.481 -13.400   4.418  1.00  0.00     0.163 HD
ENDROOT
BRANCH   2   5
HETATM    5  C   UNL     1      41.199 -11.678   4.537  1.00  0.00     0.114 C 
HETATM    6  C   UNL     1      40.355 -11.535   5.805  1.00  0.00     0.035 C 
BRANCH   5   7
HETATM    7  C   UNL     1      42.472 -10.779   4.512  1.00  0.00     0.173 C 
BRANCH   7   8
HETATM    8  O   UNL     1      42.061  -9.421   4.276  1.00  0.00    -0.389 OA
HETATM    9  H   UNL     1      41.870  -9.058   5.158  1.00  0.00     0.210 HD
ENDBRANCH   7   8
BRANCH   7  10
HETATM   10  C   UNL     1      43.300 -10.824   5.779  1.00  0.00    -0.028 A 
HETATM   11  C   UNL     1      43.024  -9.917   6.814  1.00  0.00     0.012 A 
HETATM   12  C   UNL     1      43.781  -9.923   7.986  1.00  0.00     0.037 A 
HETATM   13  C   UNL     1      44.823 -10.835   8.155  1.00  0.00     0.068 A 
HETATM   14  C   UNL     1      45.111 -11.736   7.129  1.00  0.00     0.037 A 
HETATM   15  C   UNL     1      44.356 -11.729   5.949  1.00  0.00     0.012 A 
BRANCH  13  16
HETATM   16  O   UNL     1      45.477 -10.737   9.351  1.00  0.00    -0.356 OA
HETATM   17  C   UNL     1      44.764 -10.135  10.423  1.00  0.00     0.210 C 
ENDBRANCH  13  16
ENDBRANCH   7  10
ENDBRANCH   5   7
ENDBRANCH   2   5
BRANCH   1  18
HETATM   18  C   UNL     1      41.274 -15.231   3.241  1.00  0.00     0.105 A 
HETATM   19  C   UNL     1      42.266 -15.929   3.909  1.00  0.00     0.169 A 
HETATM   20  N   UNL     1      42.968 -15.640   5.052  1.00  0.00    -0.233 NA
HETATM   21  N   UNL     1      42.504 -17.089   3.162  1.00  0.00    -0.219 N 
HETATM   22  C   UNL     1      43.881 -16.501   5.403  1.00  0.00     0.035 A 
HETATM   23  C   UNL     1      44.686 -16.234   6.649  1.00  0.00     0.070 C 
HETATM   24  C   UNL     1      44.209 -17.759   4.661  1.00  0.00     0.053 A 
HETATM   25  C   UNL     1      43.491 -18.005   3.551  1.00  0.00     0.036 A 
HETATM   26  C   UNL     1      43.703 -19.216   2.696  1.00  0.00     0.070 C 
HETATM   27  N   UNL     1      41.687 -17.165   2.083  1.00  0.00    -0.170 NA
HETATM   28  C   UNL     1      40.955 -16.048   2.124  1.00  0.00     0.071 A 
HETATM   29  C   UNL     1      39.947 -15.787   1.064  1.00  0.00     0.073 C 
ENDBRANCH   1  18
TORSDOF 6
ENDMDL
MODEL 6
REMARK VINA RESULT:      -7.3      2.901      6.543
REMARK  6 active torsions:
REMARK  status: ('A' for Active; 'I' for Inactive)
REMARK    1  A    between atoms: C_9  and  C_10 
REMARK       I    between atoms: C_10  and  N_11 
REMARK    2  A    between atoms: N_11  and  C_12 
REMARK    3  A    between atoms: C_12  and  C_13 
REMARK    4  A    between atoms: C_13  and  O_14 
REMARK    5  A    between atoms: C_13  and  C_15 
REMARK    6  A    between atoms: C_18  and  O_19 
ROOT
HETATM    1  C   UNL     1      41.347 -12.776   2.357  1.00  0.00     0.258 C 
HETATM    2  N   UNL     1      40.466 -12.380   3.341  1.00  0.00    -0.350 N 
HETATM    3  O   UNL     1      42.549 -12.534   2.407  1.00  0.00    -0.267 OA
HETATM    4  H   UNL     1      39.515 -12.738   3.259  1.00  0.00     0.163 HD
ENDROOT
BRANCH   2   5
HETATM    5  C   UNL     1      40.896 -11.835   4.639  1.00  0.00     0.114 C 
HETATM    6  C   UNL     1      40.387 -10.401   4.799  1.00  0.00     0.035 C 
BRANCH   5   7
HETATM    7  C   UNL     1      40.527 -12.779   5.823  1.00  0.00     0.173 C 
BRANCH   7   8
HETATM    8  O   UNL     1      39.114 -13.041   5.769  1.00  0.00    -0.389 OA
HETATM    9  H   UNL     1      39.039 -14.007   5.684  1.00  0.00     0.210 HD
ENDBRANCH   7   8
BRANCH   7  10
HETATM   10  C   UNL     1      41.267 -14.101   5.830  1.00  0.00    -0.028 A 
HETATM   11  C   UNL     1      40.567 -15.279   6.132  1.00  0.00     0.012 A 
HETATM   12  C   UNL     1      41.224 -16.510   6.162  1.00  0.00     0.037 A 
HETATM   13  C   UNL     1      42.589 -16.593   5.887  1.00  0.00     0.068 A 
HETATM   14  C   UNL     1      43.296 -15.427   5.592  1.00  0.00     0.037 A 
HETATM   15  C   UNL     1      42.640 -14.190   5.567  1.00  0.00     0.012 A 
BRANCH  13  16
HETATM   16  O   UNL     1      43.104 -17.859   5.944  1.00  0.00    -0.356 OA
HETATM   17  C   UNL     1      44.019 -18.224   4.920  1.00  0.00     0.210 C 
ENDBRANCH  13  16
ENDBRANCH   7  10
ENDBRANCH   5   7
ENDBRANCH   2   5
BRANCH   1  18
HETATM   18  C   UNL     1      40.764 -13.509   1.249  1.00  0.00     0.105 A 
HETATM   19  C   UNL     1      40.589 -13.087  -0.058  1.00  0.00     0.169 A 
HETATM   20  N   UNL     1      40.910 -11.908  -0.682  1.00  0.00    -0.233 NA
HETATM   21  N   UNL     1      39.945 -14.134  -0.728  1.00  0.00    -0.219 N 
HETATM   22  C   UNL     1      40.570 -11.807  -1.937  1.00  0.00     0.035 A 
HETATM   23  C   UNL     1      40.893 -10.532  -2.673  1.00  0.00     0.070 C 
HETATM   24  C   UNL     1      39.870 -12.868  -2.727  1.00  0.00     0.053 A 
HETATM   25  C   UNL     1      39.583 -14.010  -2.076  1.00  0.00     0.036 A 
HETATM   26  C   UNL     1      38.882 -15.162  -2.726  1.00  0.00     0.070 C 
HETATM   27  N   UNL     1      39.740 -15.197   0.086  1.00  0.00    -0.170 NA
HETATM   28  C   UNL     1      40.222 -14.822   1.274  1.00  0.00     0.071 A 
HETATM   29  C   UNL     1      40.149 -15.755   2.429  1.00  0.00     0.073 C 
ENDBRANCH   1  18
TORSDOF 6
ENDMDL
MODEL 7
REMARK VINA RESULT:      -7.3      2.649      7.480
REMARK  6 active torsions:
REMARK  status: ('A' for Active; 'I' for Inactive)
REMARK    1  A    between atoms: C_9  and  C_10 
REMARK       I    between atoms: C_10  and  N_11 
REMARK    2  A    between atoms: N_11  and  C_12 
REMARK    3  A    between atoms: C_12  and  C_13 
REMARK    4  A    between atoms: C_13  and  O_14 
REMARK    5  A    between atoms: C_13  and  C_15 
REMARK    6  A    between atoms: C_18  and  O_19 
ROOT
HETATM    1  C   UNL     1      39.847 -12.964   5.066  1.00  0.00     0.258 C 
HETATM    2  N   UNL     1      40.819 -13.884   4.732  1.00  0.00    -0.350 N 
HETATM    3  O   UNL     1      39.408 -12.848   6.206  1.00  0.00    -0.267 OA
HETATM    4  H   UNL     1      41.196 -13.813   3.788  1.00  0.00     0.163 HD
ENDROOT
BRANCH   2   5
HETATM    5  C   UNL     1      41.581 -14.653   5.730  1.00  0.00     0.114 C 
HETATM    6  C   UNL     1      40.823 -15.929   6.098  1.00  0.00     0.035 C 
BRANCH   5   7
HETATM    7  C   UNL     1      43.056 -14.891   5.286  1.00  0.00     0.173 C 
BRANCH   7   8
HETATM    8  O   UNL     1      43.880 -14.929   6.464  1.00  0.00    -0.389 OA
HETATM    9  H   UNL     1      43.360 -15.424   7.121  1.00  0.00     0.210 HD
ENDBRANCH   7   8
BRANCH   7  10
HETATM   10  C   UNL     1      43.279 -16.161   4.494  1.00  0.00    -0.028 A 
HETATM   11  C   UNL     1      43.986 -17.223   5.081  1.00  0.00     0.012 A 
HETATM   12  C   UNL     1      44.222 -18.400   4.370  1.00  0.00     0.037 A 
HETATM   13  C   UNL     1      43.755 -18.547   3.063  1.00  0.00     0.068 A 
HETATM   14  C   UNL     1      43.057 -17.496   2.468  1.00  0.00     0.037 A 
HETATM   15  C   UNL     1      42.823 -16.310   3.178  1.00  0.00     0.012 A 
BRANCH  13  16
HETATM   16  O   UNL     1      44.048 -19.751   2.487  1.00  0.00    -0.356 OA
HETATM   17  C   UNL     1      43.785 -20.914   3.261  1.00  0.00     0.210 C 
ENDBRANCH  13  16
ENDBRANCH   7  10
ENDBRANCH   5   7
ENDBRANCH   2   5
BRANCH   1  18
HETATM   18  C   UNL     1      39.373 -12.129   3.979  1.00  0.00     0.105 A 
HETATM   19  C   UNL     1      39.356 -12.416   2.624  1.00  0.00     0.169 A 
HETATM   20  N   UNL     1      39.752 -13.530   1.926  1.00  0.00    -0.233 NA
HETATM   21  N   UNL     1      38.849 -11.278   1.985  1.00  0.00    -0.219 N 
HETATM   22  C   UNL     1      39.642 -13.469   0.629  1.00  0.00     0.035 A 
HETATM   23  C   UNL     1      40.064 -14.661  -0.189  1.00  0.00     0.070 C 
HETATM   24  C   UNL     1      39.121 -12.292  -0.136  1.00  0.00     0.053 A 
HETATM   25  C   UNL     1      38.738 -11.227   0.589  1.00  0.00     0.036 A 
HETATM   26  C   UNL     1      38.202  -9.972  -0.028  1.00  0.00     0.070 C 
HETATM   27  N   UNL     1      38.517 -10.312   2.876  1.00  0.00    -0.170 NA
HETATM   28  C   UNL     1      38.839 -10.816   4.071  1.00  0.00     0.071 A 
HETATM   29  C   UNL     1      38.621 -10.006   5.297  1.00  0.00     0.073 C 
ENDBRANCH   1  18
TORSDOF 6
ENDMDL
MODEL 8
REMARK VINA RESULT:      -7.2      2.350      5.636
REMARK  6 active torsions:
REMARK  status: ('A' for Active; 'I' for Inactive)
REMARK    1  A    between atoms: C_9  and  C_10 
REMARK       I    between atoms: C_10  and  N_11 
REMARK    2  A    between atoms: N_11  and  C_12 
REMARK    3  A    between atoms: C_12  and  C_13 
REMARK    4  A    between atoms: C_13  and  O_14 
REMARK    5  A    between atoms: C_13  and  C_15 
REMARK    6  A    between atoms: C_18  and  O_19 
ROOT
HETATM    1  C   UNL     1      40.193 -12.395   3.405  1.00  0.00     0.258 C 
HETATM    2  N   UNL     1      40.532 -12.566   2.080  1.00  0.00    -0.350 N 
HETATM    3  O   UNL     1      39.051 -12.558   3.824  1.00  0.00    -0.267 OA
HETATM    4  H   UNL     1      41.527 -12.524   1.864  1.00  0.00     0.163 HD
ENDROOT
BRANCH   2   5
HETATM    5  C   UNL     1      39.629 -13.170   1.086  1.00  0.00     0.114 C 
HETATM    6  C   UNL     1      39.192 -12.116   0.067  1.00  0.00     0.035 C 
BRANCH   5   7
HETATM    7  C   UNL     1      40.231 -14.460   0.453  1.00  0.00     0.173 C 
BRANCH   7   8
HETATM    8  O   UNL     1      40.989 -14.081  -0.709  1.00  0.00    -0.389 OA
HETATM    9  H   UNL     1      40.821 -14.784  -1.360  1.00  0.00     0.210 HD
ENDBRANCH   7   8
BRANCH   7  10
HETATM   10  C   UNL     1      41.125 -15.259   1.378  1.00  0.00    -0.028 A 
HETATM   11  C   UNL     1      42.507 -15.297   1.136  1.00  0.00     0.012 A 
HETATM   12  C   UNL     1      43.355 -16.037   1.961  1.00  0.00     0.037 A 
HETATM   13  C   UNL     1      42.845 -16.750   3.046  1.00  0.00     0.068 A 
HETATM   14  C   UNL     1      41.472 -16.725   3.293  1.00  0.00     0.037 A 
HETATM   15  C   UNL     1      40.618 -15.987   2.463  1.00  0.00     0.012 A 
BRANCH  13  16
HETATM   16  O   UNL     1      43.785 -17.425   3.775  1.00  0.00    -0.356 OA
HETATM   17  C   UNL     1      43.995 -18.790   3.441  1.00  0.00     0.210 C 
ENDBRANCH  13  16
ENDBRANCH   7  10
ENDBRANCH   5   7
ENDBRANCH   2   5
BRANCH   1  18
HETATM   18  C   UNL     1      41.280 -12.012   4.287  1.00  0.00     0.105 A 
HETATM   19  C   UNL     1      41.970 -12.806   5.189  1.00  0.00     0.169 A 
HETATM   20  N   UNL     1      41.853 -14.137   5.502  1.00  0.00    -0.233 NA
HETATM   21  N   UNL     1      42.889 -11.967   5.830  1.00  0.00    -0.219 N 
HETATM   22  C   UNL     1      42.639 -14.581   6.442  1.00  0.00     0.035 A 
HETATM   23  C   UNL     1      42.553 -16.034   6.831  1.00  0.00     0.070 C 
HETATM   24  C   UNL     1      43.641 -13.755   7.187  1.00  0.00     0.053 A 
HETATM   25  C   UNL     1      43.726 -12.458   6.841  1.00  0.00     0.036 A 
HETATM   26  C   UNL     1      44.674 -11.501   7.496  1.00  0.00     0.070 C 
HETATM   27  N   UNL     1      42.829 -10.701   5.351  1.00  0.00    -0.170 NA
HETATM   28  C   UNL     1      41.859 -10.724   4.432  1.00  0.00     0.071 A 
HETATM   29  C   UNL     1      41.506  -9.479   3.700  1.00  0.00     0.073 C 
ENDBRANCH   1  18
TORSDOF 6
ENDMDL
MODEL 9
REMARK VINA RESULT:      -7.2      2.839      7.473
REMARK  6 active torsions:
REMARK  status: ('A' for Active; 'I' for Inactive)
REMARK    1  A    between atoms: C_9  and  C_10 
REMARK       I    between atoms: C_10  and  N_11 
REMARK    2  A    between atoms: N_11  and  C_12 
REMARK    3  A    between atoms: C_12  and  C_13 
REMARK    4  A    between atoms: C_13  and  O_14 
REMARK    5  A    between atoms: C_13  and  C_15 
REMARK    6  A    between atoms: C_18  and  O_19 
ROOT
HETATM    1  C   UNL     1      41.976 -13.607   2.095  1.00  0.00     0.258 C 
HETATM    2  N   UNL     1      41.398 -13.370   3.325  1.00  0.00    -0.350 N 
HETATM    3  O   UNL     1      43.156 -13.917   1.965  1.00  0.00    -0.267 OA
HETATM    4  H   UNL     1      40.387 -13.239   3.326  1.00  0.00     0.163 HD
ENDROOT
BRANCH   2   5
HETATM    5  C   UNL     1      42.062 -13.679   4.602  1.00  0.00     0.114 C 
HETATM    6  C   UNL     1      42.104 -12.431   5.486  1.00  0.00     0.035 C 
BRANCH   5   7
HETATM    7  C   UNL     1      41.448 -14.932   5.295  1.00  0.00     0.173 C 
BRANCH   7   8
HETATM    8  O   UNL     1      40.164 -15.193   4.700  1.00  0.00    -0.389 OA
HETATM    9  H   UNL     1      40.342 -15.832   3.988  1.00  0.00     0.210 HD
ENDBRANCH   7   8
BRANCH   7  10
HETATM   10  C   UNL     1      42.293 -16.185   5.198  1.00  0.00    -0.028 A 
HETATM   11  C   UNL     1      42.687 -16.653   3.935  1.00  0.00     0.012 A 
HETATM   12  C   UNL     1      43.452 -17.813   3.812  1.00  0.00     0.037 A 
HETATM   13  C   UNL     1      43.845 -18.528   4.944  1.00  0.00     0.068 A 
HETATM   14  C   UNL     1      43.453 -18.076   6.204  1.00  0.00     0.037 A 
HETATM   15  C   UNL     1      42.680 -16.914   6.330  1.00  0.00     0.012 A 
BRANCH  13  16
HETATM   16  O   UNL     1      44.596 -19.640   4.681  1.00  0.00    -0.356 OA
HETATM   17  C   UNL     1      44.210 -20.843   5.333  1.00  0.00     0.210 C 
ENDBRANCH  13  16
ENDBRANCH   7  10
ENDBRANCH   5   7
ENDBRANCH   2   5
BRANCH   1  18
HETATM   18  C   UNL     1      41.094 -13.472   0.951  1.00  0.00     0.105 A 
HETATM   19  C   UNL     1      40.924 -12.371   0.127  1.00  0.00     0.169 A 
HETATM   20  N   UNL     1      41.517 -11.134   0.131  1.00  0.00    -0.233 NA
HETATM   21  N   UNL     1      39.934 -12.720  -0.799  1.00  0.00    -0.219 N 
HETATM   22  C   UNL     1      41.100 -10.290  -0.770  1.00  0.00     0.035 A 
HETATM   23  C   UNL     1      41.713  -8.914  -0.812  1.00  0.00     0.070 C 
HETATM   24  C   UNL     1      40.041 -10.573  -1.790  1.00  0.00     0.053 A 
HETATM   25  C   UNL     1      39.494 -11.801  -1.761  1.00  0.00     0.036 A 
HETATM   26  C   UNL     1      38.421 -12.236  -2.710  1.00  0.00     0.070 C 
HETATM   27  N   UNL     1      39.504 -13.992  -0.615  1.00  0.00    -0.170 NA
HETATM   28  C   UNL     1      40.191 -14.441   0.439  1.00  0.00     0.071 A 
HETATM   29  C   UNL     1      39.958 -15.822   0.938  1.00  0.00     0.073 C 
ENDBRANCH   1  18
TORSDOF 6
ENDMDL
MODEL 10
REMARK VINA RESULT:      -7.1      3.174      6.480
REMARK  6 active torsions:
REMARK  status: ('A' for Active; 'I' for Inactive)
REMARK    1  A    between atoms: C_9  and  C_10 
REMARK       I    between atoms: C_10  and  N_11 
REMARK    2  A    between atoms: N_11  and  C_12 
REMARK    3  A    between atoms: C_12  and  C_13 
REMARK    4  A    between atoms: C_13  and  O_14 
REMARK    5  A    between atoms: C_13  and  C_15 
REMARK    6  A    between atoms: C_18  and  O_19 
ROOT
HETATM    1  C   UNL     1      43.369 -13.658   6.514  1.00  0.00     0.258 C 
HETATM    2  N   UNL     1      43.864 -12.392   6.284  1.00  0.00    -0.350 N 
HETATM    3  O   UNL     1      43.477 -14.225   7.597  1.00  0.00    -0.267 OA
HETATM    4  H   UNL     1      43.613 -11.969   5.390  1.00  0.00     0.163 HD
ENDROOT
BRANCH   2   5
HETATM    5  C   UNL     1      44.364 -11.513   7.353  1.00  0.00     0.114 C 
HETATM    6  C   UNL     1      45.816 -11.120   7.072  1.00  0.00     0.035 C 
BRANCH   5   7
HETATM    7  C   UNL     1      43.414 -10.305   7.612  1.00  0.00     0.173 C 
BRANCH   7   8
HETATM    8  O   UNL     1      42.070 -10.714   7.305  1.00  0.00    -0.389 OA
HETATM    9  H   UNL     1      41.926 -10.435   6.384  1.00  0.00     0.210 HD
ENDBRANCH   7   8
BRANCH   7  10
HETATM   10  C   UNL     1      43.448  -9.768   9.028  1.00  0.00    -0.028 A 
HETATM   11  C   UNL     1      43.191  -8.407   9.254  1.00  0.00     0.012 A 
HETATM   12  C   UNL     1      43.230  -7.879  10.545  1.00  0.00     0.037 A 
HETATM   13  C   UNL     1      43.521  -8.697  11.638  1.00  0.00     0.068 A 
HETATM   14  C   UNL     1      43.785 -10.050  11.424  1.00  0.00     0.037 A 
HETATM   15  C   UNL     1      43.751 -10.581  10.128  1.00  0.00     0.012 A 
BRANCH  13  16
HETATM   16  O   UNL     1      43.520  -8.054  12.845  1.00  0.00    -0.356 OA
HETATM   17  C   UNL     1      42.309  -7.417  13.230  1.00  0.00     0.210 C 
ENDBRANCH  13  16
ENDBRANCH   7  10
ENDBRANCH   5   7
ENDBRANCH   2   5
BRANCH   1  18
HETATM   18  C   UNL     1      42.699 -14.285   5.390  1.00  0.00     0.105 A 
HETATM   19  C   UNL     1      41.658 -13.784   4.626  1.00  0.00     0.169 A 
HETATM   20  N   UNL     1      40.981 -12.591   4.684  1.00  0.00    -0.233 NA
HETATM   21  N   UNL     1      41.335 -14.779   3.697  1.00  0.00    -0.219 N 
HETATM   22  C   UNL     1      40.007 -12.438   3.832  1.00  0.00     0.035 A 
HETATM   23  C   UNL     1      39.225 -11.150   3.852  1.00  0.00     0.070 C 
HETATM   24  C   UNL     1      39.586 -13.451   2.814  1.00  0.00     0.053 A 
HETATM   25  C   UNL     1      40.284 -14.600   2.788  1.00  0.00     0.036 A 
HETATM   26  C   UNL     1      39.982 -15.714   1.833  1.00  0.00     0.070 C 
HETATM   27  N   UNL     1      42.143 -15.860   3.822  1.00  0.00    -0.170 NA
HETATM   28  C   UNL     1      42.955 -15.570   4.842  1.00  0.00     0.071 A 
HETATM   29  C   UNL     1      43.980 -16.556   5.273  1.00  0.00     0.073 C 
ENDBRANCH   1  18
TORSDOF 6
ENDMDL
