MODEL 1
REMARK VINA RESULT:      -7.9      0.000      0.000
REMARK  6 active torsions:
REMARK  status: ('A' for Active; 'I' for Inactive)
REMARK       I    between atoms: C_2  and  N_3 
REMARK    1  A    between atoms: N_3  and  C_4 
REMARK    2  A    between atoms: C_7  and  C_8 
REMARK    3  A    between atoms: C_8  and  N_9 
REMARK    4  A    between atoms: N_9  and  C_11 
REMARK    5  A    between atoms: C_11  and  C_12 
REMARK    6  A    between atoms: C_14  and  C_15 
ROOT
HETATM    1  N   UNL     1      41.626 -12.351   3.147  1.00  0.00    -0.063 N 
HETATM    2  H   UNL     1      41.200 -12.963   2.433  1.00  0.00     0.280 HD
HETATM    3  C   UNL     1      40.649 -12.135   4.249  1.00  0.00     0.270 C 
ENDROOT
BRANCH   1   4
HETATM    4  C   UNL     1      41.930 -11.078   2.375  1.00  0.00     0.294 C 
BRANCH   4   5
HETATM    5  C   UNL     1      41.533 -11.215   0.940  1.00  0.00     0.069 A 
HETATM    6  C   UNL     1      41.517 -10.252  -0.051  1.00  0.00     0.082 A 
HETATM    7  S   UNL     1      40.967 -10.949  -1.527  1.00  0.00    -0.062 SA
HETATM    8  C   UNL     1      40.831 -12.455  -0.746  1.00  0.00     0.173 A 
HETATM    9  N   UNL     1      41.117 -12.473   0.530  1.00  0.00    -0.227 NA
BRANCH   8  10
HETATM   10  N   UNL     1      40.442 -13.501  -1.531  1.00  0.00    -0.306 N 
HETATM   11  C   UNL     1      39.108 -13.718  -1.809  1.00  0.00     0.219 C 
HETATM   12  C   UNL     1      38.905 -14.887  -2.738  1.00  0.00     0.117 C 
HETATM   13  O   UNL     1      38.159 -13.086  -1.350  1.00  0.00    -0.274 OA
HETATM   14  H   UNL     1      41.156 -14.141  -1.850  1.00  0.00     0.171 HD
ENDBRANCH   8  10
ENDBRANCH   4   5
ENDBRANCH   1   4
BRANCH   1  15
HETATM   15  C   UNL     1      42.855 -13.126   3.583  1.00  0.00     0.312 C 
BRANCH  15  16
HETATM   16  C   UNL     1      42.987 -14.494   2.999  1.00  0.00     0.130 A 
HETATM   17  N   UNL     1      43.078 -15.631   3.663  1.00  0.00    -0.232 NA
HETATM   18  C   UNL     1      43.297 -16.610   2.717  1.00  0.00     0.084 A 
HETATM   19  C   UNL     1      43.284 -16.056   1.458  1.00  0.00     0.122 A 
HETATM   20  N   UNL     1      43.074 -14.716   1.646  1.00  0.00    -0.351 N 
HETATM   21  H   UNL     1      43.024 -14.019   0.911  1.00  0.00     0.166 HD
BRANCH  18  22
HETATM   22  C   UNL     1      43.522 -18.006   3.052  1.00  0.00    -0.006 A 
HETATM   23  C   UNL     1      43.197 -19.002   2.120  1.00  0.00     0.014 A 
HETATM   24  C   UNL     1      43.383 -20.353   2.427  1.00  0.00     0.001 A 
HETATM   25  C   UNL     1      43.889 -20.722   3.671  1.00  0.00     0.000 A 
HETATM   26  C   UNL     1      44.212 -19.742   4.608  1.00  0.00     0.001 A 
HETATM   27  C   UNL     1      44.031 -18.390   4.300  1.00  0.00     0.014 A 
ENDBRANCH  18  22
ENDBRANCH  15  16
ENDBRANCH   1  15
TORSDOF 6
ENDMDL
MODEL 2
REMARK VINA RESULT:      -7.6      3.627      5.699
REMARK  6 active torsions:
REMARK  status: ('A' for Active; 'I' for Inactive)
REMARK       I    between atoms: C_2  and  N_3 
REMARK    1  A    between atoms: N_3  and  C_4 
REMARK    2  A    between atoms: C_7  and  C_8 
REMARK    3  A    between atoms: C_8  and  N_9 
REMARK    4  A    between atoms: N_9  and  C_11 
REMARK    5  A    between atoms: C_11  and  C_12 
REMARK    6  A    between atoms: C_14  and  C_15 
ROOT
HETATM    1  N   UNL     1      40.877 -12.882   3.038  1.00  0.00    -0.063 N 
HETATM    2  H   UNL     1      41.908 -12.928   3.057  1.00  0.00     0.280 HD
HETATM    3  C   UNL     1      40.458 -11.584   2.442  1.00  0.00     0.270 C 
ENDROOT
BRANCH   1   4
HETATM    4  C   UNL     1      40.498 -13.001   4.505  1.00  0.00     0.294 C 
BRANCH   4   5
HETATM    5  C   UNL     1      41.703 -13.282   5.347  1.00  0.00     0.069 A 
HETATM    6  C   UNL     1      42.316 -14.493   5.606  1.00  0.00     0.082 A 
HETATM    7  S   UNL     1      43.666 -14.247   6.647  1.00  0.00    -0.062 SA
HETATM    8  C   UNL     1      43.346 -12.575   6.640  1.00  0.00     0.173 A 
HETATM    9  N   UNL     1      42.294 -12.190   5.965  1.00  0.00    -0.227 NA
BRANCH   8  10
HETATM   10  N   UNL     1      44.224 -11.797   7.336  1.00  0.00    -0.306 N 
HETATM   11  C   UNL     1      45.234 -11.117   6.687  1.00  0.00     0.219 C 
HETATM   12  C   UNL     1      46.050 -10.274   7.633  1.00  0.00     0.117 C 
HETATM   13  O   UNL     1      45.501 -11.185   5.489  1.00  0.00    -0.274 OA
HETATM   14  H   UNL     1      44.146 -11.784   8.343  1.00  0.00     0.171 HD
ENDBRANCH   8  10
ENDBRANCH   4   5
ENDBRANCH   1   4
BRANCH   1  15
HETATM   15  C   UNL     1      40.489 -14.080   2.194  1.00  0.00     0.312 C 
BRANCH  15  16
HETATM   16  C   UNL     1      41.540 -15.133   2.058  1.00  0.00     0.130 A 
HETATM   17  N   UNL     1      41.594 -16.283   2.702  1.00  0.00    -0.232 NA
HETATM   18  C   UNL     1      42.790 -16.867   2.342  1.00  0.00     0.084 A 
HETATM   19  C   UNL     1      43.441 -16.075   1.425  1.00  0.00     0.122 A 
HETATM   20  N   UNL     1      42.635 -14.984   1.241  1.00  0.00    -0.351 N 
HETATM   21  H   UNL     1      42.836 -14.200   0.631  1.00  0.00     0.166 HD
BRANCH  18  22
HETATM   22  C   UNL     1      43.260 -18.127   2.894  1.00  0.00    -0.006 A 
HETATM   23  C   UNL     1      43.182 -19.293   2.120  1.00  0.00     0.014 A 
HETATM   24  C   UNL     1      43.606 -20.521   2.635  1.00  0.00     0.001 A 
HETATM   25  C   UNL     1      44.106 -20.596   3.933  1.00  0.00     0.000 A 
HETATM   26  C   UNL     1      44.186 -19.445   4.715  1.00  0.00     0.001 A 
HETATM   27  C   UNL     1      43.767 -18.216   4.198  1.00  0.00     0.014 A 
ENDBRANCH  18  22
ENDBRANCH  15  16
ENDBRANCH   1  15
TORSDOF 6
ENDMDL
MODEL 3
REMARK VINA RESULT:      -7.5      1.871      2.208
REMARK  6 active torsions:
REMARK  status: ('A' for Active; 'I' for Inactive)
REMARK       I    between atoms: C_2  and  N_3 
REMARK    1  A    between atoms: N_3  and  C_4 
REMARK    2  A    between atoms: C_7  and  C_8 
REMARK    3  A    between atoms: C_8  and  N_9 
REMARK    4  A    between atoms: N_9  and  C_11 
REMARK    5  A    between atoms: C_11  and  C_12 
REMARK    6  A    between atoms: C_14  and  C_15 
ROOT
HETATM    1  N   UNL     1      40.731 -11.422   3.090  1.00  0.00    -0.063 N 
HETATM    2  H   UNL     1      40.090 -10.632   2.910  1.00  0.00     0.280 HD
HETATM    3  C   UNL     1      41.840 -10.960   3.970  1.00  0.00     0.270 C 
ENDROOT
BRANCH   1   4
HETATM    4  C   UNL     1      41.208 -11.804   1.699  1.00  0.00     0.294 C 
BRANCH   4   5
HETATM    5  C   UNL     1      40.084 -11.747   0.713  1.00  0.00     0.069 A 
HETATM    6  C   UNL     1      39.293 -10.669   0.362  1.00  0.00     0.082 A 
HETATM    7  S   UNL     1      38.140 -11.158  -0.821  1.00  0.00    -0.062 SA
HETATM    8  C   UNL     1      38.801 -12.726  -0.792  1.00  0.00     0.173 A 
HETATM    9  N   UNL     1      39.777 -12.928   0.055  1.00  0.00    -0.227 NA
BRANCH   8  10
HETATM   10  N   UNL     1      38.251 -13.621  -1.662  1.00  0.00    -0.306 N 
HETATM   11  C   UNL     1      38.797 -13.818  -2.914  1.00  0.00     0.219 C 
HETATM   12  C   UNL     1      38.073 -14.888  -3.688  1.00  0.00     0.117 C 
HETATM   13  O   UNL     1      39.739 -13.195  -3.400  1.00  0.00    -0.274 OA
HETATM   14  H   UNL     1      37.400 -14.088  -1.382  1.00  0.00     0.171 HD
ENDBRANCH   8  10
ENDBRANCH   4   5
ENDBRANCH   1   4
BRANCH   1  15
HETATM   15  C   UNL     1      39.836 -12.453   3.749  1.00  0.00     0.312 C 
BRANCH  15  16
HETATM   16  C   UNL     1      40.181 -13.877   3.455  1.00  0.00     0.130 A 
HETATM   17  N   UNL     1      41.260 -14.526   3.851  1.00  0.00    -0.232 NA
HETATM   18  C   UNL     1      41.202 -15.766   3.250  1.00  0.00     0.084 A 
HETATM   19  C   UNL     1      40.039 -15.880   2.523  1.00  0.00     0.122 A 
HETATM   20  N   UNL     1      39.393 -14.683   2.670  1.00  0.00    -0.351 N 
HETATM   21  H   UNL     1      38.505 -14.437   2.245  1.00  0.00     0.166 HD
BRANCH  18  22
HETATM   22  C   UNL     1      42.250 -16.764   3.381  1.00  0.00    -0.006 A 
HETATM   23  C   UNL     1      42.425 -17.719   2.369  1.00  0.00     0.014 A 
HETATM   24  C   UNL     1      43.412 -18.703   2.481  1.00  0.00     0.001 A 
HETATM   25  C   UNL     1      44.226 -18.747   3.609  1.00  0.00     0.000 A 
HETATM   26  C   UNL     1      44.060 -17.807   4.624  1.00  0.00     0.001 A 
HETATM   27  C   UNL     1      43.078 -16.819   4.511  1.00  0.00     0.014 A 
ENDBRANCH  18  22
ENDBRANCH  15  16
ENDBRANCH   1  15
TORSDOF 6
ENDMDL
MODEL 4
REMARK VINA RESULT:      -7.4      5.288      7.411
REMARK  6 active torsions:
REMARK  status: ('A' for Active; 'I' for Inactive)
REMARK       I    between atoms: C_2  and  N_3 
REMARK    1  A    between atoms: N_3  and  C_4 
REMARK    2  A    between atoms: C_7  and  C_8 
REMARK    3  A    between atoms: C_8  and  N_9 
REMARK    4  A    between atoms: N_9  and  C_11 
REMARK    5  A    between atoms: C_11  and  C_12 
REMARK    6  A    between atoms: C_14  and  C_15 
ROOT
HETATM    1  N   UNL     1      42.776 -13.161   6.406  1.00  0.00    -0.063 N 
HETATM    2  H   UNL     1      42.235 -12.484   6.968  1.00  0.00     0.280 HD
HETATM    3  C   UNL     1      43.239 -14.267   7.289  1.00  0.00     0.270 C 
ENDROOT
BRANCH   1   4
HETATM    4  C   UNL     1      43.923 -12.323   5.867  1.00  0.00     0.294 C 
BRANCH   4   5
HETATM    5  C   UNL     1      44.460 -11.408   6.922  1.00  0.00     0.069 A 
HETATM    6  C   UNL     1      45.728 -10.872   7.042  1.00  0.00     0.082 A 
HETATM    7  S   UNL     1      45.810  -9.887   8.452  1.00  0.00    -0.062 SA
HETATM    8  C   UNL     1      44.170 -10.223   8.761  1.00  0.00     0.173 A 
HETATM    9  N   UNL     1      43.580 -11.042   7.930  1.00  0.00    -0.227 NA
BRANCH   8  10
HETATM   10  N   UNL     1      43.628  -9.599   9.846  1.00  0.00    -0.306 N 
HETATM   11  C   UNL     1      43.656 -10.193  11.091  1.00  0.00     0.219 C 
HETATM   12  C   UNL     1      43.058  -9.310  12.155  1.00  0.00     0.117 C 
HETATM   13  O   UNL     1      44.074 -11.320  11.347  1.00  0.00    -0.274 OA
HETATM   14  H   UNL     1      43.156  -8.718   9.696  1.00  0.00     0.171 HD
ENDBRANCH   8  10
ENDBRANCH   4   5
ENDBRANCH   1   4
BRANCH   1  15
HETATM   15  C   UNL     1      41.784 -13.613   5.353  1.00  0.00     0.312 C 
BRANCH  15  16
HETATM   16  C   UNL     1      42.290 -14.650   4.404  1.00  0.00     0.130 A 
HETATM   17  N   UNL     1      42.308 -15.955   4.596  1.00  0.00    -0.232 NA
HETATM   18  C   UNL     1      42.963 -16.493   3.508  1.00  0.00     0.084 A 
HETATM   19  C   UNL     1      43.298 -15.494   2.622  1.00  0.00     0.122 A 
HETATM   20  N   UNL     1      42.855 -14.331   3.192  1.00  0.00    -0.351 N 
HETATM   21  H   UNL     1      42.959 -13.404   2.795  1.00  0.00     0.166 HD
BRANCH  18  22
HETATM   22  C   UNL     1      43.251 -17.911   3.373  1.00  0.00    -0.006 A 
HETATM   23  C   UNL     1      43.864 -18.596   4.431  1.00  0.00     0.014 A 
HETATM   24  C   UNL     1      44.172 -19.955   4.317  1.00  0.00     0.001 A 
HETATM   25  C   UNL     1      43.877 -20.640   3.141  1.00  0.00     0.000 A 
HETATM   26  C   UNL     1      43.271 -19.970   2.080  1.00  0.00     0.001 A 
HETATM   27  C   UNL     1      42.958 -18.612   2.195  1.00  0.00     0.014 A 
ENDBRANCH  18  22
ENDBRANCH  15  16
ENDBRANCH   1  15
TORSDOF 6
ENDMDL
MODEL 5
REMARK VINA RESULT:      -7.2      3.507      5.527
REMARK  6 active torsions:
REMARK  status: ('A' for Active; 'I' for Inactive)
REMARK       I    between atoms: C_2  and  N_3 
REMARK    1  A    between atoms: N_3  and  C_4 
REMARK    2  A    between atoms: C_7  and  C_8 
REMARK    3  A    between atoms: C_8  and  N_9 
REMARK    4  A    between atoms: N_9  and  C_11 
REMARK    5  A    between atoms: C_11  and  C_12 
REMARK    6  A    between atoms: C_14  and  C_15 
ROOT
HETATM    1  N   UNL     1      40.746 -13.503   2.861  1.00  0.00    -0.063 N 
HETATM    2  H   UNL     1      40.583 -12.571   2.447  1.00  0.00     0.280 HD
HETATM    3  C   UNL     1      39.926 -14.510   2.133  1.00  0.00     0.270 C 
ENDROOT
BRANCH   1   4
HETATM    4  C   UNL     1      40.304 -13.323   4.304  1.00  0.00     0.294 C 
BRANCH   4   5
HETATM    5  C   UNL     1      40.916 -12.095   4.901  1.00  0.00     0.069 A 
HETATM    6  C   UNL     1      40.707 -10.771   4.564  1.00  0.00     0.082 A 
HETATM    7  S   UNL     1      41.673  -9.759   5.568  1.00  0.00    -0.062 SA
HETATM    8  C   UNL     1      42.252 -11.141   6.375  1.00  0.00     0.173 A 
HETATM    9  N   UNL     1      41.822 -12.293   5.932  1.00  0.00    -0.227 NA
BRANCH   8  10
HETATM   10  N   UNL     1      43.107 -10.911   7.414  1.00  0.00    -0.306 N 
HETATM   11  C   UNL     1      44.473 -10.918   7.221  1.00  0.00     0.219 C 
HETATM   12  C   UNL     1      45.226 -10.584   8.482  1.00  0.00     0.117 C 
HETATM   13  O   UNL     1      45.056 -11.192   6.174  1.00  0.00    -0.274 OA
HETATM   14  H   UNL     1      42.708 -10.795   8.335  1.00  0.00     0.171 HD
ENDBRANCH   8  10
ENDBRANCH   4   5
ENDBRANCH   1   4
BRANCH   1  15
HETATM   15  C   UNL     1      42.238 -13.707   2.686  1.00  0.00     0.312 C 
BRANCH  15  16
HETATM   16  C   UNL     1      42.806 -14.896   3.390  1.00  0.00     0.130 A 
HETATM   17  N   UNL     1      42.951 -16.111   2.897  1.00  0.00    -0.232 NA
HETATM   18  C   UNL     1      43.406 -16.894   3.937  1.00  0.00     0.084 A 
HETATM   19  C   UNL     1      43.587 -16.121   5.061  1.00  0.00     0.122 A 
HETATM   20  N   UNL     1      43.217 -14.853   4.700  1.00  0.00    -0.351 N 
HETATM   21  H   UNL     1      43.221 -14.043   5.310  1.00  0.00     0.166 HD
BRANCH  18  22
HETATM   22  C   UNL     1      43.628 -18.325   3.819  1.00  0.00    -0.006 A 
HETATM   23  C   UNL     1      43.453 -18.953   2.577  1.00  0.00     0.014 A 
HETATM   24  C   UNL     1      43.639 -20.332   2.443  1.00  0.00     0.001 A 
HETATM   25  C   UNL     1      43.994 -21.098   3.550  1.00  0.00     0.000 A 
HETATM   26  C   UNL     1      44.167 -20.488   4.791  1.00  0.00     0.001 A 
HETATM   27  C   UNL     1      43.987 -19.108   4.925  1.00  0.00     0.014 A 
ENDBRANCH  18  22
ENDBRANCH  15  16
ENDBRANCH   1  15
TORSDOF 6
ENDMDL
MODEL 6
REMARK VINA RESULT:      -7.0      4.473      6.507
REMARK  6 active torsions:
REMARK  status: ('A' for Active; 'I' for Inactive)
REMARK       I    between atoms: C_2  and  N_3 
REMARK    1  A    between atoms: N_3  and  C_4 
REMARK    2  A    between atoms: C_7  and  C_8 
REMARK    3  A    between atoms: C_8  and  N_9 
REMARK    4  A    between atoms: N_9  and  C_11 
REMARK    5  A    between atoms: C_11  and  C_12 
REMARK    6  A    between atoms: C_14  and  C_15 
ROOT
HETATM    1  N   UNL     1      40.797 -11.279   3.757  1.00  0.00    -0.063 N 
HETATM    2  H   UNL     1      41.526 -11.726   3.178  1.00  0.00     0.280 HD
HETATM    3  C   UNL     1      39.708 -10.783   2.871  1.00  0.00     0.270 C 
ENDROOT
BRANCH   1   4
HETATM    4  C   UNL     1      41.548 -10.152   4.447  1.00  0.00     0.294 C 
BRANCH   4   5
HETATM    5  C   UNL     1      42.634 -10.692   5.323  1.00  0.00     0.069 A 
HETATM    6  C   UNL     1      43.750 -11.425   4.968  1.00  0.00     0.082 A 
HETATM    7  S   UNL     1      44.672 -11.796   6.375  1.00  0.00    -0.062 SA
HETATM    8  C   UNL     1      43.546 -10.936   7.318  1.00  0.00     0.173 A 
HETATM    9  N   UNL     1      42.520 -10.435   6.681  1.00  0.00    -0.227 NA
BRANCH   8  10
HETATM   10  N   UNL     1      43.828 -10.847   8.650  1.00  0.00    -0.306 N 
HETATM   11  C   UNL     1      44.564  -9.792   9.148  1.00  0.00     0.219 C 
HETATM   12  C   UNL     1      44.709  -9.858  10.646  1.00  0.00     0.117 C 
HETATM   13  O   UNL     1      45.091  -8.900   8.488  1.00  0.00    -0.274 OA
HETATM   14  H   UNL     1      43.532 -11.608   9.245  1.00  0.00     0.171 HD
ENDBRANCH   8  10
ENDBRANCH   4   5
ENDBRANCH   1   4
BRANCH   1  15
HETATM   15  C   UNL     1      40.353 -12.394   4.683  1.00  0.00     0.312 C 
BRANCH  15  16
HETATM   16  C   UNL     1      40.564 -13.778   4.162  1.00  0.00     0.130 A 
HETATM   17  N   UNL     1      41.601 -14.559   4.394  1.00  0.00    -0.232 NA
HETATM   18  C   UNL     1      41.412 -15.685   3.621  1.00  0.00     0.084 A 
HETATM   19  C   UNL     1      40.212 -15.599   2.953  1.00  0.00     0.122 A 
HETATM   20  N   UNL     1      39.675 -14.392   3.313  1.00  0.00    -0.351 N 
HETATM   21  H   UNL     1      38.794 -14.018   2.981  1.00  0.00     0.166 HD
BRANCH  18  22
HETATM   22  C   UNL     1      42.378 -16.768   3.541  1.00  0.00    -0.006 A 
HETATM   23  C   UNL     1      42.399 -17.594   2.407  1.00  0.00     0.014 A 
HETATM   24  C   UNL     1      43.303 -18.656   2.316  1.00  0.00     0.001 A 
HETATM   25  C   UNL     1      44.189 -18.908   3.360  1.00  0.00     0.000 A 
HETATM   26  C   UNL     1      44.176 -18.098   4.494  1.00  0.00     0.001 A 
HETATM   27  C   UNL     1      43.276 -17.032   4.584  1.00  0.00     0.014 A 
ENDBRANCH  18  22
ENDBRANCH  15  16
ENDBRANCH   1  15
TORSDOF 6
ENDMDL
MODEL 7
REMARK VINA RESULT:      -6.9      3.165      5.187
REMARK  6 active torsions:
REMARK  status: ('A' for Active; 'I' for Inactive)
REMARK       I    between atoms: C_2  and  N_3 
REMARK    1  A    between atoms: N_3  and  C_4 
REMARK    2  A    between atoms: C_7  and  C_8 
REMARK    3  A    between atoms: C_8  and  N_9 
REMARK    4  A    between atoms: N_9  and  C_11 
REMARK    5  A    between atoms: C_11  and  C_12 
REMARK    6  A    between atoms: C_14  and  C_15 
ROOT
HETATM    1  N   UNL     1      40.043 -13.230   1.903  1.00  0.00    -0.063 N 
HETATM    2  H   UNL     1      41.023 -12.920   1.996  1.00  0.00     0.280 HD
HETATM    3  C   UNL     1      39.267 -12.182   1.182  1.00  0.00     0.270 C 
ENDROOT
BRANCH   1   4
HETATM    4  C   UNL     1      39.595 -13.401   3.345  1.00  0.00     0.294 C 
BRANCH   4   5
HETATM    5  C   UNL     1      40.665 -12.959   4.293  1.00  0.00     0.069 A 
HETATM    6  C   UNL     1      41.985 -13.362   4.359  1.00  0.00     0.082 A 
HETATM    7  S   UNL     1      42.778 -12.541   5.648  1.00  0.00    -0.062 SA
HETATM    8  C   UNL     1      41.332 -11.707   5.983  1.00  0.00     0.173 A 
HETATM    9  N   UNL     1      40.298 -12.021   5.246  1.00  0.00    -0.227 NA
BRANCH   8  10
HETATM   10  N   UNL     1      41.394 -10.785   6.987  1.00  0.00    -0.306 N 
HETATM   11  C   UNL     1      41.573  -9.447   6.708  1.00  0.00     0.219 C 
HETATM   12  C   UNL     1      41.554  -8.599   7.953  1.00  0.00     0.117 C 
HETATM   13  O   UNL     1      41.766  -8.957   5.597  1.00  0.00    -0.274 OA
HETATM   14  H   UNL     1      41.364 -11.123   7.939  1.00  0.00     0.171 HD
ENDBRANCH   8  10
ENDBRANCH   4   5
ENDBRANCH   1   4
BRANCH   1  15
HETATM   15  C   UNL     1      40.158 -14.527   1.126  1.00  0.00     0.312 C 
BRANCH  15  16
HETATM   16  C   UNL     1      41.378 -15.338   1.418  1.00  0.00     0.130 A 
HETATM   17  N   UNL     1      41.419 -16.524   1.995  1.00  0.00    -0.232 NA
HETATM   18  C   UNL     1      42.754 -16.826   2.156  1.00  0.00     0.084 A 
HETATM   19  C   UNL     1      43.529 -15.824   1.618  1.00  0.00     0.122 A 
HETATM   20  N   UNL     1      42.648 -14.892   1.141  1.00  0.00    -0.351 N 
HETATM   21  H   UNL     1      42.900 -14.019   0.692  1.00  0.00     0.166 HD
BRANCH  18  22
HETATM   22  C   UNL     1      43.225 -18.029   2.822  1.00  0.00    -0.006 A 
HETATM   23  C   UNL     1      43.168 -19.259   2.150  1.00  0.00     0.014 A 
HETATM   24  C   UNL     1      43.594 -20.434   2.775  1.00  0.00     0.001 A 
HETATM   25  C   UNL     1      44.074 -20.392   4.082  1.00  0.00     0.000 A 
HETATM   26  C   UNL     1      44.133 -19.178   4.763  1.00  0.00     0.001 A 
HETATM   27  C   UNL     1      43.712 -18.001   4.136  1.00  0.00     0.014 A 
ENDBRANCH  18  22
ENDBRANCH  15  16
ENDBRANCH   1  15
TORSDOF 6
ENDMDL
MODEL 8
REMARK VINA RESULT:      -6.9      5.742      7.902
REMARK  6 active torsions:
REMARK  status: ('A' for Active; 'I' for Inactive)
REMARK       I    between atoms: C_2  and  N_3 
REMARK    1  A    between atoms: N_3  and  C_4 
REMARK    2  A    between atoms: C_7  and  C_8 
REMARK    3  A    between atoms: C_8  and  N_9 
REMARK    4  A    between atoms: N_9  and  C_11 
REMARK    5  A    between atoms: C_11  and  C_12 
REMARK    6  A    between atoms: C_14  and  C_15 
ROOT
HETATM    1  N   UNL     1      43.119 -11.708   5.653  1.00  0.00    -0.063 N 
HETATM    2  H   UNL     1      43.987 -12.001   6.129  1.00  0.00     0.280 HD
HETATM    3  C   UNL     1      43.431 -11.370   4.236  1.00  0.00     0.270 C 
ENDROOT
BRANCH   1   4
HETATM    4  C   UNL     1      42.674 -10.499   6.458  1.00  0.00     0.294 C 
BRANCH   4   5
HETATM    5  C   UNL     1      43.595 -10.257   7.612  1.00  0.00     0.069 A 
HETATM    6  C   UNL     1      44.976 -10.231   7.629  1.00  0.00     0.082 A 
HETATM    7  S   UNL     1      45.531  -9.914   9.228  1.00  0.00    -0.062 SA
HETATM    8  C   UNL     1      43.914  -9.805   9.749  1.00  0.00     0.173 A 
HETATM    9  N   UNL     1      42.997 -10.029   8.843  1.00  0.00    -0.227 NA
BRANCH   8  10
HETATM   10  N   UNL     1      43.731  -9.488  11.063  1.00  0.00    -0.306 N 
HETATM   11  C   UNL     1      43.302  -8.230  11.433  1.00  0.00     0.219 C 
HETATM   12  C   UNL     1      43.110  -8.111  12.923  1.00  0.00     0.117 C 
HETATM   13  O   UNL     1      43.119  -7.275  10.681  1.00  0.00    -0.274 OA
HETATM   14  H   UNL     1      43.976 -10.183  11.754  1.00  0.00     0.171 HD
ENDBRANCH   8  10
ENDBRANCH   4   5
ENDBRANCH   1   4
BRANCH   1  15
HETATM   15  C   UNL     1      42.217 -12.918   5.793  1.00  0.00     0.312 C 
BRANCH  15  16
HETATM   16  C   UNL     1      42.901 -14.241   5.673  1.00  0.00     0.130 A 
HETATM   17  N   UNL     1      42.783 -15.104   4.683  1.00  0.00    -0.232 NA
HETATM   18  C   UNL     1      43.503 -16.219   5.058  1.00  0.00     0.084 A 
HETATM   19  C   UNL     1      44.107 -15.998   6.275  1.00  0.00     0.122 A 
HETATM   20  N   UNL     1      43.730 -14.737   6.650  1.00  0.00    -0.351 N 
HETATM   21  H   UNL     1      43.998 -14.274   7.512  1.00  0.00     0.166 HD
BRANCH  18  22
HETATM   22  C   UNL     1      43.567 -17.432   4.261  1.00  0.00    -0.006 A 
HETATM   23  C   UNL     1      43.043 -17.434   2.960  1.00  0.00     0.014 A 
HETATM   24  C   UNL     1      43.073 -18.594   2.181  1.00  0.00     0.001 A 
HETATM   25  C   UNL     1      43.621 -19.765   2.697  1.00  0.00     0.000 A 
HETATM   26  C   UNL     1      44.142 -19.779   3.990  1.00  0.00     0.001 A 
HETATM   27  C   UNL     1      44.117 -18.617   4.768  1.00  0.00     0.014 A 
ENDBRANCH  18  22
ENDBRANCH  15  16
ENDBRANCH   1  15
TORSDOF 6
ENDMDL
MODEL 9
REMARK VINA RESULT:      -6.9      2.113      2.790
REMARK  6 active torsions:
REMARK  status: ('A' for Active; 'I' for Inactive)
REMARK       I    between atoms: C_2  and  N_3 
REMARK    1  A    between atoms: N_3  and  C_4 
REMARK    2  A    between atoms: C_7  and  C_8 
REMARK    3  A    between atoms: C_8  and  N_9 
REMARK    4  A    between atoms: N_9  and  C_11 
REMARK    5  A    between atoms: C_11  and  C_12 
REMARK    6  A    between atoms: C_14  and  C_15 
ROOT
HETATM    1  N   UNL     1      40.897 -11.517   5.216  1.00  0.00    -0.063 N 
HETATM    2  H   UNL     1      40.413 -12.425   5.306  1.00  0.00     0.280 HD
HETATM    3  C   UNL     1      40.306 -10.551   6.183  1.00  0.00     0.270 C 
ENDROOT
BRANCH   1   4
HETATM    4  C   UNL     1      40.638 -11.130   3.770  1.00  0.00     0.294 C 
BRANCH   4   5
HETATM    5  C   UNL     1      40.478 -12.345   2.911  1.00  0.00     0.069 A 
HETATM    6  C   UNL     1      39.945 -13.576   3.242  1.00  0.00     0.082 A 
HETATM    7  S   UNL     1      40.009 -14.621   1.875  1.00  0.00    -0.062 SA
HETATM    8  C   UNL     1      40.697 -13.359   0.963  1.00  0.00     0.173 A 
HETATM    9  N   UNL     1      40.925 -12.240   1.602  1.00  0.00    -0.227 NA
BRANCH   8  10
HETATM   10  N   UNL     1      40.939 -13.635  -0.351  1.00  0.00    -0.306 N 
HETATM   11  C   UNL     1      39.952 -13.476  -1.300  1.00  0.00     0.219 C 
HETATM   12  C   UNL     1      40.447 -13.779  -2.691  1.00  0.00     0.117 C 
HETATM   13  O   UNL     1      38.783 -13.161  -1.086  1.00  0.00    -0.274 OA
HETATM   14  H   UNL     1      41.844 -14.016  -0.593  1.00  0.00     0.171 HD
ENDBRANCH   8  10
ENDBRANCH   4   5
ENDBRANCH   1   4
BRANCH   1  15
HETATM   15  C   UNL     1      42.342 -11.860   5.522  1.00  0.00     0.312 C 
BRANCH  15  16
HETATM   16  C   UNL     1      42.637 -13.318   5.658  1.00  0.00     0.130 A 
HETATM   17  N   UNL     1      43.042 -14.134   4.703  1.00  0.00    -0.232 NA
HETATM   18  C   UNL     1      43.072 -15.393   5.263  1.00  0.00     0.084 A 
HETATM   19  C   UNL     1      42.729 -15.322   6.594  1.00  0.00     0.122 A 
HETATM   20  N   UNL     1      42.469 -14.001   6.838  1.00  0.00    -0.351 N 
HETATM   21  H   UNL     1      42.175 -13.613   7.728  1.00  0.00     0.166 HD
BRANCH  18  22
HETATM   22  C   UNL     1      43.405 -16.592   4.512  1.00  0.00    -0.006 A 
HETATM   23  C   UNL     1      42.839 -16.793   3.245  1.00  0.00     0.014 A 
HETATM   24  C   UNL     1      43.126 -17.948   2.511  1.00  0.00     0.001 A 
HETATM   25  C   UNL     1      43.975 -18.917   3.041  1.00  0.00     0.000 A 
HETATM   26  C   UNL     1      44.541 -18.731   4.301  1.00  0.00     0.001 A 
HETATM   27  C   UNL     1      44.259 -17.573   5.033  1.00  0.00     0.014 A 
ENDBRANCH  18  22
ENDBRANCH  15  16
ENDBRANCH   1  15
TORSDOF 6
ENDMDL
MODEL 10
REMARK VINA RESULT:      -6.7      2.577      3.439
REMARK  6 active torsions:
REMARK  status: ('A' for Active; 'I' for Inactive)
REMARK       I    between atoms: C_2  and  N_3 
REMARK    1  A    between atoms: N_3  and  C_4 
REMARK    2  A    between atoms: C_7  and  C_8 
REMARK    3  A    between atoms: C_8  and  N_9 
REMARK    4  A    between atoms: N_9  and  C_11 
REMARK    5  A    between atoms: C_11  and  C_12 
REMARK    6  A    between atoms: C_14  and  C_15 
ROOT
HETATM    1  N   UNL     1      41.170 -11.018   5.596  1.00  0.00    -0.063 N 
HETATM    2  H   UNL     1      40.820 -11.924   5.243  1.00  0.00     0.280 HD
HETATM    3  C   UNL     1      40.333 -10.588   6.750  1.00  0.00     0.270 C 
ENDROOT
BRANCH   1   4
HETATM    4  C   UNL     1      41.026 -10.100   4.394  1.00  0.00     0.294 C 
BRANCH   4   5
HETATM    5  C   UNL     1      40.291 -10.783   3.284  1.00  0.00     0.069 A 
HETATM    6  C   UNL     1      39.668 -10.224   2.184  1.00  0.00     0.082 A 
HETATM    7  S   UNL     1      38.967 -11.469   1.221  1.00  0.00    -0.062 SA
HETATM    8  C   UNL     1      39.570 -12.628   2.312  1.00  0.00     0.173 A 
HETATM    9  N   UNL     1      40.210 -12.166   3.355  1.00  0.00    -0.227 NA
BRANCH   8  10
HETATM   10  N   UNL     1      39.332 -13.932   1.988  1.00  0.00    -0.306 N 
HETATM   11  C   UNL     1      40.253 -14.660   1.263  1.00  0.00     0.219 C 
HETATM   12  C   UNL     1      39.819 -16.089   1.067  1.00  0.00     0.117 C 
HETATM   13  O   UNL     1      41.300 -14.231   0.782  1.00  0.00    -0.274 OA
HETATM   14  H   UNL     1      38.437 -14.325   2.244  1.00  0.00     0.171 HD
ENDBRANCH   8  10
ENDBRANCH   4   5
ENDBRANCH   1   4
BRANCH   1  15
HETATM   15  C   UNL     1      42.605 -11.324   5.980  1.00  0.00     0.312 C 
BRANCH  15  16
HETATM   16  C   UNL     1      42.958 -12.774   6.027  1.00  0.00     0.130 A 
HETATM   17  N   UNL     1      43.082 -13.591   4.998  1.00  0.00    -0.232 NA
HETATM   18  C   UNL     1      43.302 -14.844   5.528  1.00  0.00     0.084 A 
HETATM   19  C   UNL     1      43.362 -14.768   6.900  1.00  0.00     0.122 A 
HETATM   20  N   UNL     1      43.157 -13.450   7.207  1.00  0.00    -0.351 N 
HETATM   21  H   UNL     1      43.128 -13.061   8.142  1.00  0.00     0.166 HD
BRANCH  18  22
HETATM   22  C   UNL     1      43.426 -16.043   4.715  1.00  0.00    -0.006 A 
HETATM   23  C   UNL     1      44.148 -17.140   5.206  1.00  0.00     0.014 A 
HETATM   24  C   UNL     1      44.300 -18.296   4.436  1.00  0.00     0.001 A 
HETATM   25  C   UNL     1      43.738 -18.364   3.163  1.00  0.00     0.000 A 
HETATM   26  C   UNL     1      43.021 -17.279   2.661  1.00  0.00     0.001 A 
HETATM   27  C   UNL     1      42.864 -16.124   3.434  1.00  0.00     0.014 A 
ENDBRANCH  18  22
ENDBRANCH  15  16
ENDBRANCH   1  15
TORSDOF 6
ENDMDL
