MODEL 1
REMARK VINA RESULT:      -9.3      0.000      0.000
REMARK  6 active torsions:
REMARK  status: ('A' for Active; 'I' for Inactive)
REMARK    1  A    between atoms: O_2  and  C_3 
REMARK    2  A    between atoms: C_5  and  C_6 
REMARK    3  A    between atoms: C_6  and  C_7 
REMARK    4  A    between atoms: C_7  and  C_8 
REMARK       I    between atoms: C_8  and  N_9 
REMARK    5  A    between atoms: N_12  and  C_13 
REMARK    6  A    between atoms: C_17  and  C_18 
ROOT
HETATM    1  C   UNL     1      45.294  -9.220   8.338  1.00  0.00     0.220 C 
HETATM    2  N   UNL     1      45.010 -10.563   8.106  1.00  0.00    -0.349 N 
HETATM    3  C   UNL     1      43.726 -11.197   8.444  1.00  0.00     0.145 C 
HETATM    4  C   UNL     1      42.791 -11.168   7.217  1.00  0.00     0.144 C 
HETATM    5  N   UNL     1      43.445 -11.809   6.049  1.00  0.00    -0.363 N 
HETATM    6  C   UNL     1      44.777 -11.218   5.732  1.00  0.00     0.144 C 
HETATM    7  C   UNL     1      45.686 -11.225   6.983  1.00  0.00     0.145 C 
HETATM    8  O   UNL     1      46.208  -8.636   7.756  1.00  0.00    -0.273 OA
ENDROOT
BRANCH   5   9
HETATM    9  C   UNL     1      43.187 -13.123   5.776  1.00  0.00     0.122 A 
HETATM   10  N   UNL     1      42.527 -13.946   6.650  1.00  0.00    -0.262 N 
HETATM   11  H   UNL     1      42.173 -13.710   7.568  1.00  0.00     0.191 HD
HETATM   12  N   UNL     1      42.391 -15.213   6.228  1.00  0.00    -0.173 NA
HETATM   13  C   UNL     1      43.020 -15.239   5.043  1.00  0.00     0.090 A 
HETATM   14  C   UNL     1      43.537 -13.951   4.730  1.00  0.00     0.084 A 
BRANCH  13  15
HETATM   15  C   UNL     1      43.130 -16.472   4.256  1.00  0.00    -0.005 A 
HETATM   16  C   UNL     1      43.908 -17.544   4.723  1.00  0.00     0.015 A 
HETATM   17  C   UNL     1      44.038 -18.718   3.974  1.00  0.00     0.024 A 
HETATM   18  C   UNL     1      43.384 -18.830   2.751  1.00  0.00     0.034 A 
HETATM   19 CL   UNL     1      43.541 -20.271   1.825  1.00  0.00    -0.084 Cl
HETATM   20  C   UNL     1      42.601 -17.782   2.272  1.00  0.00     0.024 A 
HETATM   21  C   UNL     1      42.475 -16.607   3.022  1.00  0.00     0.015 A 
ENDBRANCH  13  15
ENDBRANCH   5   9
BRANCH   1  22
HETATM   22  C   UNL     1      44.413  -8.505   9.347  1.00  0.00     0.107 C 
BRANCH  22  23
HETATM   23  C   UNL     1      44.720  -8.918  10.785  1.00  0.00     0.048 C 
BRANCH  23  24
HETATM   24  C   UNL     1      43.481  -8.816  11.643  1.00  0.00    -0.055 A 
HETATM   25  C   UNL     1      42.318  -9.524  11.291  1.00  0.00     0.044 A 
HETATM   26  C   UNL     1      41.185  -9.479  12.104  1.00  0.00     0.068 A 
HETATM   27  C   UNL     1      41.214  -8.717  13.273  1.00  0.00     0.037 A 
HETATM   28  C   UNL     1      42.361  -8.010  13.633  1.00  0.00     0.003 A 
HETATM   29  C   UNL     1      43.494  -8.063  12.823  1.00  0.00     0.007 A 
BRANCH  26  30
HETATM   30  O   UNL     1      40.003 -10.130  11.875  1.00  0.00    -0.356 OA
HETATM   31  C   UNL     1      39.435 -10.838  12.970  1.00  0.00     0.210 C 
ENDBRANCH  26  30
ENDBRANCH  23  24
ENDBRANCH  22  23
ENDBRANCH   1  22
TORSDOF 6
ENDMDL
MODEL 2
REMARK VINA RESULT:      -9.2      4.482     10.332
REMARK  6 active torsions:
REMARK  status: ('A' for Active; 'I' for Inactive)
REMARK    1  A    between atoms: O_2  and  C_3 
REMARK    2  A    between atoms: C_5  and  C_6 
REMARK    3  A    between atoms: C_6  and  C_7 
REMARK    4  A    between atoms: C_7  and  C_8 
REMARK       I    between atoms: C_8  and  N_9 
REMARK    5  A    between atoms: N_12  and  C_13 
REMARK    6  A    between atoms: C_17  and  C_18 
ROOT
HETATM    1  C   UNL     1      42.185 -12.794   3.988  1.00  0.00     0.220 C 
HETATM    2  N   UNL     1      42.314 -12.588   5.358  1.00  0.00    -0.349 N 
HETATM    3  C   UNL     1      43.522 -12.929   6.126  1.00  0.00     0.145 C 
HETATM    4  C   UNL     1      44.441 -11.693   6.228  1.00  0.00     0.144 C 
HETATM    5  N   UNL     1      43.705 -10.545   6.815  1.00  0.00    -0.363 N 
HETATM    6  C   UNL     1      42.446 -10.227   6.084  1.00  0.00     0.144 C 
HETATM    7  C   UNL     1      41.555 -11.486   5.963  1.00  0.00     0.145 C 
HETATM    8  O   UNL     1      41.337 -12.208   3.317  1.00  0.00    -0.273 OA
ENDROOT
BRANCH   5   9
HETATM    9  C   UNL     1      43.811 -10.298   8.155  1.00  0.00     0.122 A 
HETATM   10  N   UNL     1      44.897 -10.683   8.897  1.00  0.00    -0.262 N 
HETATM   11  H   UNL     1      45.714 -11.184   8.575  1.00  0.00     0.191 HD
HETATM   12  N   UNL     1      44.813 -10.384  10.203  1.00  0.00    -0.173 NA
HETATM   13  C   UNL     1      43.606  -9.813  10.338  1.00  0.00     0.090 A 
HETATM   14  C   UNL     1      42.948  -9.748   9.078  1.00  0.00     0.084 A 
BRANCH  13  15
HETATM   15  C   UNL     1      43.107  -9.366  11.643  1.00  0.00    -0.005 A 
HETATM   16  C   UNL     1      42.073 -10.068  12.285  1.00  0.00     0.015 A 
HETATM   17  C   UNL     1      41.574  -9.641  13.520  1.00  0.00     0.024 A 
HETATM   18  C   UNL     1      42.111  -8.510  14.126  1.00  0.00     0.034 A 
HETATM   19 CL   UNL     1      41.500  -7.980  15.645  1.00  0.00    -0.084 Cl
HETATM   20  C   UNL     1      43.142  -7.803  13.511  1.00  0.00     0.024 A 
HETATM   21  C   UNL     1      43.638  -8.230  12.274  1.00  0.00     0.015 A 
ENDBRANCH  13  15
ENDBRANCH   5   9
BRANCH   1  22
HETATM   22  C   UNL     1      43.152 -13.780   3.356  1.00  0.00     0.107 C 
BRANCH  22  23
HETATM   23  C   UNL     1      42.445 -15.012   2.795  1.00  0.00     0.048 C 
BRANCH  23  24
HETATM   24  C   UNL     1      43.040 -16.275   3.373  1.00  0.00    -0.055 A 
HETATM   25  C   UNL     1      43.130 -17.436   2.585  1.00  0.00     0.044 A 
HETATM   26  C   UNL     1      43.726 -18.594   3.090  1.00  0.00     0.068 A 
HETATM   27  C   UNL     1      44.228 -18.589   4.392  1.00  0.00     0.037 A 
HETATM   28  C   UNL     1      44.144 -17.444   5.184  1.00  0.00     0.003 A 
HETATM   29  C   UNL     1      43.555 -16.287   4.674  1.00  0.00     0.007 A 
BRANCH  26  30
HETATM   30  O   UNL     1      43.881 -19.777   2.421  1.00  0.00    -0.356 OA
HETATM   31  C   UNL     1      43.885 -20.964   3.205  1.00  0.00     0.210 C 
ENDBRANCH  26  30
ENDBRANCH  23  24
ENDBRANCH  22  23
ENDBRANCH   1  22
TORSDOF 6
ENDMDL
MODEL 3
REMARK VINA RESULT:      -9.1      4.338      9.874
REMARK  6 active torsions:
REMARK  status: ('A' for Active; 'I' for Inactive)
REMARK    1  A    between atoms: O_2  and  C_3 
REMARK    2  A    between atoms: C_5  and  C_6 
REMARK    3  A    between atoms: C_6  and  C_7 
REMARK    4  A    between atoms: C_7  and  C_8 
REMARK       I    between atoms: C_8  and  N_9 
REMARK    5  A    between atoms: N_12  and  C_13 
REMARK    6  A    between atoms: C_17  and  C_18 
ROOT
HETATM    1  C   UNL     1      41.167 -13.903   2.966  1.00  0.00     0.220 C 
HETATM    2  N   UNL     1      41.410 -13.093   4.070  1.00  0.00    -0.349 N 
HETATM    3  C   UNL     1      41.675 -13.611   5.422  1.00  0.00     0.145 C 
HETATM    4  C   UNL     1      43.197 -13.738   5.642  1.00  0.00     0.144 C 
HETATM    5  N   UNL     1      43.869 -12.437   5.396  1.00  0.00    -0.363 N 
HETATM    6  C   UNL     1      43.560 -11.869   4.053  1.00  0.00     0.144 C 
HETATM    7  C   UNL     1      42.032 -11.782   3.838  1.00  0.00     0.145 C 
HETATM    8  O   UNL     1      41.288 -13.490   1.813  1.00  0.00    -0.273 OA
ENDROOT
BRANCH   5   9
HETATM    9  C   UNL     1      44.138 -11.613   6.453  1.00  0.00     0.122 A 
HETATM   10  N   UNL     1      45.414 -11.302   6.846  1.00  0.00    -0.262 N 
HETATM   11  H   UNL     1      46.279 -11.632   6.439  1.00  0.00     0.191 HD
HETATM   12  N   UNL     1      45.486 -10.504   7.922  1.00  0.00    -0.173 NA
HETATM   13  C   UNL     1      44.208 -10.308   8.279  1.00  0.00     0.090 A 
HETATM   14  C   UNL     1      43.336 -10.993   7.386  1.00  0.00     0.084 A 
BRANCH  13  15
HETATM   15  C   UNL     1      43.850  -9.504   9.453  1.00  0.00    -0.005 A 
HETATM   16  C   UNL     1      43.857 -10.078  10.735  1.00  0.00     0.015 A 
HETATM   17  C   UNL     1      43.499  -9.329  11.860  1.00  0.00     0.024 A 
HETATM   18  C   UNL     1      43.135  -7.994  11.711  1.00  0.00     0.034 A 
HETATM   19 CL   UNL     1      42.693  -7.068  13.091  1.00  0.00    -0.084 Cl
HETATM   20  C   UNL     1      43.128  -7.402  10.450  1.00  0.00     0.024 A 
HETATM   21  C   UNL     1      43.484  -8.156   9.325  1.00  0.00     0.015 A 
ENDBRANCH  13  15
ENDBRANCH   5   9
BRANCH   1  22
HETATM   22  C   UNL     1      40.746 -15.334   3.254  1.00  0.00     0.107 C 
BRANCH  22  23
HETATM   23  C   UNL     1      41.319 -16.324   2.243  1.00  0.00     0.048 C 
BRANCH  23  24
HETATM   24  C   UNL     1      42.416 -17.152   2.872  1.00  0.00    -0.055 A 
HETATM   25  C   UNL     1      42.914 -16.813   4.142  1.00  0.00     0.044 A 
HETATM   26  C   UNL     1      43.890 -17.600   4.755  1.00  0.00     0.068 A 
HETATM   27  C   UNL     1      44.373 -18.728   4.091  1.00  0.00     0.037 A 
HETATM   28  C   UNL     1      43.887 -19.075   2.830  1.00  0.00     0.003 A 
HETATM   29  C   UNL     1      42.907 -18.291   2.223  1.00  0.00     0.007 A 
BRANCH  26  30
HETATM   30  O   UNL     1      44.444 -17.381   5.988  1.00  0.00    -0.356 OA
HETATM   31  C   UNL     1      43.550 -17.304   7.091  1.00  0.00     0.210 C 
ENDBRANCH  26  30
ENDBRANCH  23  24
ENDBRANCH  22  23
ENDBRANCH   1  22
TORSDOF 6
ENDMDL
MODEL 4
REMARK VINA RESULT:      -8.5      2.372      3.398
REMARK  6 active torsions:
REMARK  status: ('A' for Active; 'I' for Inactive)
REMARK    1  A    between atoms: O_2  and  C_3 
REMARK    2  A    between atoms: C_5  and  C_6 
REMARK    3  A    between atoms: C_6  and  C_7 
REMARK    4  A    between atoms: C_7  and  C_8 
REMARK       I    between atoms: C_8  and  N_9 
REMARK    5  A    between atoms: N_12  and  C_13 
REMARK    6  A    between atoms: C_17  and  C_18 
ROOT
HETATM    1  C   UNL     1      41.554  -8.573   5.888  1.00  0.00     0.220 C 
HETATM    2  N   UNL     1      42.227  -9.696   5.415  1.00  0.00    -0.349 N 
HETATM    3  C   UNL     1      42.467 -10.904   6.220  1.00  0.00     0.145 C 
HETATM    4  C   UNL     1      41.342 -11.929   5.971  1.00  0.00     0.144 C 
HETATM    5  N   UNL     1      41.225 -12.232   4.522  1.00  0.00    -0.363 N 
HETATM    6  C   UNL     1      41.043 -11.012   3.687  1.00  0.00     0.144 C 
HETATM    7  C   UNL     1      42.160  -9.983   3.976  1.00  0.00     0.145 C 
HETATM    8  O   UNL     1      41.068  -7.736   5.129  1.00  0.00    -0.273 OA
ENDROOT
BRANCH   5   9
HETATM    9  C   UNL     1      41.860 -13.331   4.016  1.00  0.00     0.122 A 
HETATM   10  N   UNL     1      42.498 -13.326   2.803  1.00  0.00    -0.262 N 
HETATM   11  H   UNL     1      42.570 -12.557   2.150  1.00  0.00     0.191 HD
HETATM   12  N   UNL     1      43.040 -14.503   2.453  1.00  0.00    -0.173 NA
HETATM   13  C   UNL     1      42.715 -15.332   3.458  1.00  0.00     0.090 A 
HETATM   14  C   UNL     1      41.971 -14.634   4.451  1.00  0.00     0.084 A 
BRANCH  13  15
HETATM   15  C   UNL     1      43.097 -16.748   3.443  1.00  0.00    -0.005 A 
HETATM   16  C   UNL     1      42.869 -17.531   2.300  1.00  0.00     0.015 A 
HETATM   17  C   UNL     1      43.209 -18.887   2.279  1.00  0.00     0.024 A 
HETATM   18  C   UNL     1      43.788 -19.470   3.402  1.00  0.00     0.034 A 
HETATM   19 CL   UNL     1      44.208 -21.138   3.381  1.00  0.00    -0.084 Cl
HETATM   20  C   UNL     1      44.030 -18.710   4.544  1.00  0.00     0.024 A 
HETATM   21  C   UNL     1      43.685 -17.354   4.564  1.00  0.00     0.015 A 
ENDBRANCH  13  15
ENDBRANCH   5   9
BRANCH   1  22
HETATM   22  C   UNL     1      41.443  -8.434   7.396  1.00  0.00     0.107 C 
BRANCH  22  23
HETATM   23  C   UNL     1      42.549  -7.559   7.983  1.00  0.00     0.048 C 
BRANCH  23  24
HETATM   24  C   UNL     1      43.487  -8.385   8.832  1.00  0.00    -0.055 A 
HETATM   25  C   UNL     1      43.007  -9.041   9.979  1.00  0.00     0.044 A 
HETATM   26  C   UNL     1      43.852  -9.850  10.741  1.00  0.00     0.068 A 
HETATM   27  C   UNL     1      45.185  -9.997  10.356  1.00  0.00     0.037 A 
HETATM   28  C   UNL     1      45.673  -9.350   9.220  1.00  0.00     0.003 A 
HETATM   29  C   UNL     1      44.825  -8.549   8.456  1.00  0.00     0.007 A 
BRANCH  26  30
HETATM   30  O   UNL     1      43.502 -10.546  11.866  1.00  0.00    -0.356 OA
HETATM   31  C   UNL     1      42.323 -10.126  12.541  1.00  0.00     0.210 C 
ENDBRANCH  26  30
ENDBRANCH  23  24
ENDBRANCH  22  23
ENDBRANCH   1  22
TORSDOF 6
ENDMDL
MODEL 5
REMARK VINA RESULT:      -8.3      2.136      2.609
REMARK  6 active torsions:
REMARK  status: ('A' for Active; 'I' for Inactive)
REMARK    1  A    between atoms: O_2  and  C_3 
REMARK    2  A    between atoms: C_5  and  C_6 
REMARK    3  A    between atoms: C_6  and  C_7 
REMARK    4  A    between atoms: C_7  and  C_8 
REMARK       I    between atoms: C_8  and  N_9 
REMARK    5  A    between atoms: N_12  and  C_13 
REMARK    6  A    between atoms: C_17  and  C_18 
ROOT
HETATM    1  C   UNL     1      45.508  -9.242   8.333  1.00  0.00     0.220 C 
HETATM    2  N   UNL     1      45.214 -10.579   8.083  1.00  0.00    -0.349 N 
HETATM    3  C   UNL     1      43.975 -11.240   8.525  1.00  0.00     0.145 C 
HETATM    4  C   UNL     1      42.922 -11.180   7.399  1.00  0.00     0.144 C 
HETATM    5  N   UNL     1      43.462 -11.773   6.149  1.00  0.00    -0.363 N 
HETATM    6  C   UNL     1      44.749 -11.155   5.722  1.00  0.00     0.144 C 
HETATM    7  C   UNL     1      45.779 -11.194   6.875  1.00  0.00     0.145 C 
HETATM    8  O   UNL     1      46.353  -8.627   7.684  1.00  0.00    -0.273 OA
ENDROOT
BRANCH   5   9
HETATM    9  C   UNL     1      43.189 -13.080   5.857  1.00  0.00     0.122 A 
HETATM   10  N   UNL     1      42.487 -13.898   6.703  1.00  0.00    -0.262 N 
HETATM   11  H   UNL     1      42.108 -13.663   7.612  1.00  0.00     0.191 HD
HETATM   12  N   UNL     1      42.342 -15.159   6.266  1.00  0.00    -0.173 NA
HETATM   13  C   UNL     1      43.008 -15.187   5.101  1.00  0.00     0.090 A 
HETATM   14  C   UNL     1      43.557 -13.905   4.816  1.00  0.00     0.084 A 
BRANCH  13  15
HETATM   15  C   UNL     1      43.121 -16.415   4.308  1.00  0.00    -0.005 A 
HETATM   16  C   UNL     1      43.964 -17.456   4.729  1.00  0.00     0.015 A 
HETATM   17  C   UNL     1      44.096 -18.625   3.972  1.00  0.00     0.024 A 
HETATM   18  C   UNL     1      43.380 -18.763   2.787  1.00  0.00     0.034 A 
HETATM   19 CL   UNL     1      43.540 -20.198   1.852  1.00  0.00    -0.084 Cl
HETATM   20  C   UNL     1      42.532 -17.746   2.354  1.00  0.00     0.024 A 
HETATM   21  C   UNL     1      42.404 -16.576   3.112  1.00  0.00     0.015 A 
ENDBRANCH  13  15
ENDBRANCH   5   9
BRANCH   1  22
HETATM   22  C   UNL     1      44.726  -8.572   9.450  1.00  0.00     0.107 C 
BRANCH  22  23
HETATM   23  C   UNL     1      43.753  -7.517   8.929  1.00  0.00     0.048 C 
BRANCH  23  24
HETATM   24  C   UNL     1      43.080  -6.802  10.077  1.00  0.00    -0.055 A 
HETATM   25  C   UNL     1      42.673  -5.464   9.933  1.00  0.00     0.044 A 
HETATM   26  C   UNL     1      42.003  -4.810  10.969  1.00  0.00     0.068 A 
HETATM   27  C   UNL     1      41.745  -5.497  12.155  1.00  0.00     0.037 A 
HETATM   28  C   UNL     1      42.144  -6.825  12.310  1.00  0.00     0.003 A 
HETATM   29  C   UNL     1      42.806  -7.478  11.272  1.00  0.00     0.007 A 
BRANCH  26  30
HETATM   30  O   UNL     1      41.549  -3.519  10.945  1.00  0.00    -0.356 OA
HETATM   31  C   UNL     1      42.118  -2.655   9.969  1.00  0.00     0.210 C 
ENDBRANCH  26  30
ENDBRANCH  23  24
ENDBRANCH  22  23
ENDBRANCH   1  22
TORSDOF 6
ENDMDL
MODEL 6
REMARK VINA RESULT:      -8.3      4.756     10.489
REMARK  6 active torsions:
REMARK  status: ('A' for Active; 'I' for Inactive)
REMARK    1  A    between atoms: O_2  and  C_3 
REMARK    2  A    between atoms: C_5  and  C_6 
REMARK    3  A    between atoms: C_6  and  C_7 
REMARK    4  A    between atoms: C_7  and  C_8 
REMARK       I    between atoms: C_8  and  N_9 
REMARK    5  A    between atoms: N_12  and  C_13 
REMARK    6  A    between atoms: C_17  and  C_18 
ROOT
HETATM    1  C   UNL     1      40.543 -13.668   3.762  1.00  0.00     0.220 C 
HETATM    2  N   UNL     1      40.715 -13.006   4.974  1.00  0.00    -0.349 N 
HETATM    3  C   UNL     1      41.487 -13.552   6.101  1.00  0.00     0.145 C 
HETATM    4  C   UNL     1      42.940 -13.037   6.035  1.00  0.00     0.144 C 
HETATM    5  N   UNL     1      42.965 -11.553   6.002  1.00  0.00    -0.363 N 
HETATM    6  C   UNL     1      42.136 -10.982   4.902  1.00  0.00     0.144 C 
HETATM    7  C   UNL     1      40.694 -11.537   4.965  1.00  0.00     0.145 C 
HETATM    8  O   UNL     1      40.202 -13.077   2.738  1.00  0.00    -0.273 OA
ENDROOT
BRANCH   5   9
HETATM    9  C   UNL     1      43.143 -10.860   7.167  1.00  0.00     0.122 A 
HETATM   10  N   UNL     1      43.937 -11.315   8.187  1.00  0.00    -0.262 N 
HETATM   11  H   UNL     1      44.460 -12.181   8.219  1.00  0.00     0.191 HD
HETATM   12  N   UNL     1      43.968 -10.519   9.267  1.00  0.00    -0.173 NA
HETATM   13  C   UNL     1      43.130  -9.515   8.966  1.00  0.00     0.090 A 
HETATM   14  C   UNL     1      42.589  -9.699   7.662  1.00  0.00     0.084 A 
BRANCH  13  15
HETATM   15  C   UNL     1      42.852  -8.432   9.915  1.00  0.00    -0.005 A 
HETATM   16  C   UNL     1      42.983  -7.091   9.520  1.00  0.00     0.015 A 
HETATM   17  C   UNL     1      42.741  -6.049  10.420  1.00  0.00     0.024 A 
HETATM   18  C   UNL     1      42.358  -6.342  11.725  1.00  0.00     0.034 A 
HETATM   19 CL   UNL     1      42.059  -5.064  12.838  1.00  0.00    -0.084 Cl
HETATM   20  C   UNL     1      42.214  -7.665  12.137  1.00  0.00     0.024 A 
HETATM   21  C   UNL     1      42.461  -8.706  11.235  1.00  0.00     0.015 A 
ENDBRANCH  13  15
ENDBRANCH   5   9
BRANCH   1  22
HETATM   22  C   UNL     1      40.802 -15.164   3.764  1.00  0.00     0.107 C 
BRANCH  22  23
HETATM   23  C   UNL     1      41.896 -15.567   2.778  1.00  0.00     0.048 C 
BRANCH  23  24
HETATM   24  C   UNL     1      42.777 -16.641   3.372  1.00  0.00    -0.055 A 
HETATM   25  C   UNL     1      43.023 -17.827   2.658  1.00  0.00     0.044 A 
HETATM   26  C   UNL     1      43.878 -18.803   3.174  1.00  0.00     0.068 A 
HETATM   27  C   UNL     1      44.484 -18.592   4.413  1.00  0.00     0.037 A 
HETATM   28  C   UNL     1      44.248 -17.420   5.131  1.00  0.00     0.003 A 
HETATM   29  C   UNL     1      43.400 -16.444   4.611  1.00  0.00     0.007 A 
BRANCH  26  30
HETATM   30  O   UNL     1      44.203 -19.988   2.572  1.00  0.00    -0.356 OA
HETATM   31  C   UNL     1      43.315 -20.465   1.569  1.00  0.00     0.210 C 
ENDBRANCH  26  30
ENDBRANCH  23  24
ENDBRANCH  22  23
ENDBRANCH   1  22
TORSDOF 6
ENDMDL
MODEL 7
REMARK VINA RESULT:      -8.0      4.939     10.371
REMARK  6 active torsions:
REMARK  status: ('A' for Active; 'I' for Inactive)
REMARK    1  A    between atoms: O_2  and  C_3 
REMARK    2  A    between atoms: C_5  and  C_6 
REMARK    3  A    between atoms: C_6  and  C_7 
REMARK    4  A    between atoms: C_7  and  C_8 
REMARK       I    between atoms: C_8  and  N_9 
REMARK    5  A    between atoms: N_12  and  C_13 
REMARK    6  A    between atoms: C_17  and  C_18 
ROOT
HETATM    1  C   UNL     1      40.104 -14.372   2.642  1.00  0.00     0.220 C 
HETATM    2  N   UNL     1      39.841 -13.581   3.756  1.00  0.00    -0.349 N 
HETATM    3  C   UNL     1      40.336 -13.882   5.108  1.00  0.00     0.145 C 
HETATM    4  C   UNL     1      41.666 -13.140   5.354  1.00  0.00     0.144 C 
HETATM    5  N   UNL     1      41.498 -11.682   5.128  1.00  0.00    -0.363 N 
HETATM    6  C   UNL     1      40.937 -11.363   3.784  1.00  0.00     0.144 C 
HETATM    7  C   UNL     1      39.624 -12.144   3.544  1.00  0.00     0.145 C 
HETATM    8  O   UNL     1      39.985 -13.944   1.494  1.00  0.00    -0.273 OA
ENDROOT
BRANCH   5   9
HETATM    9  C   UNL     1      41.248 -10.865   6.195  1.00  0.00     0.122 A 
HETATM   10  N   UNL     1      40.060 -10.879   6.879  1.00  0.00    -0.262 N 
HETATM   11  H   UNL     1      39.249 -11.453   6.689  1.00  0.00     0.191 HD
HETATM   12  N   UNL     1      39.982  -9.986   7.878  1.00  0.00    -0.173 NA
HETATM   13  C   UNL     1      41.151  -9.329   7.831  1.00  0.00     0.090 A 
HETATM   14  C   UNL     1      41.966  -9.847   6.785  1.00  0.00     0.084 A 
BRANCH  13  15
HETATM   15  C   UNL     1      41.454  -8.229   8.752  1.00  0.00    -0.005 A 
HETATM   16  C   UNL     1      42.565  -7.400   8.526  1.00  0.00     0.015 A 
HETATM   17  C   UNL     1      42.877  -6.360   9.408  1.00  0.00     0.024 A 
HETATM   18  C   UNL     1      42.074  -6.137  10.522  1.00  0.00     0.034 A 
HETATM   19 CL   UNL     1      42.454  -4.860  11.610  1.00  0.00    -0.084 Cl
HETATM   20  C   UNL     1      40.963  -6.943  10.762  1.00  0.00     0.024 A 
HETATM   21  C   UNL     1      40.655  -7.985   9.880  1.00  0.00     0.015 A 
ENDBRANCH  13  15
ENDBRANCH   5   9
BRANCH   1  22
HETATM   22  C   UNL     1      40.554 -15.797   2.912  1.00  0.00     0.107 C 
BRANCH  22  23
HETATM   23  C   UNL     1      41.790 -16.182   2.104  1.00  0.00     0.048 C 
BRANCH  23  24
HETATM   24  C   UNL     1      42.661 -17.137   2.886  1.00  0.00    -0.055 A 
HETATM   25  C   UNL     1      42.898 -16.918   4.254  1.00  0.00     0.044 A 
HETATM   26  C   UNL     1      43.657 -17.822   4.998  1.00  0.00     0.068 A 
HETATM   27  C   UNL     1      44.186 -18.949   4.368  1.00  0.00     0.037 A 
HETATM   28  C   UNL     1      43.959 -19.178   3.011  1.00  0.00     0.003 A 
HETATM   29  C   UNL     1      43.194 -18.277   2.271  1.00  0.00     0.007 A 
BRANCH  26  30
HETATM   30  O   UNL     1      43.946 -17.724   6.333  1.00  0.00    -0.356 OA
HETATM   31  C   UNL     1      44.379 -16.454   6.805  1.00  0.00     0.210 C 
ENDBRANCH  26  30
ENDBRANCH  23  24
ENDBRANCH  22  23
ENDBRANCH   1  22
TORSDOF 6
ENDMDL
MODEL 8
REMARK VINA RESULT:      -7.9      2.275      3.093
REMARK  6 active torsions:
REMARK  status: ('A' for Active; 'I' for Inactive)
REMARK    1  A    between atoms: O_2  and  C_3 
REMARK    2  A    between atoms: C_5  and  C_6 
REMARK    3  A    between atoms: C_6  and  C_7 
REMARK    4  A    between atoms: C_7  and  C_8 
REMARK       I    between atoms: C_8  and  N_9 
REMARK    5  A    between atoms: N_12  and  C_13 
REMARK    6  A    between atoms: C_17  and  C_18 
ROOT
HETATM    1  C   UNL     1      41.664  -9.708   6.934  1.00  0.00     0.220 C 
HETATM    2  N   UNL     1      42.021 -10.986   6.513  1.00  0.00    -0.349 N 
HETATM    3  C   UNL     1      41.052 -12.001   6.071  1.00  0.00     0.145 C 
HETATM    4  C   UNL     1      40.896 -11.940   4.538  1.00  0.00     0.144 C 
HETATM    5  N   UNL     1      42.215 -12.093   3.873  1.00  0.00    -0.363 N 
HETATM    6  C   UNL     1      43.226 -11.111   4.356  1.00  0.00     0.144 C 
HETATM    7  C   UNL     1      43.342 -11.163   5.897  1.00  0.00     0.145 C 
HETATM    8  O   UNL     1      42.474  -8.782   6.969  1.00  0.00    -0.273 OA
ENDROOT
BRANCH   5   9
HETATM    9  C   UNL     1      42.602 -13.328   3.434  1.00  0.00     0.122 A 
HETATM   10  N   UNL     1      42.931 -13.582   2.128  1.00  0.00    -0.262 N 
HETATM   11  H   UNL     1      42.918 -12.931   1.354  1.00  0.00     0.191 HD
HETATM   12  N   UNL     1      43.257 -14.859   1.874  1.00  0.00    -0.173 NA
HETATM   13  C   UNL     1      43.103 -15.484   3.051  1.00  0.00     0.090 A 
HETATM   14  C   UNL     1      42.687 -14.559   4.050  1.00  0.00     0.084 A 
BRANCH  13  15
HETATM   15  C   UNL     1      43.331 -16.926   3.194  1.00  0.00    -0.005 A 
HETATM   16  C   UNL     1      43.861 -17.445   4.386  1.00  0.00     0.015 A 
HETATM   17  C   UNL     1      44.103 -18.815   4.528  1.00  0.00     0.024 A 
HETATM   18  C   UNL     1      43.810 -19.679   3.478  1.00  0.00     0.034 A 
HETATM   19 CL   UNL     1      44.106 -21.365   3.647  1.00  0.00    -0.084 Cl
HETATM   20  C   UNL     1      43.277 -19.187   2.289  1.00  0.00     0.024 A 
HETATM   21  C   UNL     1      43.039 -17.815   2.148  1.00  0.00     0.015 A 
ENDBRANCH  13  15
ENDBRANCH   5   9
BRANCH   1  22
HETATM   22  C   UNL     1      40.216  -9.510   7.347  1.00  0.00     0.107 C 
BRANCH  22  23
HETATM   23  C   UNL     1      40.043  -8.351   8.326  1.00  0.00     0.048 C 
BRANCH  23  24
HETATM   24  C   UNL     1      40.297  -8.810   9.743  1.00  0.00    -0.055 A 
HETATM   25  C   UNL     1      41.352  -8.254  10.487  1.00  0.00     0.044 A 
HETATM   26  C   UNL     1      41.563  -8.632  11.814  1.00  0.00     0.068 A 
HETATM   27  C   UNL     1      40.717  -9.576  12.397  1.00  0.00     0.037 A 
HETATM   28  C   UNL     1      39.666 -10.135  11.669  1.00  0.00     0.003 A 
HETATM   29  C   UNL     1      39.453  -9.751  10.346  1.00  0.00     0.007 A 
BRANCH  26  30
HETATM   30  O   UNL     1      42.545  -8.156  12.640  1.00  0.00    -0.356 OA
HETATM   31  C   UNL     1      42.381  -8.389  14.034  1.00  0.00     0.210 C 
ENDBRANCH  26  30
ENDBRANCH  23  24
ENDBRANCH  22  23
ENDBRANCH   1  22
TORSDOF 6
ENDMDL
MODEL 9
REMARK VINA RESULT:      -7.9      5.633      7.173
REMARK  6 active torsions:
REMARK  status: ('A' for Active; 'I' for Inactive)
REMARK    1  A    between atoms: O_2  and  C_3 
REMARK    2  A    between atoms: C_5  and  C_6 
REMARK    3  A    between atoms: C_6  and  C_7 
REMARK    4  A    between atoms: C_7  and  C_8 
REMARK       I    between atoms: C_8  and  N_9 
REMARK    5  A    between atoms: N_12  and  C_13 
REMARK    6  A    between atoms: C_17  and  C_18 
ROOT
HETATM    1  C   UNL     1      42.962 -13.954   5.678  1.00  0.00     0.220 C 
HETATM    2  N   UNL     1      41.962 -13.907   4.711  1.00  0.00    -0.349 N 
HETATM    3  C   UNL     1      41.459 -12.659   4.115  1.00  0.00     0.145 C 
HETATM    4  C   UNL     1      42.225 -12.358   2.810  1.00  0.00     0.144 C 
HETATM    5  N   UNL     1      42.131 -13.506   1.874  1.00  0.00    -0.363 N 
HETATM    6  C   UNL     1      42.578 -14.790   2.484  1.00  0.00     0.144 C 
HETATM    7  C   UNL     1      41.825 -15.056   3.807  1.00  0.00     0.145 C 
HETATM    8  O   UNL     1      43.599 -14.981   5.909  1.00  0.00    -0.273 OA
ENDROOT
BRANCH   5   9
HETATM    9  C   UNL     1      41.171 -13.498   0.901  1.00  0.00     0.122 A 
HETATM   10  N   UNL     1      41.025 -14.515  -0.006  1.00  0.00    -0.262 N 
HETATM   11  H   UNL     1      41.585 -15.354  -0.083  1.00  0.00     0.191 HD
HETATM   12  N   UNL     1      40.050 -14.321  -0.908  1.00  0.00    -0.173 NA
HETATM   13  C   UNL     1      39.555 -13.110  -0.609  1.00  0.00     0.090 A 
HETATM   14  C   UNL     1      40.236 -12.562   0.514  1.00  0.00     0.084 A 
BRANCH  13  15
HETATM   15  C   UNL     1      38.476 -12.504  -1.396  1.00  0.00    -0.005 A 
HETATM   16  C   UNL     1      38.181 -11.138  -1.261  1.00  0.00     0.015 A 
HETATM   17  C   UNL     1      37.141 -10.551  -1.990  1.00  0.00     0.024 A 
HETATM   18  C   UNL     1      36.391 -11.328  -2.867  1.00  0.00     0.034 A 
HETATM   19 CL   UNL     1      35.111 -10.612  -3.766  1.00  0.00    -0.084 Cl
HETATM   20  C   UNL     1      36.671 -12.684  -3.023  1.00  0.00     0.024 A 
HETATM   21  C   UNL     1      37.710 -13.269  -2.289  1.00  0.00     0.015 A 
ENDBRANCH  13  15
ENDBRANCH   5   9
BRANCH   1  22
HETATM   22  C   UNL     1      43.233 -12.666   6.437  1.00  0.00     0.107 C 
BRANCH  22  23
HETATM   23  C   UNL     1      44.725 -12.402   6.622  1.00  0.00     0.048 C 
BRANCH  23  24
HETATM   24  C   UNL     1      44.946 -11.216   7.531  1.00  0.00    -0.055 A 
HETATM   25  C   UNL     1      44.085 -10.990   8.619  1.00  0.00     0.044 A 
HETATM   26  C   UNL     1      44.310  -9.928   9.496  1.00  0.00     0.068 A 
HETATM   27  C   UNL     1      45.400  -9.084   9.278  1.00  0.00     0.037 A 
HETATM   28  C   UNL     1      46.262  -9.297   8.202  1.00  0.00     0.003 A 
HETATM   29  C   UNL     1      46.039 -10.363   7.332  1.00  0.00     0.007 A 
BRANCH  26  30
HETATM   30  O   UNL     1      43.553  -9.613  10.591  1.00  0.00    -0.356 OA
HETATM   31  C   UNL     1      43.538 -10.556  11.656  1.00  0.00     0.210 C 
ENDBRANCH  26  30
ENDBRANCH  23  24
ENDBRANCH  22  23
ENDBRANCH   1  22
TORSDOF 6
ENDMDL
MODEL 10
REMARK VINA RESULT:      -7.9      2.440      3.664
REMARK  6 active torsions:
REMARK  status: ('A' for Active; 'I' for Inactive)
REMARK    1  A    between atoms: O_2  and  C_3 
REMARK    2  A    between atoms: C_5  and  C_6 
REMARK    3  A    between atoms: C_6  and  C_7 
REMARK    4  A    between atoms: C_7  and  C_8 
REMARK       I    between atoms: C_8  and  N_9 
REMARK    5  A    between atoms: N_12  and  C_13 
REMARK    6  A    between atoms: C_17  and  C_18 
ROOT
HETATM    1  C   UNL     1      41.366  -7.804   5.864  1.00  0.00     0.220 C 
HETATM    2  N   UNL     1      41.756  -9.140   5.838  1.00  0.00    -0.349 N 
HETATM    3  C   UNL     1      41.521 -10.082   6.943  1.00  0.00     0.145 C 
HETATM    4  C   UNL     1      40.202 -10.846   6.706  1.00  0.00     0.144 C 
HETATM    5  N   UNL     1      40.223 -11.522   5.384  1.00  0.00    -0.363 N 
HETATM    6  C   UNL     1      40.522 -10.591   4.260  1.00  0.00     0.144 C 
HETATM    7  C   UNL     1      41.828  -9.810   4.533  1.00  0.00     0.145 C 
HETATM    8  O   UNL     1      41.258  -7.136   4.837  1.00  0.00    -0.273 OA
ENDROOT
BRANCH   5   9
HETATM    9  C   UNL     1      40.590 -12.837   5.312  1.00  0.00     0.122 A 
HETATM   10  N   UNL     1      40.368 -13.726   6.331  1.00  0.00    -0.262 N 
HETATM   11  H   UNL     1      39.941 -13.538   7.229  1.00  0.00     0.191 HD
HETATM   12  N   UNL     1      40.823 -14.967   6.096  1.00  0.00    -0.173 NA
HETATM   13  C   UNL     1      41.403 -14.887   4.889  1.00  0.00     0.090 A 
HETATM   14  C   UNL     1      41.281 -13.567   4.370  1.00  0.00     0.084 A 
BRANCH  13  15
HETATM   15  C   UNL     1      42.063 -16.043   4.273  1.00  0.00    -0.005 A 
HETATM   16  C   UNL     1      41.725 -16.442   2.970  1.00  0.00     0.015 A 
HETATM   17  C   UNL     1      42.333 -17.555   2.379  1.00  0.00     0.024 A 
HETATM   18  C   UNL     1      43.291 -18.274   3.087  1.00  0.00     0.034 A 
HETATM   19 CL   UNL     1      44.041 -19.643   2.365  1.00  0.00    -0.084 Cl
HETATM   20  C   UNL     1      43.647 -17.891   4.378  1.00  0.00     0.024 A 
HETATM   21  C   UNL     1      43.035 -16.779   4.969  1.00  0.00     0.015 A 
ENDBRANCH  13  15
ENDBRANCH   5   9
BRANCH   1  22
HETATM   22  C   UNL     1      41.075  -7.209   7.231  1.00  0.00     0.107 C 
BRANCH  22  23
HETATM   23  C   UNL     1      42.295  -6.524   7.841  1.00  0.00     0.048 C 
BRANCH  23  24
HETATM   24  C   UNL     1      42.903  -7.387   8.922  1.00  0.00    -0.055 A 
HETATM   25  C   UNL     1      43.934  -8.290   8.609  1.00  0.00     0.044 A 
HETATM   26  C   UNL     1      44.539  -9.053   9.608  1.00  0.00     0.068 A 
HETATM   27  C   UNL     1      44.105  -8.916  10.927  1.00  0.00     0.037 A 
HETATM   28  C   UNL     1      43.083  -8.024  11.251  1.00  0.00     0.003 A 
HETATM   29  C   UNL     1      42.485  -7.258  10.252  1.00  0.00     0.007 A 
BRANCH  26  30
HETATM   30  O   UNL     1      45.555  -9.953   9.431  1.00  0.00    -0.356 OA
HETATM   31  C   UNL     1      45.773 -10.424   8.107  1.00  0.00     0.210 C 
ENDBRANCH  26  30
ENDBRANCH  23  24
ENDBRANCH  22  23
ENDBRANCH   1  22
TORSDOF 6
ENDMDL
