MODEL 1
REMARK VINA RESULT:      -7.9      0.000      0.000
REMARK  4 active torsions:
REMARK  status: ('A' for Active; 'I' for Inactive)
REMARK    1  A    between atoms: C_2  and  N_3 
REMARK       I    between atoms: N_3  and  C_4 
REMARK       I    between atoms: C_4  and  N_5 
REMARK    2  A    between atoms: N_5  and  C_6 
REMARK    3  A    between atoms: C_14  and  C_15 
REMARK       I    between atoms: C_15  and  N_16 
REMARK    4  A    between atoms: N_16  and  C_17 
ROOT
HETATM    1  C   UNL     1      44.739  -9.376   9.990  1.00  0.00     0.031 A 
HETATM    2  C   UNL     1      43.506  -9.968   9.728  1.00  0.00     0.037 A 
HETATM    3  C   UNL     1      43.385 -10.805   8.612  1.00  0.00     0.048 A 
HETATM    4  C   UNL     1      44.481 -11.070   7.760  1.00  0.00     0.055 A 
HETATM    5  C   UNL     1      45.719 -10.489   8.061  1.00  0.00     0.049 A 
HETATM    6 CL   UNL     1      47.172 -10.759   7.161  1.00  0.00    -0.083 Cl
HETATM    7  C   UNL     1      45.839  -9.642   9.168  1.00  0.00     0.027 A 
ENDROOT
BRANCH   2   8
HETATM    8  N   UNL     1      42.352  -9.747  10.508  1.00  0.00    -0.309 N 
HETATM    9  C   UNL     1      41.390  -8.795  10.312  1.00  0.00     0.325 C 
HETATM   10  N   UNL     1      40.267  -8.880  11.088  1.00  0.00    -0.306 N 
HETATM   11  O   UNL     1      41.470  -7.852   9.527  1.00  0.00    -0.247 OA
HETATM   12  H   UNL     1      39.674  -8.063  10.996  1.00  0.00     0.171 HD
HETATM   13  H   UNL     1      42.339 -10.182  11.418  1.00  0.00     0.170 HD
BRANCH  10  14
HETATM   14  C   UNL     1      39.758  -9.926  11.830  1.00  0.00     0.072 A 
HETATM   15  C   UNL     1      39.994 -10.391  13.143  1.00  0.00     0.169 A 
HETATM   16  N   UNL     1      39.264 -11.469  13.445  1.00  0.00    -0.185 NA
HETATM   17  N   UNL     1      38.589 -11.721  12.313  1.00  0.00    -0.287 N 
HETATM   18  H   UNL     1      37.964 -12.521  12.293  1.00  0.00     0.188 HD
HETATM   19  C   UNL     1      38.860 -10.832  11.314  1.00  0.00     0.140 A 
ENDBRANCH  10  14
ENDBRANCH   2   8
BRANCH   4  20
HETATM   20  C   UNL     1      44.192 -11.971   6.600  1.00  0.00     0.253 C 
HETATM   21  N   UNL     1      43.631 -13.200   6.860  1.00  0.00    -0.352 N 
HETATM   22  H   UNL     1      43.476 -13.470   7.824  1.00  0.00     0.163 HD
HETATM   23  O   UNL     1      44.497 -11.613   5.467  1.00  0.00    -0.268 OA
BRANCH  21  24
HETATM   24  C   UNL     1      43.405 -14.200   5.823  1.00  0.00     0.084 C 
HETATM   25  C   UNL     1      43.672 -15.615   6.358  1.00  0.00     0.025 C 
HETATM   26  C   UNL     1      42.593 -16.085   7.333  1.00  0.00     0.002 C 
HETATM   27  C   UNL     1      41.199 -15.980   6.722  1.00  0.00     0.000 C 
HETATM   28  C   UNL     1      40.908 -14.570   6.217  1.00  0.00     0.002 C 
HETATM   29  C   UNL     1      41.987 -14.080   5.252  1.00  0.00     0.025 C 
ENDBRANCH  21  24
ENDBRANCH   4  20
TORSDOF 4
ENDMDL
MODEL 2
REMARK VINA RESULT:      -7.7      7.404     10.317
REMARK  4 active torsions:
REMARK  status: ('A' for Active; 'I' for Inactive)
REMARK    1  A    between atoms: C_2  and  N_3 
REMARK       I    between atoms: N_3  and  C_4 
REMARK       I    between atoms: C_4  and  N_5 
REMARK    2  A    between atoms: N_5  and  C_6 
REMARK    3  A    between atoms: C_14  and  C_15 
REMARK       I    between atoms: C_15  and  N_16 
REMARK    4  A    between atoms: N_16  and  C_17 
ROOT
HETATM    1  C   UNL     1      41.505 -14.912   4.444  1.00  0.00     0.031 A 
HETATM    2  C   UNL     1      41.903 -15.873   3.519  1.00  0.00     0.037 A 
HETATM    3  C   UNL     1      41.305 -15.876   2.252  1.00  0.00     0.048 A 
HETATM    4  C   UNL     1      40.324 -14.926   1.892  1.00  0.00     0.055 A 
HETATM    5  C   UNL     1      39.961 -13.949   2.828  1.00  0.00     0.049 A 
HETATM    6 CL   UNL     1      38.826 -12.678   2.529  1.00  0.00    -0.083 Cl
HETATM    7  C   UNL     1      40.549 -13.952   4.099  1.00  0.00     0.027 A 
ENDROOT
BRANCH   2   8
HETATM    8  N   UNL     1      42.858 -16.874   3.793  1.00  0.00    -0.309 N 
HETATM    9  C   UNL     1      43.712 -16.933   4.859  1.00  0.00     0.325 C 
HETATM   10  N   UNL     1      44.430 -18.088   5.014  1.00  0.00    -0.306 N 
HETATM   11  O   UNL     1      43.916 -16.024   5.661  1.00  0.00    -0.247 OA
HETATM   12  H   UNL     1      45.145 -18.002   5.727  1.00  0.00     0.171 HD
HETATM   13  H   UNL     1      43.092 -17.488   3.027  1.00  0.00     0.170 HD
BRANCH  10  14
HETATM   14  C   UNL     1      44.242 -19.347   4.482  1.00  0.00     0.072 A 
HETATM   15  C   UNL     1      43.983 -19.822   3.178  1.00  0.00     0.169 A 
HETATM   16  N   UNL     1      43.863 -21.153   3.130  1.00  0.00    -0.185 NA
HETATM   17  N   UNL     1      44.005 -21.529   4.410  1.00  0.00    -0.287 N 
HETATM   18  H   UNL     1      43.936 -22.517   4.632  1.00  0.00     0.188 HD
HETATM   19  C   UNL     1      44.222 -20.483   5.259  1.00  0.00     0.140 A 
ENDBRANCH  10  14
ENDBRANCH   2   8
BRANCH   4  20
HETATM   20  C   UNL     1      39.766 -15.067   0.510  1.00  0.00     0.253 C 
HETATM   21  N   UNL     1      39.626 -13.929  -0.250  1.00  0.00    -0.352 N 
HETATM   22  H   UNL     1      39.861 -13.036   0.165  1.00  0.00     0.163 HD
HETATM   23  O   UNL     1      39.413 -16.173   0.113  1.00  0.00    -0.268 OA
BRANCH  21  24
HETATM   24  C   UNL     1      38.996 -13.930  -1.565  1.00  0.00     0.084 C 
HETATM   25  C   UNL     1      38.043 -12.737  -1.719  1.00  0.00     0.025 C 
HETATM   26  C   UNL     1      38.787 -11.408  -1.850  1.00  0.00     0.002 C 
HETATM   27  C   UNL     1      39.810 -11.445  -2.980  1.00  0.00     0.000 C 
HETATM   28  C   UNL     1      40.785 -12.608  -2.821  1.00  0.00     0.002 C 
HETATM   29  C   UNL     1      40.056 -13.943  -2.674  1.00  0.00     0.025 C 
ENDBRANCH  21  24
ENDBRANCH   4  20
TORSDOF 4
ENDMDL
MODEL 3
REMARK VINA RESULT:      -7.6      3.530      8.431
REMARK  4 active torsions:
REMARK  status: ('A' for Active; 'I' for Inactive)
REMARK    1  A    between atoms: C_2  and  N_3 
REMARK       I    between atoms: N_3  and  C_4 
REMARK       I    between atoms: C_4  and  N_5 
REMARK    2  A    between atoms: N_5  and  C_6 
REMARK    3  A    between atoms: C_14  and  C_15 
REMARK       I    between atoms: C_15  and  N_16 
REMARK    4  A    between atoms: N_16  and  C_17 
ROOT
HETATM    1  C   UNL     1      41.867 -14.150   5.294  1.00  0.00     0.031 A 
HETATM    2  C   UNL     1      43.115 -14.599   5.719  1.00  0.00     0.037 A 
HETATM    3  C   UNL     1      43.986 -13.687   6.329  1.00  0.00     0.048 A 
HETATM    4  C   UNL     1      43.624 -12.336   6.532  1.00  0.00     0.055 A 
HETATM    5  C   UNL     1      42.352 -11.914   6.124  1.00  0.00     0.049 A 
HETATM    6 CL   UNL     1      41.730 -10.317   6.354  1.00  0.00    -0.083 Cl
HETATM    7  C   UNL     1      41.486 -12.821   5.503  1.00  0.00     0.027 A 
ENDROOT
BRANCH   2   8
HETATM    8  N   UNL     1      43.572 -15.921   5.542  1.00  0.00    -0.309 N 
HETATM    9  C   UNL     1      43.651 -16.903   6.490  1.00  0.00     0.325 C 
HETATM   10  N   UNL     1      43.958 -18.163   6.053  1.00  0.00    -0.306 N 
HETATM   11  O   UNL     1      43.507 -16.740   7.701  1.00  0.00    -0.247 OA
HETATM   12  H   UNL     1      44.148 -18.799   6.819  1.00  0.00     0.171 HD
HETATM   13  H   UNL     1      44.095 -16.102   4.699  1.00  0.00     0.170 HD
BRANCH  10  14
HETATM   14  C   UNL     1      43.904 -18.720   4.792  1.00  0.00     0.072 A 
HETATM   15  C   UNL     1      43.636 -18.194   3.509  1.00  0.00     0.169 A 
HETATM   16  N   UNL     1      43.687 -19.126   2.552  1.00  0.00    -0.185 NA
HETATM   17  N   UNL     1      43.948 -20.257   3.224  1.00  0.00    -0.287 N 
HETATM   18  H   UNL     1      44.021 -21.123   2.700  1.00  0.00     0.188 HD
HETATM   19  C   UNL     1      44.076 -20.067   4.570  1.00  0.00     0.140 A 
ENDBRANCH  10  14
ENDBRANCH   2   8
BRANCH   4  20
HETATM   20  C   UNL     1      44.667 -11.480   7.181  1.00  0.00     0.253 C 
HETATM   21  N   UNL     1      44.357 -10.884   8.382  1.00  0.00    -0.352 N 
HETATM   22  H   UNL     1      43.426 -11.007   8.760  1.00  0.00     0.163 HD
HETATM   23  O   UNL     1      45.739 -11.301   6.613  1.00  0.00    -0.268 OA
BRANCH  21  24
HETATM   24  C   UNL     1      45.251  -9.947   9.051  1.00  0.00     0.084 C 
HETATM   25  C   UNL     1      44.944  -8.502   8.633  1.00  0.00     0.025 C 
HETATM   26  C   UNL     1      43.631  -7.988   9.223  1.00  0.00     0.002 C 
HETATM   27  C   UNL     1      43.599  -8.141  10.740  1.00  0.00     0.000 C 
HETATM   28  C   UNL     1      43.869  -9.581  11.168  1.00  0.00     0.002 C 
HETATM   29  C   UNL     1      45.172 -10.114  10.574  1.00  0.00     0.025 C 
ENDBRANCH  21  24
ENDBRANCH   4  20
TORSDOF 4
ENDMDL
MODEL 4
REMARK VINA RESULT:      -7.4      2.497      7.464
REMARK  4 active torsions:
REMARK  status: ('A' for Active; 'I' for Inactive)
REMARK    1  A    between atoms: C_2  and  N_3 
REMARK       I    between atoms: N_3  and  C_4 
REMARK       I    between atoms: C_4  and  N_5 
REMARK    2  A    between atoms: N_5  and  C_6 
REMARK    3  A    between atoms: C_14  and  C_15 
REMARK       I    between atoms: C_15  and  N_16 
REMARK    4  A    between atoms: N_16  and  C_17 
ROOT
HETATM    1  C   UNL     1      45.212 -11.798   6.395  1.00  0.00     0.031 A 
HETATM    2  C   UNL     1      43.851 -11.725   6.110  1.00  0.00     0.037 A 
HETATM    3  C   UNL     1      43.044 -10.888   6.890  1.00  0.00     0.048 A 
HETATM    4  C   UNL     1      43.579 -10.113   7.944  1.00  0.00     0.055 A 
HETATM    5  C   UNL     1      44.955 -10.178   8.193  1.00  0.00     0.049 A 
HETATM    6 CL   UNL     1      45.778  -9.251   9.399  1.00  0.00    -0.083 Cl
HETATM    7  C   UNL     1      45.761 -11.024   7.422  1.00  0.00     0.027 A 
ENDROOT
BRANCH   2   8
HETATM    8  N   UNL     1      43.224 -12.475   5.094  1.00  0.00    -0.309 N 
HETATM    9  C   UNL     1      43.320 -12.282   3.743  1.00  0.00     0.325 C 
HETATM   10  N   UNL     1      42.766 -13.241   2.939  1.00  0.00    -0.306 N 
HETATM   11  O   UNL     1      43.825 -11.304   3.197  1.00  0.00    -0.247 OA
HETATM   12  H   UNL     1      42.740 -12.958   1.967  1.00  0.00     0.171 HD
HETATM   13  H   UNL     1      42.462 -13.069   5.384  1.00  0.00     0.170 HD
BRANCH  10  14
HETATM   14  C   UNL     1      42.391 -14.541   3.210  1.00  0.00     0.072 A 
HETATM   15  C   UNL     1      43.107 -15.751   3.341  1.00  0.00     0.169 A 
HETATM   16  N   UNL     1      42.312 -16.792   3.607  1.00  0.00    -0.185 NA
HETATM   17  N   UNL     1      41.081 -16.258   3.608  1.00  0.00    -0.287 N 
HETATM   18  H   UNL     1      40.290 -16.871   3.777  1.00  0.00     0.188 HD
HETATM   19  C   UNL     1      41.076 -14.915   3.364  1.00  0.00     0.140 A 
ENDBRANCH  10  14
ENDBRANCH   2   8
BRANCH   4  20
HETATM   20  C   UNL     1      42.589  -9.280   8.698  1.00  0.00     0.253 C 
HETATM   21  N   UNL     1      42.415  -9.539  10.038  1.00  0.00    -0.352 N 
HETATM   22  H   UNL     1      42.926 -10.307  10.455  1.00  0.00     0.163 HD
HETATM   23  O   UNL     1      41.936  -8.430   8.101  1.00  0.00    -0.268 OA
BRANCH  21  24
HETATM   24  C   UNL     1      41.405  -8.867  10.847  1.00  0.00     0.084 C 
HETATM   25  C   UNL     1      40.831  -9.816  11.908  1.00  0.00     0.025 C 
HETATM   26  C   UNL     1      41.827 -10.112  13.029  1.00  0.00     0.002 C 
HETATM   27  C   UNL     1      42.354  -8.831  13.665  1.00  0.00     0.000 C 
HETATM   28  C   UNL     1      42.959  -7.892  12.625  1.00  0.00     0.002 C 
HETATM   29  C   UNL     1      41.980  -7.598  11.489  1.00  0.00     0.025 C 
ENDBRANCH  21  24
ENDBRANCH   4  20
TORSDOF 4
ENDMDL
MODEL 5
REMARK VINA RESULT:      -7.2      3.103      7.366
REMARK  4 active torsions:
REMARK  status: ('A' for Active; 'I' for Inactive)
REMARK    1  A    between atoms: C_2  and  N_3 
REMARK       I    between atoms: N_3  and  C_4 
REMARK       I    between atoms: C_4  and  N_5 
REMARK    2  A    between atoms: N_5  and  C_6 
REMARK    3  A    between atoms: C_14  and  C_15 
REMARK       I    between atoms: C_15  and  N_16 
REMARK    4  A    between atoms: N_16  and  C_17 
ROOT
HETATM    1  C   UNL     1      44.145 -12.598   5.962  1.00  0.00     0.031 A 
HETATM    2  C   UNL     1      42.812 -12.210   5.854  1.00  0.00     0.037 A 
HETATM    3  C   UNL     1      42.352 -11.154   6.650  1.00  0.00     0.048 A 
HETATM    4  C   UNL     1      43.207 -10.470   7.543  1.00  0.00     0.055 A 
HETATM    5  C   UNL     1      44.551 -10.856   7.612  1.00  0.00     0.049 A 
HETATM    6 CL   UNL     1      45.742 -10.086   8.603  1.00  0.00    -0.083 Cl
HETATM    7  C   UNL     1      45.010 -11.920   6.827  1.00  0.00     0.027 A 
ENDROOT
BRANCH   2   8
HETATM    8  N   UNL     1      41.879 -12.845   5.007  1.00  0.00    -0.309 N 
HETATM    9  C   UNL     1      40.904 -13.732   5.369  1.00  0.00     0.325 C 
HETATM   10  N   UNL     1      39.999 -14.085   4.404  1.00  0.00    -0.306 N 
HETATM   11  O   UNL     1      40.798 -14.266   6.471  1.00  0.00    -0.247 OA
HETATM   12  H   UNL     1      39.406 -14.852   4.697  1.00  0.00     0.171 HD
HETATM   13  H   UNL     1      42.083 -12.817   4.020  1.00  0.00     0.170 HD
BRANCH  10  14
HETATM   14  C   UNL     1      39.678 -13.484   3.205  1.00  0.00     0.072 A 
HETATM   15  C   UNL     1      39.056 -12.262   2.865  1.00  0.00     0.169 A 
HETATM   16  N   UNL     1      38.942 -12.093   1.544  1.00  0.00    -0.185 NA
HETATM   17  N   UNL     1      39.455 -13.224   1.035  1.00  0.00    -0.287 N 
HETATM   18  H   UNL     1      39.464 -13.337   0.027  1.00  0.00     0.188 HD
HETATM   19  C   UNL     1      39.898 -14.093   1.990  1.00  0.00     0.140 A 
ENDBRANCH  10  14
ENDBRANCH   2   8
BRANCH   4  20
HETATM   20  C   UNL     1      42.566  -9.375   8.338  1.00  0.00     0.253 C 
HETATM   21  N   UNL     1      42.324  -9.603   9.673  1.00  0.00    -0.352 N 
HETATM   22  H   UNL     1      42.544 -10.512  10.059  1.00  0.00     0.163 HD
HETATM   23  O   UNL     1      42.239  -8.334   7.777  1.00  0.00    -0.268 OA
BRANCH  21  24
HETATM   24  C   UNL     1      41.609  -8.653  10.518  1.00  0.00     0.084 C 
HETATM   25  C   UNL     1      40.746  -9.384  11.556  1.00  0.00     0.025 C 
HETATM   26  C   UNL     1      41.582 -10.045  12.652  1.00  0.00     0.002 C 
HETATM   27  C   UNL     1      42.521  -9.047  13.321  1.00  0.00     0.000 C 
HETATM   28  C   UNL     1      43.410  -8.337  12.304  1.00  0.00     0.002 C 
HETATM   29  C   UNL     1      42.588  -7.684  11.193  1.00  0.00     0.025 C 
ENDBRANCH  21  24
ENDBRANCH   4  20
TORSDOF 4
ENDMDL
MODEL 6
REMARK VINA RESULT:      -7.1      3.183      4.742
REMARK  4 active torsions:
REMARK  status: ('A' for Active; 'I' for Inactive)
REMARK    1  A    between atoms: C_2  and  N_3 
REMARK       I    between atoms: N_3  and  C_4 
REMARK       I    between atoms: C_4  and  N_5 
REMARK    2  A    between atoms: N_5  and  C_6 
REMARK    3  A    between atoms: C_14  and  C_15 
REMARK       I    between atoms: C_15  and  N_16 
REMARK    4  A    between atoms: N_16  and  C_17 
ROOT
HETATM    1  C   UNL     1      42.856 -10.252   5.737  1.00  0.00     0.031 A 
HETATM    2  C   UNL     1      42.978 -11.251   6.698  1.00  0.00     0.037 A 
HETATM    3  C   UNL     1      42.469 -12.525   6.413  1.00  0.00     0.048 A 
HETATM    4  C   UNL     1      41.852 -12.818   5.177  1.00  0.00     0.055 A 
HETATM    5  C   UNL     1      41.768 -11.806   4.213  1.00  0.00     0.049 A 
HETATM    6 CL   UNL     1      41.102 -12.014   2.630  1.00  0.00    -0.083 Cl
HETATM    7  C   UNL     1      42.265 -10.529   4.501  1.00  0.00     0.027 A 
ENDROOT
BRANCH   2   8
HETATM    8  N   UNL     1      43.559 -11.049   7.967  1.00  0.00    -0.309 N 
HETATM    9  C   UNL     1      44.842 -10.662   8.238  1.00  0.00     0.325 C 
HETATM   10  N   UNL     1      45.136 -10.357   9.539  1.00  0.00    -0.306 N 
HETATM   11  O   UNL     1      45.758 -10.604   7.419  1.00  0.00    -0.247 OA
HETATM   12  H   UNL     1      46.130 -10.228   9.688  1.00  0.00     0.171 HD
HETATM   13  H   UNL     1      43.057 -11.434   8.754  1.00  0.00     0.170 HD
BRANCH  10  14
HETATM   14  C   UNL     1      44.312 -10.058  10.605  1.00  0.00     0.072 A 
HETATM   15  C   UNL     1      43.685 -10.842  11.598  1.00  0.00     0.169 A 
HETATM   16  N   UNL     1      42.955 -10.110  12.446  1.00  0.00    -0.185 NA
HETATM   17  N   UNL     1      43.081  -8.861  11.974  1.00  0.00    -0.287 N 
HETATM   18  H   UNL     1      42.592  -8.113  12.455  1.00  0.00     0.188 HD
HETATM   19  C   UNL     1      43.874  -8.780  10.866  1.00  0.00     0.140 A 
ENDBRANCH  10  14
ENDBRANCH   2   8
BRANCH   4  20
HETATM   20  C   UNL     1      41.343 -14.218   5.027  1.00  0.00     0.253 C 
HETATM   21  N   UNL     1      42.101 -15.106   4.298  1.00  0.00    -0.352 N 
HETATM   22  H   UNL     1      42.948 -14.772   3.854  1.00  0.00     0.163 HD
HETATM   23  O   UNL     1      40.259 -14.522   5.514  1.00  0.00    -0.268 OA
BRANCH  21  24
HETATM   24  C   UNL     1      41.656 -16.461   3.995  1.00  0.00     0.084 C 
HETATM   25  C   UNL     1      41.753 -16.747   2.490  1.00  0.00     0.025 C 
HETATM   26  C   UNL     1      43.198 -16.896   2.015  1.00  0.00     0.002 C 
HETATM   27  C   UNL     1      43.950 -17.947   2.824  1.00  0.00     0.000 C 
HETATM   28  C   UNL     1      43.891 -17.655   4.321  1.00  0.00     0.002 C 
HETATM   29  C   UNL     1      42.452 -17.489   4.809  1.00  0.00     0.025 C 
ENDBRANCH  21  24
ENDBRANCH   4  20
TORSDOF 4
ENDMDL
MODEL 7
REMARK VINA RESULT:      -7.0      2.273      2.837
REMARK  4 active torsions:
REMARK  status: ('A' for Active; 'I' for Inactive)
REMARK    1  A    between atoms: C_2  and  N_3 
REMARK       I    between atoms: N_3  and  C_4 
REMARK       I    between atoms: C_4  and  N_5 
REMARK    2  A    between atoms: N_5  and  C_6 
REMARK    3  A    between atoms: C_14  and  C_15 
REMARK       I    between atoms: C_15  and  N_16 
REMARK    4  A    between atoms: N_16  and  C_17 
ROOT
HETATM    1  C   UNL     1      45.450  -9.975   9.222  1.00  0.00     0.031 A 
HETATM    2  C   UNL     1      44.091 -10.204   9.425  1.00  0.00     0.037 A 
HETATM    3  C   UNL     1      43.347 -10.795   8.396  1.00  0.00     0.048 A 
HETATM    4  C   UNL     1      43.943 -11.172   7.171  1.00  0.00     0.055 A 
HETATM    5  C   UNL     1      45.317 -10.961   7.001  1.00  0.00     0.049 A 
HETATM    6 CL   UNL     1      46.212 -11.421   5.593  1.00  0.00    -0.083 Cl
HETATM    7  C   UNL     1      46.059 -10.359   8.024  1.00  0.00     0.027 A 
ENDROOT
BRANCH   2   8
HETATM    8  N   UNL     1      43.405  -9.844  10.603  1.00  0.00    -0.309 N 
HETATM    9  C   UNL     1      43.375 -10.529  11.785  1.00  0.00     0.325 C 
HETATM   10  N   UNL     1      42.788  -9.902  12.851  1.00  0.00    -0.306 N 
HETATM   11  O   UNL     1      43.793 -11.673  11.958  1.00  0.00    -0.247 OA
HETATM   12  H   UNL     1      42.666 -10.523  13.642  1.00  0.00     0.171 HD
HETATM   13  H   UNL     1      42.694  -9.134  10.505  1.00  0.00     0.170 HD
BRANCH  10  14
HETATM   14  C   UNL     1      42.487  -8.572  13.062  1.00  0.00     0.072 A 
HETATM   15  C   UNL     1      43.226  -7.476  13.558  1.00  0.00     0.169 A 
HETATM   16  N   UNL     1      42.509  -6.348  13.595  1.00  0.00    -0.185 NA
HETATM   17  N   UNL     1      41.298  -6.728  13.160  1.00  0.00    -0.287 N 
HETATM   18  H   UNL     1      40.563  -6.030  13.113  1.00  0.00     0.188 HD
HETATM   19  C   UNL     1      41.232  -8.053  12.839  1.00  0.00     0.140 A 
ENDBRANCH  10  14
ENDBRANCH   2   8
BRANCH   4  20
HETATM   20  C   UNL     1      43.016 -11.776   6.163  1.00  0.00     0.253 C 
HETATM   21  N   UNL     1      42.456 -12.999   6.452  1.00  0.00    -0.352 N 
HETATM   22  H   UNL     1      42.723 -13.466   7.310  1.00  0.00     0.163 HD
HETATM   23  O   UNL     1      42.816 -11.194   5.102  1.00  0.00    -0.268 OA
BRANCH  21  24
HETATM   24  C   UNL     1      41.625 -13.731   5.502  1.00  0.00     0.084 C 
HETATM   25  C   UNL     1      42.491 -14.483   4.482  1.00  0.00     0.025 C 
HETATM   26  C   UNL     1      43.207 -15.686   5.096  1.00  0.00     0.002 C 
HETATM   27  C   UNL     1      42.230 -16.629   5.789  1.00  0.00     0.000 C 
HETATM   28  C   UNL     1      41.385 -15.900   6.831  1.00  0.00     0.002 C 
HETATM   29  C   UNL     1      40.674 -14.686   6.235  1.00  0.00     0.025 C 
ENDBRANCH  21  24
ENDBRANCH   4  20
TORSDOF 4
ENDMDL
MODEL 8
REMARK VINA RESULT:      -7.0      2.454      7.402
REMARK  4 active torsions:
REMARK  status: ('A' for Active; 'I' for Inactive)
REMARK    1  A    between atoms: C_2  and  N_3 
REMARK       I    between atoms: N_3  and  C_4 
REMARK       I    between atoms: C_4  and  N_5 
REMARK    2  A    between atoms: N_5  and  C_6 
REMARK    3  A    between atoms: C_14  and  C_15 
REMARK       I    between atoms: C_15  and  N_16 
REMARK    4  A    between atoms: N_16  and  C_17 
ROOT
HETATM    1  C   UNL     1      45.099 -11.785   5.932  1.00  0.00     0.031 A 
HETATM    2  C   UNL     1      44.043 -12.430   6.572  1.00  0.00     0.037 A 
HETATM    3  C   UNL     1      43.702 -12.035   7.872  1.00  0.00     0.048 A 
HETATM    4  C   UNL     1      44.392 -10.997   8.537  1.00  0.00     0.055 A 
HETATM    5  C   UNL     1      45.430 -10.341   7.863  1.00  0.00     0.049 A 
HETATM    6 CL   UNL     1      46.332  -9.013   8.507  1.00  0.00    -0.083 Cl
HETATM    7  C   UNL     1      45.780 -10.744   6.568  1.00  0.00     0.027 A 
ENDROOT
BRANCH   2   8
HETATM    8  N   UNL     1      43.310 -13.489   5.998  1.00  0.00    -0.309 N 
HETATM    9  C   UNL     1      42.073 -13.421   5.420  1.00  0.00     0.325 C 
HETATM   10  N   UNL     1      41.630 -14.540   4.769  1.00  0.00    -0.306 N 
HETATM   11  O   UNL     1      41.313 -12.454   5.471  1.00  0.00    -0.247 OA
HETATM   12  H   UNL     1      40.655 -14.468   4.502  1.00  0.00     0.171 HD
HETATM   13  H   UNL     1      43.621 -14.421   6.225  1.00  0.00     0.170 HD
BRANCH  10  14
HETATM   14  C   UNL     1      42.314 -15.644   4.304  1.00  0.00     0.072 A 
HETATM   15  C   UNL     1      42.656 -16.888   4.878  1.00  0.00     0.169 A 
HETATM   16  N   UNL     1      43.347 -17.668   4.041  1.00  0.00    -0.185 NA
HETATM   17  N   UNL     1      43.483 -16.910   2.943  1.00  0.00    -0.287 N 
HETATM   18  H   UNL     1      43.998 -17.291   2.155  1.00  0.00     0.188 HD
HETATM   19  C   UNL     1      42.892 -15.685   3.056  1.00  0.00     0.140 A 
ENDBRANCH  10  14
ENDBRANCH   2   8
BRANCH   4  20
HETATM   20  C   UNL     1      43.924 -10.700   9.928  1.00  0.00     0.253 C 
HETATM   21  N   UNL     1      42.729 -10.034  10.079  1.00  0.00    -0.352 N 
HETATM   22  H   UNL     1      42.234  -9.730   9.249  1.00  0.00     0.163 HD
HETATM   23  O   UNL     1      44.628 -11.015  10.882  1.00  0.00    -0.268 OA
BRANCH  21  24
HETATM   24  C   UNL     1      42.227  -9.598  11.376  1.00  0.00     0.084 C 
HETATM   25  C   UNL     1      42.964  -8.339  11.855  1.00  0.00     0.025 C 
HETATM   26  C   UNL     1      42.577  -7.095  11.057  1.00  0.00     0.002 C 
HETATM   27  C   UNL     1      41.067  -6.879  11.051  1.00  0.00     0.000 C 
HETATM   28  C   UNL     1      40.323  -8.112  10.544  1.00  0.00     0.002 C 
HETATM   29  C   UNL     1      40.712  -9.368  11.323  1.00  0.00     0.025 C 
ENDBRANCH  21  24
ENDBRANCH   4  20
TORSDOF 4
ENDMDL
MODEL 9
REMARK VINA RESULT:      -7.0      3.521      8.078
REMARK  4 active torsions:
REMARK  status: ('A' for Active; 'I' for Inactive)
REMARK    1  A    between atoms: C_2  and  N_3 
REMARK       I    between atoms: N_3  and  C_4 
REMARK       I    between atoms: C_4  and  N_5 
REMARK    2  A    between atoms: N_5  and  C_6 
REMARK    3  A    between atoms: C_14  and  C_15 
REMARK       I    between atoms: C_15  and  N_16 
REMARK    4  A    between atoms: N_16  and  C_17 
ROOT
HETATM    1  C   UNL     1      41.212 -12.800   4.461  1.00  0.00     0.031 A 
HETATM    2  C   UNL     1      42.333 -13.528   4.852  1.00  0.00     0.037 A 
HETATM    3  C   UNL     1      43.299 -12.899   5.648  1.00  0.00     0.048 A 
HETATM    4  C   UNL     1      43.155 -11.559   6.071  1.00  0.00     0.055 A 
HETATM    5  C   UNL     1      42.004 -10.856   5.691  1.00  0.00     0.049 A 
HETATM    6 CL   UNL     1      41.643  -9.234   6.173  1.00  0.00    -0.083 Cl
HETATM    7  C   UNL     1      41.044 -11.479   4.885  1.00  0.00     0.027 A 
ENDROOT
BRANCH   2   8
HETATM    8  N   UNL     1      42.574 -14.862   4.464  1.00  0.00    -0.309 N 
HETATM    9  C   UNL     1      43.131 -15.296   3.293  1.00  0.00     0.325 C 
HETATM   10  N   UNL     1      43.432 -16.628   3.205  1.00  0.00    -0.306 N 
HETATM   11  O   UNL     1      43.345 -14.598   2.303  1.00  0.00    -0.247 OA
HETATM   12  H   UNL     1      43.695 -16.900   2.266  1.00  0.00     0.171 HD
HETATM   13  H   UNL     1      42.096 -15.574   4.996  1.00  0.00     0.170 HD
BRANCH  10  14
HETATM   14  C   UNL     1      43.575 -17.587   4.186  1.00  0.00     0.072 A 
HETATM   15  C   UNL     1      43.196 -17.652   5.545  1.00  0.00     0.169 A 
HETATM   16  N   UNL     1      43.556 -18.801   6.125  1.00  0.00    -0.185 NA
HETATM   17  N   UNL     1      44.200 -19.459   5.149  1.00  0.00    -0.287 N 
HETATM   18  H   UNL     1      44.587 -20.374   5.359  1.00  0.00     0.188 HD
HETATM   19  C   UNL     1      44.248 -18.769   3.973  1.00  0.00     0.140 A 
ENDBRANCH  10  14
ENDBRANCH   2   8
BRANCH   4  20
HETATM   20  C   UNL     1      44.277 -11.021   6.903  1.00  0.00     0.253 C 
HETATM   21  N   UNL     1      43.984 -10.573   8.170  1.00  0.00    -0.352 N 
HETATM   22  H   UNL     1      43.019 -10.580   8.478  1.00  0.00     0.163 HD
HETATM   23  O   UNL     1      45.405 -10.956   6.425  1.00  0.00    -0.268 OA
BRANCH  21  24
HETATM   24  C   UNL     1      44.973  -9.932   9.029  1.00  0.00     0.084 C 
HETATM   25  C   UNL     1      44.933  -8.406   8.869  1.00  0.00     0.025 C 
HETATM   26  C   UNL     1      43.685  -7.785   9.496  1.00  0.00     0.002 C 
HETATM   27  C   UNL     1      43.529  -8.189  10.958  1.00  0.00     0.000 C 
HETATM   28  C   UNL     1      43.533  -9.705  11.128  1.00  0.00     0.002 C 
HETATM   29  C   UNL     1      44.768 -10.343  10.493  1.00  0.00     0.025 C 
ENDBRANCH  21  24
ENDBRANCH   4  20
TORSDOF 4
ENDMDL
MODEL 10
REMARK VINA RESULT:      -6.8     19.932     21.699
REMARK  4 active torsions:
REMARK  status: ('A' for Active; 'I' for Inactive)
REMARK    1  A    between atoms: C_2  and  N_3 
REMARK       I    between atoms: N_3  and  C_4 
REMARK       I    between atoms: C_4  and  N_5 
REMARK    2  A    between atoms: N_5  and  C_6 
REMARK    3  A    between atoms: C_14  and  C_15 
REMARK       I    between atoms: C_15  and  N_16 
REMARK    4  A    between atoms: N_16  and  C_17 
ROOT
HETATM    1  C   UNL     1      42.380 -32.491   4.135  1.00  0.00     0.031 A 
HETATM    2  C   UNL     1      41.362 -32.289   3.207  1.00  0.00     0.037 A 
HETATM    3  C   UNL     1      41.568 -31.369   2.171  1.00  0.00     0.048 A 
HETATM    4  C   UNL     1      42.781 -30.657   2.042  1.00  0.00     0.055 A 
HETATM    5  C   UNL     1      43.803 -30.899   2.969  1.00  0.00     0.049 A 
HETATM    6 CL   UNL     1      45.367 -30.160   2.918  1.00  0.00    -0.083 Cl
HETATM    7  C   UNL     1      43.594 -31.808   4.012  1.00  0.00     0.027 A 
ENDROOT
BRANCH   2   8
HETATM    8  N   UNL     1      40.111 -32.937   3.265  1.00  0.00    -0.309 N 
HETATM    9  C   UNL     1      39.871 -34.281   3.190  1.00  0.00     0.325 C 
HETATM   10  N   UNL     1      38.593 -34.698   3.447  1.00  0.00    -0.306 N 
HETATM   11  O   UNL     1      40.695 -35.137   2.872  1.00  0.00    -0.247 OA
HETATM   12  H   UNL     1      38.457 -35.677   3.225  1.00  0.00     0.171 HD
HETATM   13  H   UNL     1      39.300 -32.353   3.130  1.00  0.00     0.170 HD
BRANCH  10  14
HETATM   14  C   UNL     1      37.546 -34.061   4.079  1.00  0.00     0.072 A 
HETATM   15  C   UNL     1      37.168 -33.921   5.433  1.00  0.00     0.169 A 
HETATM   16  N   UNL     1      36.048 -33.207   5.583  1.00  0.00    -0.185 NA
HETATM   17  N   UNL     1      35.684 -32.922   4.324  1.00  0.00    -0.287 N 
HETATM   18  H   UNL     1      34.834 -32.387   4.178  1.00  0.00     0.188 HD
HETATM   19  C   UNL     1      36.542 -33.421   3.388  1.00  0.00     0.140 A 
ENDBRANCH  10  14
ENDBRANCH   2   8
BRANCH   4  20
HETATM   20  C   UNL     1      42.846 -29.697   0.894  1.00  0.00     0.253 C 
HETATM   21  N   UNL     1      43.764 -29.941  -0.101  1.00  0.00    -0.352 N 
HETATM   22  H   UNL     1      44.391 -30.730  -0.001  1.00  0.00     0.163 HD
HETATM   23  O   UNL     1      42.119 -28.709   0.893  1.00  0.00    -0.268 OA
BRANCH  21  24
HETATM   24  C   UNL     1      43.990 -29.021  -1.209  1.00  0.00     0.084 C 
HETATM   25  C   UNL     1      45.118 -28.032  -0.880  1.00  0.00     0.025 C 
HETATM   26  C   UNL     1      46.496 -28.695  -0.881  1.00  0.00     0.002 C 
HETATM   27  C   UNL     1      46.767 -29.425  -2.192  1.00  0.00     0.000 C 
HETATM   28  C   UNL     1      45.670 -30.435  -2.515  1.00  0.00     0.002 C 
HETATM   29  C   UNL     1      44.285 -29.790  -2.503  1.00  0.00     0.025 C 
ENDBRANCH  21  24
ENDBRANCH   4  20
TORSDOF 4
ENDMDL
