MODEL 1
REMARK VINA RESULT:      -8.2      0.000      0.000
REMARK  8 active torsions:
REMARK  status: ('A' for Active; 'I' for Inactive)
REMARK    1  A    between atoms: C_2  and  C_3 
REMARK    2  A    between atoms: C_3  and  O_4 
REMARK    3  A    between atoms: O_4  and  C_5 
REMARK    4  A    between atoms: C_8  and  C_9 
REMARK    5  A    between atoms: C_13  and  C_14 
REMARK       I    between atoms: C_14  and  N_15 
REMARK    6  A    between atoms: N_15  and  N_16 
REMARK    7  A    between atoms: C_17  and  C_18 
REMARK    8  A    between atoms: C_20  and  O_21 
ROOT
HETATM    1  C   UNL     1      43.115 -13.258   6.088  1.00  0.00     0.089 A 
HETATM    2  N   UNL     1      42.180 -12.331   5.828  1.00  0.00    -0.174 NA
HETATM    3  N   UNL     1      42.427 -11.343   6.703  1.00  0.00    -0.272 N 
HETATM    4  H   UNL     1      41.847 -10.509   6.684  1.00  0.00     0.189 HD
HETATM    5  C   UNL     1      43.467 -11.595   7.555  1.00  0.00     0.121 A 
HETATM    6  C   UNL     1      43.933 -12.837   7.174  1.00  0.00     0.071 A 
ENDROOT
BRANCH   5   7
HETATM    7  C   UNL     1      43.870 -10.651   8.569  1.00  0.00     0.289 C 
HETATM    8  N   UNL     1      42.937 -10.475   9.580  1.00  0.00    -0.242 N 
HETATM    9  H   UNL     1      42.052 -10.962   9.541  1.00  0.00     0.192 HD
HETATM   10  O   UNL     1      44.951 -10.072   8.508  1.00  0.00    -0.264 OA
BRANCH   8  11
HETATM   11  N   UNL     1      43.199  -9.667  10.646  1.00  0.00    -0.184 NA
HETATM   12  C   UNL     1      42.252  -9.597  11.526  1.00  0.00     0.150 C 
BRANCH  12  13
HETATM   13  C   UNL     1      42.380  -8.792  12.756  1.00  0.00    -0.014 A 
HETATM   14  C   UNL     1      41.500  -8.981  13.829  1.00  0.00     0.049 A 
HETATM   15  C   UNL     1      41.629  -8.196  14.975  1.00  0.00     0.069 A 
HETATM   16  C   UNL     1      42.640  -7.232  15.036  1.00  0.00     0.037 A 
HETATM   17  C   UNL     1      43.518  -7.045  13.966  1.00  0.00     0.004 A 
HETATM   18  C   UNL     1      43.389  -7.827  12.820  1.00  0.00     0.013 A 
BRANCH  15  19
HETATM   19  O   UNL     1      40.840  -8.266  16.090  1.00  0.00    -0.356 OA
HETATM   20  C   UNL     1      41.344  -7.651  17.270  1.00  0.00     0.210 C 
ENDBRANCH  15  19
ENDBRANCH  12  13
ENDBRANCH   8  11
ENDBRANCH   5   7
BRANCH   1  21
HETATM   21  C   UNL     1      43.215 -14.507   5.330  1.00  0.00    -0.005 A 
HETATM   22  C   UNL     1      42.840 -14.558   3.980  1.00  0.00     0.016 A 
HETATM   23  C   UNL     1      42.967 -15.739   3.240  1.00  0.00     0.037 A 
HETATM   24  C   UNL     1      43.476 -16.890   3.838  1.00  0.00     0.068 A 
HETATM   25  C   UNL     1      43.828 -16.856   5.189  1.00  0.00     0.037 A 
HETATM   26  C   UNL     1      43.699 -15.675   5.931  1.00  0.00     0.016 A 
BRANCH  24  27
HETATM   27  O   UNL     1      43.668 -18.095   3.219  1.00  0.00    -0.351 OA
BRANCH  27  28
HETATM   28  C   UNL     1      44.166 -19.160   4.028  1.00  0.00     0.175 C 
BRANCH  28  29
HETATM   29  C   UNL     1      43.791 -20.481   3.364  1.00  0.00     0.022 C 
HETATM   30  C   UNL     1      43.493 -20.301   1.886  1.00  0.00     0.007 C 
ENDBRANCH  28  29
ENDBRANCH  27  28
ENDBRANCH  24  27
ENDBRANCH   1  21
TORSDOF 8
ENDMDL
MODEL 2
REMARK VINA RESULT:      -7.9      1.471     11.826
REMARK  8 active torsions:
REMARK  status: ('A' for Active; 'I' for Inactive)
REMARK    1  A    between atoms: C_2  and  C_3 
REMARK    2  A    between atoms: C_3  and  O_4 
REMARK    3  A    between atoms: O_4  and  C_5 
REMARK    4  A    between atoms: C_8  and  C_9 
REMARK    5  A    between atoms: C_13  and  C_14 
REMARK       I    between atoms: C_14  and  N_15 
REMARK    6  A    between atoms: N_15  and  N_16 
REMARK    7  A    between atoms: C_17  and  C_18 
REMARK    8  A    between atoms: C_20  and  O_21 
ROOT
HETATM    1  C   UNL     1      43.931  -9.774  10.586  1.00  0.00     0.089 A 
HETATM    2  N   UNL     1      45.134  -9.322  10.199  1.00  0.00    -0.174 NA
HETATM    3  N   UNL     1      45.385  -9.966   9.048  1.00  0.00    -0.272 N 
HETATM    4  H   UNL     1      46.248  -9.767   8.549  1.00  0.00     0.189 HD
HETATM    5  C   UNL     1      44.412 -10.852   8.676  1.00  0.00     0.121 A 
HETATM    6  C   UNL     1      43.452 -10.746   9.662  1.00  0.00     0.071 A 
ENDROOT
BRANCH   5   7
HETATM    7  C   UNL     1      44.516 -11.640   7.472  1.00  0.00     0.289 C 
HETATM    8  N   UNL     1      43.609 -12.687   7.403  1.00  0.00    -0.242 N 
HETATM    9  H   UNL     1      42.979 -12.862   8.173  1.00  0.00     0.192 HD
HETATM   10  O   UNL     1      45.347 -11.378   6.607  1.00  0.00    -0.264 OA
BRANCH   8  11
HETATM   11  N   UNL     1      43.536 -13.483   6.298  1.00  0.00    -0.184 NA
HETATM   12  C   UNL     1      43.593 -14.755   6.534  1.00  0.00     0.150 C 
BRANCH  12  13
HETATM   13  C   UNL     1      43.499 -15.759   5.458  1.00  0.00    -0.014 A 
HETATM   14  C   UNL     1      44.150 -16.993   5.572  1.00  0.00     0.049 A 
HETATM   15  C   UNL     1      44.062 -17.920   4.534  1.00  0.00     0.069 A 
HETATM   16  C   UNL     1      43.318 -17.603   3.392  1.00  0.00     0.037 A 
HETATM   17  C   UNL     1      42.667 -16.373   3.280  1.00  0.00     0.004 A 
HETATM   18  C   UNL     1      42.757 -15.445   4.315  1.00  0.00     0.013 A 
BRANCH  15  19
HETATM   19  O   UNL     1      44.649 -19.156   4.506  1.00  0.00    -0.356 OA
HETATM   20  C   UNL     1      44.081 -20.153   5.346  1.00  0.00     0.210 C 
ENDBRANCH  15  19
ENDBRANCH  12  13
ENDBRANCH   8  11
ENDBRANCH   5   7
BRANCH   1  21
HETATM   21  C   UNL     1      43.268  -9.303  11.804  1.00  0.00    -0.005 A 
HETATM   22  C   UNL     1      42.222 -10.037  12.380  1.00  0.00     0.016 A 
HETATM   23  C   UNL     1      41.609  -9.612  13.565  1.00  0.00     0.037 A 
HETATM   24  C   UNL     1      42.036  -8.445  14.195  1.00  0.00     0.068 A 
HETATM   25  C   UNL     1      43.059  -7.694  13.615  1.00  0.00     0.037 A 
HETATM   26  C   UNL     1      43.672  -8.117  12.429  1.00  0.00     0.016 A 
BRANCH  24  27
HETATM   27  O   UNL     1      41.533  -7.938  15.362  1.00  0.00    -0.351 OA
BRANCH  27  28
HETATM   28  C   UNL     1      42.193  -6.792  15.900  1.00  0.00     0.175 C 
BRANCH  28  29
HETATM   29  C   UNL     1      41.601  -6.501  17.275  1.00  0.00     0.022 C 
HETATM   30  C   UNL     1      41.183  -7.776  17.987  1.00  0.00     0.007 C 
ENDBRANCH  28  29
ENDBRANCH  27  28
ENDBRANCH  24  27
ENDBRANCH   1  21
TORSDOF 8
ENDMDL
MODEL 3
REMARK VINA RESULT:      -7.9      1.234      1.450
REMARK  8 active torsions:
REMARK  status: ('A' for Active; 'I' for Inactive)
REMARK    1  A    between atoms: C_2  and  C_3 
REMARK    2  A    between atoms: C_3  and  O_4 
REMARK    3  A    between atoms: O_4  and  C_5 
REMARK    4  A    between atoms: C_8  and  C_9 
REMARK    5  A    between atoms: C_13  and  C_14 
REMARK       I    between atoms: C_14  and  N_15 
REMARK    6  A    between atoms: N_15  and  N_16 
REMARK    7  A    between atoms: C_17  and  C_18 
REMARK    8  A    between atoms: C_20  and  O_21 
ROOT
HETATM    1  C   UNL     1      43.155 -13.464   5.448  1.00  0.00     0.089 A 
HETATM    2  N   UNL     1      42.641 -12.308   5.000  1.00  0.00    -0.174 NA
HETATM    3  N   UNL     1      42.935 -11.412   5.955  1.00  0.00    -0.272 N 
HETATM    4  H   UNL     1      42.657 -10.443   5.825  1.00  0.00     0.189 HD
HETATM    5  C   UNL     1      43.593 -11.936   7.033  1.00  0.00     0.121 A 
HETATM    6  C   UNL     1      43.749 -13.273   6.727  1.00  0.00     0.071 A 
ENDROOT
BRANCH   5   7
HETATM    7  C   UNL     1      43.982 -11.123   8.160  1.00  0.00     0.289 C 
HETATM    8  N   UNL     1      42.957 -10.343   8.674  1.00  0.00    -0.242 N 
HETATM    9  H   UNL     1      42.046 -10.353   8.237  1.00  0.00     0.192 HD
HETATM   10  O   UNL     1      45.129 -11.143   8.596  1.00  0.00    -0.264 OA
BRANCH   8  11
HETATM   11  N   UNL     1      43.148  -9.571   9.782  1.00  0.00    -0.184 NA
HETATM   12  C   UNL     1      42.095  -9.394  10.514  1.00  0.00     0.150 C 
BRANCH  12  13
HETATM   13  C   UNL     1      42.129  -8.610  11.763  1.00  0.00    -0.014 A 
HETATM   14  C   UNL     1      40.949  -8.116  12.331  1.00  0.00     0.049 A 
HETATM   15  C   UNL     1      41.007  -7.362  13.503  1.00  0.00     0.069 A 
HETATM   16  C   UNL     1      42.249  -7.113  14.097  1.00  0.00     0.037 A 
HETATM   17  C   UNL     1      43.426  -7.607  13.531  1.00  0.00     0.004 A 
HETATM   18  C   UNL     1      43.369  -8.358  12.360  1.00  0.00     0.013 A 
BRANCH  15  19
HETATM   19  O   UNL     1      39.941  -6.814  14.161  1.00  0.00    -0.356 OA
HETATM   20  C   UNL     1      38.685  -6.860  13.494  1.00  0.00     0.210 C 
ENDBRANCH  15  19
ENDBRANCH  12  13
ENDBRANCH   8  11
ENDBRANCH   5   7
BRANCH   1  21
HETATM   21  C   UNL     1      43.070 -14.711   4.685  1.00  0.00    -0.005 A 
HETATM   22  C   UNL     1      42.599 -14.710   3.364  1.00  0.00     0.016 A 
HETATM   23  C   UNL     1      42.550 -15.892   2.615  1.00  0.00     0.037 A 
HETATM   24  C   UNL     1      42.975 -17.096   3.175  1.00  0.00     0.068 A 
HETATM   25  C   UNL     1      43.421 -17.109   4.498  1.00  0.00     0.037 A 
HETATM   26  C   UNL     1      43.469 -15.928   5.249  1.00  0.00     0.016 A 
BRANCH  24  27
HETATM   27  O   UNL     1      42.995 -18.309   2.543  1.00  0.00    -0.351 OA
BRANCH  27  28
HETATM   28  C   UNL     1      44.138 -19.133   2.772  1.00  0.00     0.175 C 
BRANCH  28  29
HETATM   29  C   UNL     1      43.659 -20.563   2.993  1.00  0.00     0.022 C 
HETATM   30  C   UNL     1      43.863 -21.007   4.431  1.00  0.00     0.007 C 
ENDBRANCH  28  29
ENDBRANCH  27  28
ENDBRANCH  24  27
ENDBRANCH   1  21
TORSDOF 8
ENDMDL
MODEL 4
REMARK VINA RESULT:      -7.9      1.534     11.959
REMARK  8 active torsions:
REMARK  status: ('A' for Active; 'I' for Inactive)
REMARK    1  A    between atoms: C_2  and  C_3 
REMARK    2  A    between atoms: C_3  and  O_4 
REMARK    3  A    between atoms: O_4  and  C_5 
REMARK    4  A    between atoms: C_8  and  C_9 
REMARK    5  A    between atoms: C_13  and  C_14 
REMARK       I    between atoms: C_14  and  N_15 
REMARK    6  A    between atoms: N_15  and  N_16 
REMARK    7  A    between atoms: C_17  and  C_18 
REMARK    8  A    between atoms: C_20  and  O_21 
ROOT
HETATM    1  C   UNL     1      43.260  -9.103  11.136  1.00  0.00     0.089 A 
HETATM    2  N   UNL     1      43.381  -8.216  10.136  1.00  0.00    -0.174 NA
HETATM    3  N   UNL     1      43.827  -8.936   9.094  1.00  0.00    -0.272 N 
HETATM    4  H   UNL     1      43.979  -8.473   8.202  1.00  0.00     0.189 HD
HETATM    5  C   UNL     1      44.040 -10.257   9.376  1.00  0.00     0.121 A 
HETATM    6  C   UNL     1      43.677 -10.392  10.701  1.00  0.00     0.071 A 
ENDROOT
BRANCH   5   7
HETATM    7  C   UNL     1      44.528 -11.182   8.381  1.00  0.00     0.289 C 
HETATM    8  N   UNL     1      43.557 -12.037   7.881  1.00  0.00    -0.242 N 
HETATM    9  H   UNL     1      42.615 -12.000   8.244  1.00  0.00     0.192 HD
HETATM   10  O   UNL     1      45.705 -11.183   8.033  1.00  0.00    -0.264 OA
BRANCH   8  11
HETATM   11  N   UNL     1      43.846 -12.924   6.886  1.00  0.00    -0.184 NA
HETATM   12  C   UNL     1      43.275 -14.081   7.001  1.00  0.00     0.150 C 
BRANCH  12  13
HETATM   13  C   UNL     1      43.453 -15.148   5.998  1.00  0.00    -0.014 A 
HETATM   14  C   UNL     1      42.840 -15.059   4.743  1.00  0.00     0.049 A 
HETATM   15  C   UNL     1      43.008 -16.088   3.816  1.00  0.00     0.069 A 
HETATM   16  C   UNL     1      43.793 -17.196   4.156  1.00  0.00     0.037 A 
HETATM   17  C   UNL     1      44.405 -17.283   5.408  1.00  0.00     0.004 A 
HETATM   18  C   UNL     1      44.236 -16.256   6.335  1.00  0.00     0.013 A 
BRANCH  15  19
HETATM   19  O   UNL     1      42.466 -16.138   2.562  1.00  0.00    -0.356 OA
HETATM   20  C   UNL     1      43.325 -15.799   1.480  1.00  0.00     0.210 C 
ENDBRANCH  15  19
ENDBRANCH  12  13
ENDBRANCH   8  11
ENDBRANCH   5   7
BRANCH   1  21
HETATM   21  C   UNL     1      42.774  -8.726  12.465  1.00  0.00    -0.005 A 
HETATM   22  C   UNL     1      43.370  -7.672  13.173  1.00  0.00     0.016 A 
HETATM   23  C   UNL     1      42.887  -7.282  14.428  1.00  0.00     0.037 A 
HETATM   24  C   UNL     1      41.796  -7.939  14.994  1.00  0.00     0.068 A 
HETATM   25  C   UNL     1      41.213  -9.006  14.308  1.00  0.00     0.037 A 
HETATM   26  C   UNL     1      41.696  -9.398  13.054  1.00  0.00     0.016 A 
BRANCH  24  27
HETATM   27  O   UNL     1      41.220  -7.640  16.199  1.00  0.00    -0.351 OA
BRANCH  27  28
HETATM   28  C   UNL     1      41.931  -6.733  17.042  1.00  0.00     0.175 C 
BRANCH  28  29
HETATM   29  C   UNL     1      41.899  -7.278  18.465  1.00  0.00     0.022 C 
HETATM   30  C   UNL     1      40.532  -7.832  18.824  1.00  0.00     0.007 C 
ENDBRANCH  28  29
ENDBRANCH  27  28
ENDBRANCH  24  27
ENDBRANCH   1  21
TORSDOF 8
ENDMDL
MODEL 5
REMARK VINA RESULT:      -7.4      8.706     11.732
REMARK  8 active torsions:
REMARK  status: ('A' for Active; 'I' for Inactive)
REMARK    1  A    between atoms: C_2  and  C_3 
REMARK    2  A    between atoms: C_3  and  O_4 
REMARK    3  A    between atoms: O_4  and  C_5 
REMARK    4  A    between atoms: C_8  and  C_9 
REMARK    5  A    between atoms: C_13  and  C_14 
REMARK       I    between atoms: C_14  and  N_15 
REMARK    6  A    between atoms: N_15  and  N_16 
REMARK    7  A    between atoms: C_17  and  C_18 
REMARK    8  A    between atoms: C_20  and  O_21 
ROOT
HETATM    1  C   UNL     1      41.096 -15.472   1.588  1.00  0.00     0.089 A 
HETATM    2  N   UNL     1      39.916 -15.893   1.106  1.00  0.00    -0.174 NA
HETATM    3  N   UNL     1      39.538 -14.934   0.246  1.00  0.00    -0.272 N 
HETATM    4  H   UNL     1      38.666 -15.044  -0.265  1.00  0.00     0.189 HD
HETATM    5  C   UNL     1      40.404 -13.879   0.166  1.00  0.00     0.121 A 
HETATM    6  C   UNL     1      41.428 -14.205   1.031  1.00  0.00     0.071 A 
ENDROOT
BRANCH   5   7
HETATM    7  C   UNL     1      40.157 -12.751  -0.700  1.00  0.00     0.289 C 
HETATM    8  N   UNL     1      41.300 -12.227  -1.284  1.00  0.00    -0.242 N 
HETATM    9  H   UNL     1      42.206 -12.614  -1.059  1.00  0.00     0.192 HD
HETATM   10  O   UNL     1      39.021 -12.321  -0.880  1.00  0.00    -0.264 OA
BRANCH   8  11
HETATM   11  N   UNL     1      41.226 -11.201  -2.181  1.00  0.00    -0.184 NA
HETATM   12  C   UNL     1      41.719 -10.077  -1.768  1.00  0.00     0.150 C 
BRANCH  12  13
HETATM   13  C   UNL     1      41.747  -8.873  -2.620  1.00  0.00    -0.014 A 
HETATM   14  C   UNL     1      40.986  -8.808  -3.793  1.00  0.00     0.049 A 
HETATM   15  C   UNL     1      41.042  -7.667  -4.592  1.00  0.00     0.069 A 
HETATM   16  C   UNL     1      41.859  -6.598  -4.206  1.00  0.00     0.037 A 
HETATM   17  C   UNL     1      42.616  -6.662  -3.035  1.00  0.00     0.004 A 
HETATM   18  C   UNL     1      42.562  -7.803  -2.237  1.00  0.00     0.013 A 
BRANCH  15  19
HETATM   19  O   UNL     1      40.361  -7.469  -5.762  1.00  0.00    -0.356 OA
HETATM   20  C   UNL     1      39.218  -8.287  -5.983  1.00  0.00     0.210 C 
ENDBRANCH  15  19
ENDBRANCH  12  13
ENDBRANCH   8  11
ENDBRANCH   5   7
BRANCH   1  21
HETATM   21  C   UNL     1      41.871 -16.249   2.557  1.00  0.00    -0.005 A 
HETATM   22  C   UNL     1      42.877 -17.127   2.129  1.00  0.00     0.016 A 
HETATM   23  C   UNL     1      43.648 -17.845   3.052  1.00  0.00     0.037 A 
HETATM   24  C   UNL     1      43.427 -17.693   4.419  1.00  0.00     0.068 A 
HETATM   25  C   UNL     1      42.410 -16.841   4.853  1.00  0.00     0.037 A 
HETATM   26  C   UNL     1      41.637 -16.123   3.931  1.00  0.00     0.016 A 
BRANCH  24  27
HETATM   27  O   UNL     1      44.123 -18.320   5.416  1.00  0.00    -0.351 OA
BRANCH  27  28
HETATM   28  C   UNL     1      43.568 -19.535   5.920  1.00  0.00     0.175 C 
BRANCH  28  29
HETATM   29  C   UNL     1      44.390 -20.698   5.376  1.00  0.00     0.022 C 
HETATM   30  C   UNL     1      43.862 -21.181   4.037  1.00  0.00     0.007 C 
ENDBRANCH  28  29
ENDBRANCH  27  28
ENDBRANCH  24  27
ENDBRANCH   1  21
TORSDOF 8
ENDMDL
MODEL 6
REMARK VINA RESULT:      -7.3      1.995     11.414
REMARK  8 active torsions:
REMARK  status: ('A' for Active; 'I' for Inactive)
REMARK    1  A    between atoms: C_2  and  C_3 
REMARK    2  A    between atoms: C_3  and  O_4 
REMARK    3  A    between atoms: O_4  and  C_5 
REMARK    4  A    between atoms: C_8  and  C_9 
REMARK    5  A    between atoms: C_13  and  C_14 
REMARK       I    between atoms: C_14  and  N_15 
REMARK    6  A    between atoms: N_15  and  N_16 
REMARK    7  A    between atoms: C_17  and  C_18 
REMARK    8  A    between atoms: C_20  and  O_21 
ROOT
HETATM    1  C   UNL     1      44.146  -8.931   9.577  1.00  0.00     0.089 A 
HETATM    2  N   UNL     1      45.053  -8.319   8.799  1.00  0.00    -0.174 NA
HETATM    3  N   UNL     1      45.383  -9.237   7.876  1.00  0.00    -0.272 N 
HETATM    4  H   UNL     1      46.054  -8.991   7.153  1.00  0.00     0.189 HD
HETATM    5  C   UNL     1      44.757 -10.442   8.033  1.00  0.00     0.121 A 
HETATM    6  C   UNL     1      43.945 -10.269   9.136  1.00  0.00     0.071 A 
ENDROOT
BRANCH   5   7
HETATM    7  C   UNL     1      44.996 -11.550   7.140  1.00  0.00     0.289 C 
HETATM    8  N   UNL     1      44.008 -12.523   7.171  1.00  0.00    -0.242 N 
HETATM    9  H   UNL     1      43.229 -12.433   7.809  1.00  0.00     0.192 HD
HETATM   10  O   UNL     1      45.997 -11.594   6.431  1.00  0.00    -0.264 OA
BRANCH   8  11
HETATM   11  N   UNL     1      44.055 -13.600   6.335  1.00  0.00    -0.184 NA
HETATM   12  C   UNL     1      42.910 -13.971   5.855  1.00  0.00     0.150 C 
BRANCH  12  13
HETATM   13  C   UNL     1      42.782 -15.098   4.913  1.00  0.00    -0.014 A 
HETATM   14  C   UNL     1      43.575 -16.243   5.056  1.00  0.00     0.049 A 
HETATM   15  C   UNL     1      43.449 -17.290   4.143  1.00  0.00     0.069 A 
HETATM   16  C   UNL     1      42.527 -17.181   3.097  1.00  0.00     0.037 A 
HETATM   17  C   UNL     1      41.736 -16.039   2.956  1.00  0.00     0.004 A 
HETATM   18  C   UNL     1      41.862 -14.992   3.866  1.00  0.00     0.013 A 
BRANCH  15  19
HETATM   19  O   UNL     1      44.160 -18.459   4.157  1.00  0.00    -0.356 OA
HETATM   20  C   UNL     1      43.950 -19.323   5.268  1.00  0.00     0.210 C 
ENDBRANCH  15  19
ENDBRANCH  12  13
ENDBRANCH   8  11
ENDBRANCH   5   7
BRANCH   1  21
HETATM   21  C   UNL     1      43.505  -8.262  10.711  1.00  0.00    -0.005 A 
HETATM   22  C   UNL     1      42.797  -7.066  10.529  1.00  0.00     0.016 A 
HETATM   23  C   UNL     1      42.149  -6.440  11.601  1.00  0.00     0.037 A 
HETATM   24  C   UNL     1      42.197  -7.004  12.875  1.00  0.00     0.068 A 
HETATM   25  C   UNL     1      42.922  -8.181  13.070  1.00  0.00     0.037 A 
HETATM   26  C   UNL     1      43.572  -8.807  11.999  1.00  0.00     0.016 A 
BRANCH  24  27
HETATM   27  O   UNL     1      41.592  -6.502  13.995  1.00  0.00    -0.351 OA
BRANCH  27  28
HETATM   28  C   UNL     1      40.231  -6.094  13.859  1.00  0.00     0.175 C 
BRANCH  28  29
HETATM   29  C   UNL     1      39.377  -7.339  13.652  1.00  0.00     0.022 C 
HETATM   30  C   UNL     1      38.258  -7.092  12.655  1.00  0.00     0.007 C 
ENDBRANCH  28  29
ENDBRANCH  27  28
ENDBRANCH  24  27
ENDBRANCH   1  21
TORSDOF 8
ENDMDL
MODEL 7
REMARK VINA RESULT:      -7.1      9.209     11.374
REMARK  8 active torsions:
REMARK  status: ('A' for Active; 'I' for Inactive)
REMARK    1  A    between atoms: C_2  and  C_3 
REMARK    2  A    between atoms: C_3  and  O_4 
REMARK    3  A    between atoms: O_4  and  C_5 
REMARK    4  A    between atoms: C_8  and  C_9 
REMARK    5  A    between atoms: C_13  and  C_14 
REMARK       I    between atoms: C_14  and  N_15 
REMARK    6  A    between atoms: N_15  and  N_16 
REMARK    7  A    between atoms: C_17  and  C_18 
REMARK    8  A    between atoms: C_20  and  O_21 
ROOT
HETATM    1  C   UNL     1      40.763 -14.649   0.782  1.00  0.00     0.089 A 
HETATM    2  N   UNL     1      39.723 -15.070   0.044  1.00  0.00    -0.174 NA
HETATM    3  N   UNL     1      39.356 -13.995  -0.672  1.00  0.00    -0.272 N 
HETATM    4  H   UNL     1      38.586 -14.078  -1.330  1.00  0.00     0.189 HD
HETATM    5  C   UNL     1      40.089 -12.870  -0.410  1.00  0.00     0.121 A 
HETATM    6  C   UNL     1      41.013 -13.270   0.534  1.00  0.00     0.071 A 
ENDROOT
BRANCH   5   7
HETATM    7  C   UNL     1      39.830 -11.617  -1.079  1.00  0.00     0.289 C 
HETATM    8  N   UNL     1      40.972 -10.885  -1.366  1.00  0.00    -0.242 N 
HETATM    9  H   UNL     1      41.878 -11.226  -1.077  1.00  0.00     0.192 HD
HETATM   10  O   UNL     1      38.687 -11.263  -1.351  1.00  0.00    -0.264 OA
BRANCH   8  11
HETATM   11  N   UNL     1      40.900  -9.710  -2.056  1.00  0.00    -0.184 NA
HETATM   12  C   UNL     1      41.982  -8.999  -2.040  1.00  0.00     0.150 C 
BRANCH  12  13
HETATM   13  C   UNL     1      42.088  -7.715  -2.758  1.00  0.00    -0.014 A 
HETATM   14  C   UNL     1      42.295  -6.519  -2.060  1.00  0.00     0.049 A 
HETATM   15  C   UNL     1      42.374  -5.314  -2.758  1.00  0.00     0.069 A 
HETATM   16  C   UNL     1      42.249  -5.320  -4.151  1.00  0.00     0.037 A 
HETATM   17  C   UNL     1      42.045  -6.513  -4.848  1.00  0.00     0.004 A 
HETATM   18  C   UNL     1      41.963  -7.716  -4.151  1.00  0.00     0.013 A 
BRANCH  15  19
HETATM   19  O   UNL     1      42.565  -4.077  -2.208  1.00  0.00    -0.356 OA
HETATM   20  C   UNL     1      43.647  -3.943  -1.294  1.00  0.00     0.210 C 
ENDBRANCH  15  19
ENDBRANCH  12  13
ENDBRANCH   8  11
ENDBRANCH   5   7
BRANCH   1  21
HETATM   21  C   UNL     1      41.482 -15.532   1.702  1.00  0.00    -0.005 A 
HETATM   22  C   UNL     1      42.800 -15.928   1.430  1.00  0.00     0.016 A 
HETATM   23  C   UNL     1      43.507 -16.742   2.323  1.00  0.00     0.037 A 
HETATM   24  C   UNL     1      42.908 -17.170   3.506  1.00  0.00     0.068 A 
HETATM   25  C   UNL     1      41.588 -16.802   3.772  1.00  0.00     0.037 A 
HETATM   26  C   UNL     1      40.879 -15.990   2.879  1.00  0.00     0.016 A 
BRANCH  24  27
HETATM   27  O   UNL     1      43.499 -17.948   4.464  1.00  0.00    -0.351 OA
BRANCH  27  28
HETATM   28  C   UNL     1      44.488 -18.875   4.018  1.00  0.00     0.175 C 
BRANCH  28  29
HETATM   29  C   UNL     1      43.794 -20.191   3.685  1.00  0.00     0.022 C 
HETATM   30  C   UNL     1      43.741 -20.435   2.188  1.00  0.00     0.007 C 
ENDBRANCH  28  29
ENDBRANCH  27  28
ENDBRANCH  24  27
ENDBRANCH   1  21
TORSDOF 8
ENDMDL
MODEL 8
REMARK VINA RESULT:      -6.9      2.496     12.168
REMARK  8 active torsions:
REMARK  status: ('A' for Active; 'I' for Inactive)
REMARK    1  A    between atoms: C_2  and  C_3 
REMARK    2  A    between atoms: C_3  and  O_4 
REMARK    3  A    between atoms: O_4  and  C_5 
REMARK    4  A    between atoms: C_8  and  C_9 
REMARK    5  A    between atoms: C_13  and  C_14 
REMARK       I    between atoms: C_14  and  N_15 
REMARK    6  A    between atoms: N_15  and  N_16 
REMARK    7  A    between atoms: C_17  and  C_18 
REMARK    8  A    between atoms: C_20  and  O_21 
ROOT
HETATM    1  C   UNL     1      43.114  -8.685  10.370  1.00  0.00     0.089 A 
HETATM    2  N   UNL     1      42.955  -9.800  11.101  1.00  0.00    -0.174 NA
HETATM    3  N   UNL     1      43.411 -10.789  10.317  1.00  0.00    -0.272 N 
HETATM    4  H   UNL     1      43.409 -11.742  10.671  1.00  0.00     0.189 HD
HETATM    5  C   UNL     1      43.832 -10.378   9.083  1.00  0.00     0.121 A 
HETATM    6  C   UNL     1      43.649  -9.010   9.092  1.00  0.00     0.071 A 
ENDROOT
BRANCH   5   7
HETATM    7  C   UNL     1      44.345 -11.304   8.102  1.00  0.00     0.289 C 
HETATM    8  N   UNL     1      43.374 -12.104   7.519  1.00  0.00    -0.242 N 
HETATM    9  H   UNL     1      42.412 -12.031   7.818  1.00  0.00     0.192 HD
HETATM   10  O   UNL     1      45.543 -11.353   7.835  1.00  0.00    -0.264 OA
BRANCH   8  11
HETATM   11  N   UNL     1      43.690 -12.984   6.526  1.00  0.00    -0.184 NA
HETATM   12  C   UNL     1      42.956 -14.050   6.484  1.00  0.00     0.150 C 
BRANCH  12  13
HETATM   13  C   UNL     1      43.141 -15.092   5.456  1.00  0.00    -0.014 A 
HETATM   14  C   UNL     1      43.644 -16.352   5.798  1.00  0.00     0.049 A 
HETATM   15  C   UNL     1      43.828 -17.316   4.807  1.00  0.00     0.069 A 
HETATM   16  C   UNL     1      43.502 -17.008   3.482  1.00  0.00     0.037 A 
HETATM   17  C   UNL     1      42.998 -15.751   3.142  1.00  0.00     0.004 A 
HETATM   18  C   UNL     1      42.817 -14.787   4.131  1.00  0.00     0.013 A 
BRANCH  15  19
HETATM   19  O   UNL     1      44.315 -18.581   4.995  1.00  0.00    -0.356 OA
HETATM   20  C   UNL     1      44.195 -19.481   3.900  1.00  0.00     0.210 C 
ENDBRANCH  15  19
ENDBRANCH  12  13
ENDBRANCH   8  11
ENDBRANCH   5   7
BRANCH   1  21
HETATM   21  C   UNL     1      42.753  -7.357  10.873  1.00  0.00    -0.005 A 
HETATM   22  C   UNL     1      42.677  -6.260  10.004  1.00  0.00     0.016 A 
HETATM   23  C   UNL     1      42.297  -4.996  10.470  1.00  0.00     0.037 A 
HETATM   24  C   UNL     1      41.982  -4.810  11.815  1.00  0.00     0.068 A 
HETATM   25  C   UNL     1      42.080  -5.892  12.691  1.00  0.00     0.037 A 
HETATM   26  C   UNL     1      42.462  -7.156  12.227  1.00  0.00     0.016 A 
BRANCH  24  27
HETATM   27  O   UNL     1      41.579  -3.634  12.386  1.00  0.00    -0.351 OA
BRANCH  27  28
HETATM   28  C   UNL     1      41.506  -3.605  13.811  1.00  0.00     0.175 C 
BRANCH  28  29
HETATM   29  C   UNL     1      42.177  -2.326  14.299  1.00  0.00     0.022 C 
HETATM   30  C   UNL     1      43.224  -1.831  13.317  1.00  0.00     0.007 C 
ENDBRANCH  28  29
ENDBRANCH  27  28
ENDBRANCH  24  27
ENDBRANCH   1  21
TORSDOF 8
ENDMDL
MODEL 9
REMARK VINA RESULT:      -6.9      7.895     12.679
REMARK  8 active torsions:
REMARK  status: ('A' for Active; 'I' for Inactive)
REMARK    1  A    between atoms: C_2  and  C_3 
REMARK    2  A    between atoms: C_3  and  O_4 
REMARK    3  A    between atoms: O_4  and  C_5 
REMARK    4  A    between atoms: C_8  and  C_9 
REMARK    5  A    between atoms: C_13  and  C_14 
REMARK       I    between atoms: C_14  and  N_15 
REMARK    6  A    between atoms: N_15  and  N_16 
REMARK    7  A    between atoms: C_17  and  C_18 
REMARK    8  A    between atoms: C_20  and  O_21 
ROOT
HETATM    1  C   UNL     1      40.185 -11.931  -2.440  1.00  0.00     0.089 A 
HETATM    2  N   UNL     1      40.533 -12.977  -3.205  1.00  0.00    -0.174 NA
HETATM    3  N   UNL     1      40.681 -13.995  -2.342  1.00  0.00    -0.272 N 
HETATM    4  H   UNL     1      40.929 -14.914  -2.699  1.00  0.00     0.189 HD
HETATM    5  C   UNL     1      40.480 -13.655  -1.033  1.00  0.00     0.121 A 
HETATM    6  C   UNL     1      40.155 -12.314  -1.070  1.00  0.00     0.071 A 
ENDROOT
BRANCH   5   7
HETATM    7  C   UNL     1      40.606 -14.617   0.035  1.00  0.00     0.289 C 
HETATM    8  N   UNL     1      41.806 -14.540   0.725  1.00  0.00    -0.242 N 
HETATM    9  H   UNL     1      42.512 -13.876   0.440  1.00  0.00     0.192 HD
HETATM   10  O   UNL     1      39.709 -15.419   0.281  1.00  0.00    -0.264 OA
BRANCH   8  11
HETATM   11  N   UNL     1      42.049 -15.337   1.805  1.00  0.00    -0.184 NA
HETATM   12  C   UNL     1      42.861 -16.322   1.586  1.00  0.00     0.150 C 
BRANCH  12  13
HETATM   13  C   UNL     1      43.257 -17.264   2.650  1.00  0.00    -0.014 A 
HETATM   14  C   UNL     1      43.438 -16.822   3.966  1.00  0.00     0.049 A 
HETATM   15  C   UNL     1      43.830 -17.727   4.952  1.00  0.00     0.069 A 
HETATM   16  C   UNL     1      44.033 -19.069   4.611  1.00  0.00     0.037 A 
HETATM   17  C   UNL     1      43.850 -19.509   3.299  1.00  0.00     0.004 A 
HETATM   18  C   UNL     1      43.461 -18.606   2.312  1.00  0.00     0.013 A 
BRANCH  15  19
HETATM   19  O   UNL     1      44.050 -17.435   6.270  1.00  0.00    -0.356 OA
HETATM   20  C   UNL     1      44.689 -16.196   6.553  1.00  0.00     0.210 C 
ENDBRANCH  15  19
ENDBRANCH  12  13
ENDBRANCH   8  11
ENDBRANCH   5   7
BRANCH   1  21
HETATM   21  C   UNL     1      39.904 -10.607  -3.001  1.00  0.00    -0.005 A 
HETATM   22  C   UNL     1      38.676  -9.975  -2.762  1.00  0.00     0.016 A 
HETATM   23  C   UNL     1      38.414  -8.694  -3.262  1.00  0.00     0.037 A 
HETATM   24  C   UNL     1      39.381  -8.022  -4.009  1.00  0.00     0.068 A 
HETATM   25  C   UNL     1      40.596  -8.655  -4.273  1.00  0.00     0.037 A 
HETATM   26  C   UNL     1      40.858  -9.936  -3.774  1.00  0.00     0.016 A 
BRANCH  24  27
HETATM   27  O   UNL     1      39.254  -6.764  -4.533  1.00  0.00    -0.351 OA
BRANCH  27  28
HETATM   28  C   UNL     1      40.255  -6.354  -5.464  1.00  0.00     0.175 C 
BRANCH  28  29
HETATM   29  C   UNL     1      39.645  -6.374  -6.861  1.00  0.00     0.022 C 
HETATM   30  C   UNL     1      40.528  -7.117  -7.849  1.00  0.00     0.007 C 
ENDBRANCH  28  29
ENDBRANCH  27  28
ENDBRANCH  24  27
ENDBRANCH   1  21
TORSDOF 8
ENDMDL
MODEL 10
REMARK VINA RESULT:      -6.9      2.201      2.777
REMARK  8 active torsions:
REMARK  status: ('A' for Active; 'I' for Inactive)
REMARK    1  A    between atoms: C_2  and  C_3 
REMARK    2  A    between atoms: C_3  and  O_4 
REMARK    3  A    between atoms: O_4  and  C_5 
REMARK    4  A    between atoms: C_8  and  C_9 
REMARK    5  A    between atoms: C_13  and  C_14 
REMARK       I    between atoms: C_14  and  N_15 
REMARK    6  A    between atoms: N_15  and  N_16 
REMARK    7  A    between atoms: C_17  and  C_18 
REMARK    8  A    between atoms: C_20  and  O_21 
ROOT
HETATM    1  C   UNL     1      42.088 -14.146   4.651  1.00  0.00     0.089 A 
HETATM    2  N   UNL     1      40.777 -13.946   4.855  1.00  0.00    -0.174 NA
HETATM    3  N   UNL     1      40.689 -12.674   5.277  1.00  0.00    -0.272 N 
HETATM    4  H   UNL     1      39.773 -12.283   5.480  1.00  0.00     0.189 HD
HETATM    5  C   UNL     1      41.893 -12.037   5.393  1.00  0.00     0.121 A 
HETATM    6  C   UNL     1      42.822 -12.975   4.991  1.00  0.00     0.071 A 
ENDROOT
BRANCH   5   7
HETATM    7  C   UNL     1      41.994 -10.669   5.841  1.00  0.00     0.289 C 
HETATM    8  N   UNL     1      42.019 -10.527   7.221  1.00  0.00    -0.242 N 
HETATM    9  H   UNL     1      41.932 -11.340   7.814  1.00  0.00     0.192 HD
HETATM   10  O   UNL     1      42.050  -9.738   5.043  1.00  0.00    -0.264 OA
BRANCH   8  11
HETATM   11  N   UNL     1      42.179  -9.303   7.800  1.00  0.00    -0.184 NA
HETATM   12  C   UNL     1      41.887  -9.251   9.061  1.00  0.00     0.150 C 
BRANCH  12  13
HETATM   13  C   UNL     1      42.031  -8.013   9.850  1.00  0.00    -0.014 A 
HETATM   14  C   UNL     1      41.512  -7.928  11.147  1.00  0.00     0.049 A 
HETATM   15  C   UNL     1      41.644  -6.741  11.868  1.00  0.00     0.069 A 
HETATM   16  C   UNL     1      42.298  -5.652  11.283  1.00  0.00     0.037 A 
HETATM   17  C   UNL     1      42.817  -5.738   9.990  1.00  0.00     0.004 A 
HETATM   18  C   UNL     1      42.684  -6.922   9.268  1.00  0.00     0.013 A 
BRANCH  15  19
HETATM   19  O   UNL     1      41.182  -6.515  13.136  1.00  0.00    -0.356 OA
HETATM   20  C   UNL     1      40.114  -7.340  13.585  1.00  0.00     0.210 C 
ENDBRANCH  15  19
ENDBRANCH  12  13
ENDBRANCH   8  11
ENDBRANCH   5   7
BRANCH   1  21
HETATM   21  C   UNL     1      42.621 -15.419   4.160  1.00  0.00    -0.005 A 
HETATM   22  C   UNL     1      42.325 -15.867   2.865  1.00  0.00     0.016 A 
HETATM   23  C   UNL     1      42.861 -17.064   2.375  1.00  0.00     0.037 A 
HETATM   24  C   UNL     1      43.707 -17.832   3.174  1.00  0.00     0.068 A 
HETATM   25  C   UNL     1      43.986 -17.406   4.474  1.00  0.00     0.037 A 
HETATM   26  C   UNL     1      43.449 -16.210   4.965  1.00  0.00     0.016 A 
BRANCH  24  27
HETATM   27  O   UNL     1      44.308 -19.005   2.805  1.00  0.00    -0.351 OA
BRANCH  27  28
HETATM   28  C   UNL     1      43.465 -20.152   2.699  1.00  0.00     0.175 C 
BRANCH  28  29
HETATM   29  C   UNL     1      44.018 -21.237   3.616  1.00  0.00     0.022 C 
HETATM   30  C   UNL     1      43.880 -20.860   5.080  1.00  0.00     0.007 C 
ENDBRANCH  28  29
ENDBRANCH  27  28
ENDBRANCH  24  27
ENDBRANCH   1  21
TORSDOF 8
ENDMDL
