MODEL 1
REMARK VINA RESULT:      -8.6      0.000      0.000
REMARK  7 active torsions:
REMARK  status: ('A' for Active; 'I' for Inactive)
REMARK    1  A    between atoms: C_2  and  C_3 
REMARK    2  A    between atoms: C_5  and  N_6 
REMARK       I    between atoms: N_6  and  C_7 
REMARK    3  A    between atoms: C_7  and  C_8 
REMARK    4  A    between atoms: C_8  and  S_9 
REMARK    5  A    between atoms: S_9  and  C_10 
REMARK    6  A    between atoms: C_12  and  C_13 
REMARK    7  A    between atoms: C_14  and  O_15 
ROOT
HETATM    1  C   UNL     1      40.078 -13.879   3.041  1.00  0.00     0.185 A 
HETATM    2  N   UNL     1      41.232 -14.354   3.435  1.00  0.00    -0.201 NA
HETATM    3  C   UNL     1      41.155 -15.694   3.077  1.00  0.00     0.184 A 
HETATM    4  N   UNL     1      40.013 -16.026   2.451  1.00  0.00    -0.152 NA
HETATM    5  N   UNL     1      39.348 -14.857   2.448  1.00  0.00    -0.253 N 
HETATM    6  H   UNL     1      38.419 -14.801   2.047  1.00  0.00     0.191 HD
ENDROOT
BRANCH   1   7
HETATM    7  S   UNL     1      39.469 -12.282   3.209  1.00  0.00    -0.081 SA
BRANCH   7   8
HETATM    8  C   UNL     1      39.788 -11.972   4.971  1.00  0.00     0.185 C 
BRANCH   8   9
HETATM    9  C   UNL     1      41.113 -11.246   5.178  1.00  0.00     0.231 C 
HETATM   10  N   UNL     1      41.898 -11.820   6.168  1.00  0.00    -0.327 N 
HETATM   11  H   UNL     1      41.524 -12.634   6.644  1.00  0.00     0.169 HD
HETATM   12  O   UNL     1      41.417 -10.267   4.499  1.00  0.00    -0.272 OA
BRANCH  10  13
HETATM   13  C   UNL     1      43.154 -11.381   6.640  1.00  0.00     0.035 A 
HETATM   14  C   UNL     1      43.330 -10.325   7.537  1.00  0.00     0.044 A 
HETATM   15  C   UNL     1      44.616  -9.959   7.962  1.00  0.00     0.011 A 
HETATM   16  C   UNL     1      45.729 -10.659   7.482  1.00  0.00     0.015 A 
HETATM   17  C   UNL     1      45.562 -11.712   6.588  1.00  0.00     0.003 A 
HETATM   18  C   UNL     1      44.280 -12.069   6.169  1.00  0.00     0.029 A 
BRANCH  15  19
HETATM   19  C   UNL     1      44.846  -8.839   8.923  1.00  0.00     0.155 C 
HETATM   20  C   UNL     1      44.726  -9.103  10.402  1.00  0.00     0.096 C 
HETATM   21  O   UNL     1      45.128  -7.719   8.500  1.00  0.00    -0.293 OA
ENDBRANCH  15  19
ENDBRANCH  10  13
ENDBRANCH   8   9
ENDBRANCH   7   8
ENDBRANCH   1   7
BRANCH   3  22
HETATM   22  C   UNL     1      42.236 -16.627   3.386  1.00  0.00     0.048 A 
HETATM   23  C   UNL     1      43.101 -16.412   4.476  1.00  0.00     0.080 A 
HETATM   24  C   UNL     1      44.116 -17.317   4.782  1.00  0.00     0.039 A 
HETATM   25  C   UNL     1      44.289 -18.455   3.996  1.00  0.00     0.022 A 
HETATM   26  C   UNL     1      43.446 -18.676   2.909  1.00  0.00     0.012 A 
HETATM   27 BR   UNL     1      43.687 -20.216   1.836  1.00  0.00    -0.051 Br
HETATM   28  C   UNL     1      42.425 -17.775   2.601  1.00  0.00     0.037 A 
BRANCH  23  29
HETATM   29  O   UNL     1      43.006 -15.312   5.293  1.00  0.00    -0.360 OA
HETATM   30  H   UNL     1      43.919 -14.967   5.387  1.00  0.00     0.217 HD
ENDBRANCH  23  29
ENDBRANCH   3  22
TORSDOF 7
ENDMDL
MODEL 2
REMARK VINA RESULT:      -8.5      3.970      7.314
REMARK  7 active torsions:
REMARK  status: ('A' for Active; 'I' for Inactive)
REMARK    1  A    between atoms: C_2  and  C_3 
REMARK    2  A    between atoms: C_5  and  N_6 
REMARK       I    between atoms: N_6  and  C_7 
REMARK    3  A    between atoms: C_7  and  C_8 
REMARK    4  A    between atoms: C_8  and  S_9 
REMARK    5  A    between atoms: S_9  and  C_10 
REMARK    6  A    between atoms: C_12  and  C_13 
REMARK    7  A    between atoms: C_14  and  O_15 
ROOT
HETATM    1  C   UNL     1      42.179 -12.776   4.619  1.00  0.00     0.185 A 
HETATM    2  N   UNL     1      42.317 -12.975   3.333  1.00  0.00    -0.201 NA
HETATM    3  C   UNL     1      41.007 -13.151   2.904  1.00  0.00     0.184 A 
HETATM    4  N   UNL     1      40.093 -13.027   3.880  1.00  0.00    -0.152 NA
HETATM    5  N   UNL     1      40.864 -12.795   4.957  1.00  0.00    -0.253 N 
HETATM    6  H   UNL     1      40.442 -12.674   5.870  1.00  0.00     0.191 HD
ENDROOT
BRANCH   1   7
HETATM    7  S   UNL     1      43.403 -12.529   5.798  1.00  0.00    -0.081 SA
BRANCH   7   8
HETATM    8  C   UNL     1      43.124 -13.953   6.892  1.00  0.00     0.185 C 
BRANCH   8   9
HETATM    9  C   UNL     1      42.673 -15.179   6.105  1.00  0.00     0.231 C 
HETATM   10  N   UNL     1      43.611 -15.601   5.173  1.00  0.00    -0.327 N 
HETATM   11  H   UNL     1      44.471 -15.068   5.105  1.00  0.00     0.169 HD
HETATM   12  O   UNL     1      41.588 -15.713   6.323  1.00  0.00    -0.272 OA
BRANCH  10  13
HETATM   13  C   UNL     1      43.500 -16.670   4.257  1.00  0.00     0.035 A 
HETATM   14  C   UNL     1      43.806 -17.999   4.562  1.00  0.00     0.044 A 
HETATM   15  C   UNL     1      43.658 -19.003   3.593  1.00  0.00     0.011 A 
HETATM   16  C   UNL     1      43.201 -18.668   2.313  1.00  0.00     0.015 A 
HETATM   17  C   UNL     1      42.895 -17.346   2.002  1.00  0.00     0.003 A 
HETATM   18  C   UNL     1      43.045 -16.354   2.970  1.00  0.00     0.029 A 
BRANCH  15  19
HETATM   19  C   UNL     1      43.970 -20.435   3.880  1.00  0.00     0.155 C 
HETATM   20  C   UNL     1      44.227 -20.861   5.302  1.00  0.00     0.096 C 
HETATM   21  O   UNL     1      44.014 -21.248   2.957  1.00  0.00    -0.293 OA
ENDBRANCH  15  19
ENDBRANCH  10  13
ENDBRANCH   8   9
ENDBRANCH   7   8
ENDBRANCH   1   7
BRANCH   3  22
HETATM   22  C   UNL     1      40.700 -13.458   1.509  1.00  0.00     0.048 A 
HETATM   23  C   UNL     1      40.067 -14.662   1.145  1.00  0.00     0.080 A 
HETATM   24  C   UNL     1      39.754 -14.940  -0.185  1.00  0.00     0.039 A 
HETATM   25  C   UNL     1      40.076 -14.017  -1.179  1.00  0.00     0.022 A 
HETATM   26  C   UNL     1      40.711 -12.826  -0.834  1.00  0.00     0.012 A 
HETATM   27 BR   UNL     1      41.155 -11.579  -2.185  1.00  0.00    -0.051 Br
HETATM   28  C   UNL     1      41.022 -12.541   0.496  1.00  0.00     0.037 A 
BRANCH  23  29
HETATM   29  O   UNL     1      39.727 -15.628   2.060  1.00  0.00    -0.360 OA
HETATM   30  H   UNL     1      39.966 -16.485   1.648  1.00  0.00     0.217 HD
ENDBRANCH  23  29
ENDBRANCH   3  22
TORSDOF 7
ENDMDL
MODEL 3
REMARK VINA RESULT:      -8.5      4.070      8.993
REMARK  7 active torsions:
REMARK  status: ('A' for Active; 'I' for Inactive)
REMARK    1  A    between atoms: C_2  and  C_3 
REMARK    2  A    between atoms: C_5  and  N_6 
REMARK       I    between atoms: N_6  and  C_7 
REMARK    3  A    between atoms: C_7  and  C_8 
REMARK    4  A    between atoms: C_8  and  S_9 
REMARK    5  A    between atoms: S_9  and  C_10 
REMARK    6  A    between atoms: C_12  and  C_13 
REMARK    7  A    between atoms: C_14  and  O_15 
ROOT
HETATM    1  C   UNL     1      43.911 -11.053   6.676  1.00  0.00     0.185 A 
HETATM    2  N   UNL     1      43.256 -10.247   7.471  1.00  0.00    -0.201 NA
HETATM    3  C   UNL     1      43.956 -10.352   8.666  1.00  0.00     0.184 A 
HETATM    4  N   UNL     1      45.025 -11.164   8.601  1.00  0.00    -0.152 NA
HETATM    5  N   UNL     1      44.968 -11.598   7.329  1.00  0.00    -0.253 N 
HETATM    6  H   UNL     1      45.656 -12.257   6.984  1.00  0.00     0.191 HD
ENDROOT
BRANCH   1   7
HETATM    7  S   UNL     1      43.569 -11.449   5.039  1.00  0.00    -0.081 SA
BRANCH   7   8
HETATM    8  C   UNL     1      41.845 -12.008   5.171  1.00  0.00     0.185 C 
BRANCH   8   9
HETATM    9  C   UNL     1      41.724 -13.507   4.916  1.00  0.00     0.231 C 
HETATM   10  N   UNL     1      42.892 -14.068   4.419  1.00  0.00    -0.327 N 
HETATM   11  H   UNL     1      43.681 -13.447   4.274  1.00  0.00     0.169 HD
HETATM   12  O   UNL     1      40.684 -14.114   5.159  1.00  0.00    -0.272 OA
BRANCH  10  13
HETATM   13  C   UNL     1      43.114 -15.409   4.038  1.00  0.00     0.035 A 
HETATM   14  C   UNL     1      43.312 -16.458   4.939  1.00  0.00     0.044 A 
HETATM   15  C   UNL     1      43.516 -17.766   4.474  1.00  0.00     0.011 A 
HETATM   16  C   UNL     1      43.520 -18.019   3.098  1.00  0.00     0.015 A 
HETATM   17  C   UNL     1      43.323 -16.980   2.194  1.00  0.00     0.003 A 
HETATM   18  C   UNL     1      43.122 -15.682   2.663  1.00  0.00     0.029 A 
BRANCH  15  19
HETATM   19  C   UNL     1      43.727 -18.915   5.405  1.00  0.00     0.155 C 
HETATM   20  C   UNL     1      44.297 -20.202   4.866  1.00  0.00     0.096 C 
HETATM   21  O   UNL     1      43.437 -18.800   6.595  1.00  0.00    -0.293 OA
ENDBRANCH  15  19
ENDBRANCH  10  13
ENDBRANCH   8   9
ENDBRANCH   7   8
ENDBRANCH   1   7
BRANCH   3  22
HETATM   22  C   UNL     1      43.523  -9.640   9.866  1.00  0.00     0.048 A 
HETATM   23  C   UNL     1      43.395 -10.298  11.104  1.00  0.00     0.080 A 
HETATM   24  C   UNL     1      43.005  -9.609  12.251  1.00  0.00     0.039 A 
HETATM   25  C   UNL     1      42.728  -8.245  12.179  1.00  0.00     0.022 A 
HETATM   26  C   UNL     1      42.841  -7.583  10.958  1.00  0.00     0.012 A 
HETATM   27 BR   UNL     1      42.456  -5.733  10.859  1.00  0.00    -0.051 Br
HETATM   28  C   UNL     1      43.236  -8.268   9.808  1.00  0.00     0.037 A 
BRANCH  23  29
HETATM   29  O   UNL     1      43.638 -11.641  11.259  1.00  0.00    -0.360 OA
HETATM   30  H   UNL     1      43.006 -11.952  11.941  1.00  0.00     0.217 HD
ENDBRANCH  23  29
ENDBRANCH   3  22
TORSDOF 7
ENDMDL
MODEL 4
REMARK VINA RESULT:      -8.4      4.525      9.689
REMARK  7 active torsions:
REMARK  status: ('A' for Active; 'I' for Inactive)
REMARK    1  A    between atoms: C_2  and  C_3 
REMARK    2  A    between atoms: C_5  and  N_6 
REMARK       I    between atoms: N_6  and  C_7 
REMARK    3  A    between atoms: C_7  and  C_8 
REMARK    4  A    between atoms: C_8  and  S_9 
REMARK    5  A    between atoms: S_9  and  C_10 
REMARK    6  A    between atoms: C_12  and  C_13 
REMARK    7  A    between atoms: C_14  and  O_15 
ROOT
HETATM    1  C   UNL     1      45.013 -10.638   7.800  1.00  0.00     0.185 A 
HETATM    2  N   UNL     1      44.058 -10.654   8.694  1.00  0.00    -0.201 NA
HETATM    3  C   UNL     1      44.534  -9.791   9.673  1.00  0.00     0.184 A 
HETATM    4  N   UNL     1      45.721  -9.234   9.377  1.00  0.00    -0.152 NA
HETATM    5  N   UNL     1      46.003  -9.794   8.188  1.00  0.00    -0.253 N 
HETATM    6  H   UNL     1      46.870  -9.572   7.712  1.00  0.00     0.191 HD
ENDROOT
BRANCH   1   7
HETATM    7  S   UNL     1      45.113 -11.521   6.330  1.00  0.00    -0.081 SA
BRANCH   7   8
HETATM    8  C   UNL     1      43.460 -12.273   6.264  1.00  0.00     0.185 C 
BRANCH   8   9
HETATM    9  C   UNL     1      43.258 -13.061   4.974  1.00  0.00     0.231 C 
HETATM   10  N   UNL     1      42.898 -14.383   5.197  1.00  0.00    -0.327 N 
HETATM   11  H   UNL     1      42.813 -14.686   6.161  1.00  0.00     0.169 HD
HETATM   12  O   UNL     1      43.395 -12.531   3.874  1.00  0.00    -0.272 OA
BRANCH  10  13
HETATM   13  C   UNL     1      42.675 -15.393   4.235  1.00  0.00     0.035 A 
HETATM   14  C   UNL     1      43.388 -16.593   4.178  1.00  0.00     0.044 A 
HETATM   15  C   UNL     1      43.096 -17.548   3.193  1.00  0.00     0.011 A 
HETATM   16  C   UNL     1      42.081 -17.295   2.262  1.00  0.00     0.015 A 
HETATM   17  C   UNL     1      41.367 -16.102   2.312  1.00  0.00     0.003 A 
HETATM   18  C   UNL     1      41.664 -15.156   3.295  1.00  0.00     0.029 A 
BRANCH  15  19
HETATM   19  C   UNL     1      43.832 -18.845   3.100  1.00  0.00     0.155 C 
HETATM   20  C   UNL     1      43.337 -19.904   2.150  1.00  0.00     0.096 C 
HETATM   21  O   UNL     1      44.828 -19.033   3.797  1.00  0.00    -0.293 OA
ENDBRANCH  15  19
ENDBRANCH  10  13
ENDBRANCH   8   9
ENDBRANCH   7   8
ENDBRANCH   1   7
BRANCH   3  22
HETATM   22  C   UNL     1      43.787  -9.552  10.905  1.00  0.00     0.048 A 
HETATM   23  C   UNL     1      43.416 -10.612  11.755  1.00  0.00     0.080 A 
HETATM   24  C   UNL     1      42.723 -10.377  12.942  1.00  0.00     0.039 A 
HETATM   25  C   UNL     1      42.381  -9.073  13.297  1.00  0.00     0.022 A 
HETATM   26  C   UNL     1      42.734  -8.016  12.461  1.00  0.00     0.012 A 
HETATM   27 BR   UNL     1      42.262  -6.248  12.940  1.00  0.00    -0.051 Br
HETATM   28  C   UNL     1      43.432  -8.246  11.274  1.00  0.00     0.037 A 
BRANCH  23  29
HETATM   29  O   UNL     1      43.703 -11.925  11.473  1.00  0.00    -0.360 OA
HETATM   30  H   UNL     1      43.435 -12.065  10.541  1.00  0.00     0.217 HD
ENDBRANCH  23  29
ENDBRANCH   3  22
TORSDOF 7
ENDMDL
MODEL 5
REMARK VINA RESULT:      -8.3      3.317      7.921
REMARK  7 active torsions:
REMARK  status: ('A' for Active; 'I' for Inactive)
REMARK    1  A    between atoms: C_2  and  C_3 
REMARK    2  A    between atoms: C_5  and  N_6 
REMARK       I    between atoms: N_6  and  C_7 
REMARK    3  A    between atoms: C_7  and  C_8 
REMARK    4  A    between atoms: C_8  and  S_9 
REMARK    5  A    between atoms: S_9  and  C_10 
REMARK    6  A    between atoms: C_12  and  C_13 
REMARK    7  A    between atoms: C_14  and  O_15 
ROOT
HETATM    1  C   UNL     1      41.793 -11.735   3.893  1.00  0.00     0.185 A 
HETATM    2  N   UNL     1      42.059 -11.513   5.155  1.00  0.00    -0.201 NA
HETATM    3  C   UNL     1      43.417 -11.223   5.141  1.00  0.00     0.184 A 
HETATM    4  N   UNL     1      43.962 -11.228   3.912  1.00  0.00    -0.152 NA
HETATM    5  N   UNL     1      42.911 -11.562   3.143  1.00  0.00    -0.253 N 
HETATM    6  H   UNL     1      43.024 -11.663   2.141  1.00  0.00     0.191 HD
ENDROOT
BRANCH   1   7
HETATM    7  S   UNL     1      40.299 -12.195   3.182  1.00  0.00    -0.081 SA
BRANCH   7   8
HETATM    8  C   UNL     1      40.845 -13.498   2.039  1.00  0.00     0.185 C 
BRANCH   8   9
HETATM    9  C   UNL     1      41.109 -14.809   2.773  1.00  0.00     0.231 C 
HETATM   10  N   UNL     1      42.459 -15.122   2.855  1.00  0.00    -0.327 N 
HETATM   11  H   UNL     1      43.113 -14.476   2.428  1.00  0.00     0.169 HD
HETATM   12  O   UNL     1      40.189 -15.474   3.242  1.00  0.00    -0.272 OA
BRANCH  10  13
HETATM   13  C   UNL     1      43.046 -16.273   3.425  1.00  0.00     0.035 A 
HETATM   14  C   UNL     1      43.061 -17.530   2.817  1.00  0.00     0.044 A 
HETATM   15  C   UNL     1      43.677 -18.620   3.451  1.00  0.00     0.011 A 
HETATM   16  C   UNL     1      44.279 -18.443   4.702  1.00  0.00     0.015 A 
HETATM   17  C   UNL     1      44.268 -17.194   5.315  1.00  0.00     0.003 A 
HETATM   18  C   UNL     1      43.654 -16.115   4.678  1.00  0.00     0.029 A 
BRANCH  15  19
HETATM   19  C   UNL     1      43.717 -19.979   2.833  1.00  0.00     0.155 C 
HETATM   20  C   UNL     1      43.940 -21.181   3.714  1.00  0.00     0.096 C 
HETATM   21  O   UNL     1      43.570 -20.102   1.618  1.00  0.00    -0.293 OA
ENDBRANCH  15  19
ENDBRANCH  10  13
ENDBRANCH   8   9
ENDBRANCH   7   8
ENDBRANCH   1   7
BRANCH   3  22
HETATM   22  C   UNL     1      44.150 -10.958   6.376  1.00  0.00     0.048 A 
HETATM   23  C   UNL     1      45.558 -10.953   6.407  1.00  0.00     0.080 A 
HETATM   24  C   UNL     1      46.253 -10.676   7.583  1.00  0.00     0.039 A 
HETATM   25  C   UNL     1      45.550 -10.404   8.755  1.00  0.00     0.022 A 
HETATM   26  C   UNL     1      44.157 -10.414   8.741  1.00  0.00     0.012 A 
HETATM   27 BR   UNL     1      43.204 -10.054  10.335  1.00  0.00    -0.051 Br
HETATM   28  C   UNL     1      43.457 -10.686   7.565  1.00  0.00     0.037 A 
BRANCH  23  29
HETATM   29  O   UNL     1      46.325 -11.221   5.300  1.00  0.00    -0.360 OA
HETATM   30  H   UNL     1      47.037 -11.823   5.605  1.00  0.00     0.217 HD
ENDBRANCH  23  29
ENDBRANCH   3  22
TORSDOF 7
ENDMDL
MODEL 6
REMARK VINA RESULT:      -8.2      3.532      7.510
REMARK  7 active torsions:
REMARK  status: ('A' for Active; 'I' for Inactive)
REMARK    1  A    between atoms: C_2  and  C_3 
REMARK    2  A    between atoms: C_5  and  N_6 
REMARK       I    between atoms: N_6  and  C_7 
REMARK    3  A    between atoms: C_7  and  C_8 
REMARK    4  A    between atoms: C_8  and  S_9 
REMARK    5  A    between atoms: S_9  and  C_10 
REMARK    6  A    between atoms: C_12  and  C_13 
REMARK    7  A    between atoms: C_14  and  O_15 
ROOT
HETATM    1  C   UNL     1      42.605 -12.928   5.849  1.00  0.00     0.185 A 
HETATM    2  N   UNL     1      42.801 -12.790   4.563  1.00  0.00    -0.201 NA
HETATM    3  C   UNL     1      41.537 -12.463   4.089  1.00  0.00     0.184 A 
HETATM    4  N   UNL     1      40.603 -12.366   5.050  1.00  0.00    -0.152 NA
HETATM    5  N   UNL     1      41.307 -12.672   6.154  1.00  0.00    -0.253 N 
HETATM    6  H   UNL     1      40.851 -12.699   7.059  1.00  0.00     0.191 HD
ENDROOT
BRANCH   1   7
HETATM    7  S   UNL     1      43.738 -13.375   7.060  1.00  0.00    -0.081 SA
BRANCH   7   8
HETATM    8  C   UNL     1      43.024 -14.941   7.643  1.00  0.00     0.185 C 
BRANCH   8   9
HETATM    9  C   UNL     1      42.573 -15.816   6.477  1.00  0.00     0.231 C 
HETATM   10  N   UNL     1      43.569 -16.012   5.530  1.00  0.00    -0.327 N 
HETATM   11  H   UNL     1      44.464 -15.566   5.697  1.00  0.00     0.169 HD
HETATM   12  O   UNL     1      41.440 -16.289   6.436  1.00  0.00    -0.272 OA
BRANCH  10  13
HETATM   13  C   UNL     1      43.479 -16.729   4.317  1.00  0.00     0.035 A 
HETATM   14  C   UNL     1      43.651 -18.111   4.208  1.00  0.00     0.044 A 
HETATM   15  C   UNL     1      43.535 -18.746   2.962  1.00  0.00     0.011 A 
HETATM   16  C   UNL     1      43.245 -17.987   1.822  1.00  0.00     0.015 A 
HETATM   17  C   UNL     1      43.072 -16.610   1.923  1.00  0.00     0.003 A 
HETATM   18  C   UNL     1      43.190 -15.986   3.165  1.00  0.00     0.029 A 
BRANCH  15  19
HETATM   19  C   UNL     1      43.708 -20.222   2.804  1.00  0.00     0.155 C 
HETATM   20  C   UNL     1      43.942 -21.069   4.028  1.00  0.00     0.096 C 
HETATM   21  O   UNL     1      43.657 -20.726   1.683  1.00  0.00    -0.293 OA
ENDBRANCH  15  19
ENDBRANCH  10  13
ENDBRANCH   8   9
ENDBRANCH   7   8
ENDBRANCH   1   7
BRANCH   3  22
HETATM   22  C   UNL     1      41.287 -12.268   2.663  1.00  0.00     0.048 A 
HETATM   23  C   UNL     1      41.569 -11.043   2.029  1.00  0.00     0.080 A 
HETATM   24  C   UNL     1      41.351 -10.869   0.664  1.00  0.00     0.039 A 
HETATM   25  C   UNL     1      40.839 -11.920  -0.095  1.00  0.00     0.022 A 
HETATM   26  C   UNL     1      40.548 -13.136   0.520  1.00  0.00     0.012 A 
HETATM   27 BR   UNL     1      39.844 -14.559  -0.509  1.00  0.00    -0.051 Br
HETATM   28  C   UNL     1      40.768 -13.316   1.886  1.00  0.00     0.037 A 
BRANCH  23  29
HETATM   29  O   UNL     1      42.064  -9.954   2.706  1.00  0.00    -0.360 OA
HETATM   30  H   UNL     1      41.844  -9.173   2.155  1.00  0.00     0.217 HD
ENDBRANCH  23  29
ENDBRANCH   3  22
TORSDOF 7
ENDMDL
MODEL 7
REMARK VINA RESULT:      -8.1      1.937      2.823
REMARK  7 active torsions:
REMARK  status: ('A' for Active; 'I' for Inactive)
REMARK    1  A    between atoms: C_2  and  C_3 
REMARK    2  A    between atoms: C_5  and  N_6 
REMARK       I    between atoms: N_6  and  C_7 
REMARK    3  A    between atoms: C_7  and  C_8 
REMARK    4  A    between atoms: C_8  and  S_9 
REMARK    5  A    between atoms: S_9  and  C_10 
REMARK    6  A    between atoms: C_12  and  C_13 
REMARK    7  A    between atoms: C_14  and  O_15 
ROOT
HETATM    1  C   UNL     1      40.211 -14.580   1.139  1.00  0.00     0.185 A 
HETATM    2  N   UNL     1      41.300 -15.302   1.200  1.00  0.00    -0.201 NA
HETATM    3  C   UNL     1      41.175 -15.951   2.421  1.00  0.00     0.184 A 
HETATM    4  N   UNL     1      40.034 -15.670   3.073  1.00  0.00    -0.152 NA
HETATM    5  N   UNL     1      39.446 -14.794   2.240  1.00  0.00    -0.253 N 
HETATM    6  H   UNL     1      38.552 -14.381   2.481  1.00  0.00     0.191 HD
ENDROOT
BRANCH   1   7
HETATM    7  S   UNL     1      39.724 -13.483  -0.090  1.00  0.00    -0.081 SA
BRANCH   7   8
HETATM    8  C   UNL     1      41.033 -12.228   0.027  1.00  0.00     0.185 C 
BRANCH   8   9
HETATM    9  C   UNL     1      41.148 -11.673   1.443  1.00  0.00     0.231 C 
HETATM   10  N   UNL     1      42.011 -12.407   2.245  1.00  0.00    -0.327 N 
HETATM   11  H   UNL     1      42.461 -13.214   1.827  1.00  0.00     0.169 HD
HETATM   12  O   UNL     1      40.532 -10.667   1.786  1.00  0.00    -0.272 OA
BRANCH  10  13
HETATM   13  C   UNL     1      42.314 -12.197   3.608  1.00  0.00     0.035 A 
HETATM   14  C   UNL     1      43.581 -11.853   4.086  1.00  0.00     0.044 A 
HETATM   15  C   UNL     1      43.794 -11.653   5.459  1.00  0.00     0.011 A 
HETATM   16  C   UNL     1      42.727 -11.800   6.353  1.00  0.00     0.015 A 
HETATM   17  C   UNL     1      41.462 -12.143   5.885  1.00  0.00     0.003 A 
HETATM   18  C   UNL     1      41.259 -12.341   4.519  1.00  0.00     0.029 A 
BRANCH  15  19
HETATM   19  C   UNL     1      45.131 -11.280   6.009  1.00  0.00     0.155 C 
HETATM   20  C   UNL     1      45.273 -11.028   7.488  1.00  0.00     0.096 C 
HETATM   21  O   UNL     1      46.098 -11.183   5.253  1.00  0.00    -0.293 OA
ENDBRANCH  15  19
ENDBRANCH  10  13
ENDBRANCH   8   9
ENDBRANCH   7   8
ENDBRANCH   1   7
BRANCH   3  22
HETATM   22  C   UNL     1      42.222 -16.838   2.921  1.00  0.00     0.048 A 
HETATM   23  C   UNL     1      42.976 -16.514   4.065  1.00  0.00     0.080 A 
HETATM   24  C   UNL     1      43.958 -17.375   4.552  1.00  0.00     0.039 A 
HETATM   25  C   UNL     1      44.210 -18.578   3.896  1.00  0.00     0.022 A 
HETATM   26  C   UNL     1      43.478 -18.909   2.757  1.00  0.00     0.012 A 
HETATM   27 BR   UNL     1      43.828 -20.538   1.862  1.00  0.00    -0.051 Br
HETATM   28  C   UNL     1      42.491 -18.052   2.269  1.00  0.00     0.037 A 
BRANCH  23  29
HETATM   29  O   UNL     1      42.798 -15.344   4.762  1.00  0.00    -0.360 OA
HETATM   30  H   UNL     1      43.153 -14.632   4.189  1.00  0.00     0.217 HD
ENDBRANCH  23  29
ENDBRANCH   3  22
TORSDOF 7
ENDMDL
MODEL 8
REMARK VINA RESULT:      -8.0      3.173      6.414
REMARK  7 active torsions:
REMARK  status: ('A' for Active; 'I' for Inactive)
REMARK    1  A    between atoms: C_2  and  C_3 
REMARK    2  A    between atoms: C_5  and  N_6 
REMARK       I    between atoms: N_6  and  C_7 
REMARK    3  A    between atoms: C_7  and  C_8 
REMARK    4  A    between atoms: C_8  and  S_9 
REMARK    5  A    between atoms: S_9  and  C_10 
REMARK    6  A    between atoms: C_12  and  C_13 
REMARK    7  A    between atoms: C_14  and  O_15 
ROOT
HETATM    1  C   UNL     1      42.517 -12.386   5.949  1.00  0.00     0.185 A 
HETATM    2  N   UNL     1      43.251 -13.429   5.659  1.00  0.00    -0.201 NA
HETATM    3  C   UNL     1      42.415 -14.494   5.969  1.00  0.00     0.184 A 
HETATM    4  N   UNL     1      41.198 -14.123   6.399  1.00  0.00    -0.152 NA
HETATM    5  N   UNL     1      41.293 -12.782   6.382  1.00  0.00    -0.253 N 
HETATM    6  H   UNL     1      40.511 -12.211   6.682  1.00  0.00     0.191 HD
ENDROOT
BRANCH   1   7
HETATM    7  S   UNL     1      42.938 -10.724   5.850  1.00  0.00    -0.081 SA
BRANCH   7   8
HETATM    8  C   UNL     1      41.904 -10.187   4.455  1.00  0.00     0.185 C 
BRANCH   8   9
HETATM    9  C   UNL     1      41.993 -11.165   3.288  1.00  0.00     0.231 C 
HETATM   10  N   UNL     1      40.821 -11.882   3.092  1.00  0.00    -0.327 N 
HETATM   11  H   UNL     1      40.050 -11.696   3.724  1.00  0.00     0.169 HD
HETATM   12  O   UNL     1      43.013 -11.259   2.610  1.00  0.00    -0.272 OA
BRANCH  10  13
HETATM   13  C   UNL     1      40.574 -12.890   2.134  1.00  0.00     0.035 A 
HETATM   14  C   UNL     1      39.973 -12.664   0.893  1.00  0.00     0.044 A 
HETATM   15  C   UNL     1      39.773 -13.724  -0.004  1.00  0.00     0.011 A 
HETATM   16  C   UNL     1      40.180 -15.016   0.348  1.00  0.00     0.015 A 
HETATM   17  C   UNL     1      40.779 -15.249   1.583  1.00  0.00     0.003 A 
HETATM   18  C   UNL     1      40.974 -14.191   2.470  1.00  0.00     0.029 A 
BRANCH  15  19
HETATM   19  C   UNL     1      39.139 -13.523  -1.341  1.00  0.00     0.155 C 
HETATM   20  C   UNL     1      39.763 -14.162  -2.555  1.00  0.00     0.096 C 
HETATM   21  O   UNL     1      38.119 -12.841  -1.438  1.00  0.00    -0.293 OA
ENDBRANCH  15  19
ENDBRANCH  10  13
ENDBRANCH   8   9
ENDBRANCH   7   8
ENDBRANCH   1   7
BRANCH   3  22
HETATM   22  C   UNL     1      42.867 -15.877   5.840  1.00  0.00     0.048 A 
HETATM   23  C   UNL     1      43.112 -16.678   6.972  1.00  0.00     0.080 A 
HETATM   24  C   UNL     1      43.519 -18.005   6.844  1.00  0.00     0.039 A 
HETATM   25  C   UNL     1      43.698 -18.554   5.575  1.00  0.00     0.022 A 
HETATM   26  C   UNL     1      43.469 -17.771   4.446  1.00  0.00     0.012 A 
HETATM   27 BR   UNL     1      43.720 -18.515   2.725  1.00  0.00    -0.051 Br
HETATM   28  C   UNL     1      43.055 -16.443   4.570  1.00  0.00     0.037 A 
BRANCH  23  29
HETATM   29  O   UNL     1      42.971 -16.211   8.256  1.00  0.00    -0.360 OA
HETATM   30  H   UNL     1      43.819 -15.772   8.477  1.00  0.00     0.217 HD
ENDBRANCH  23  29
ENDBRANCH   3  22
TORSDOF 7
ENDMDL
MODEL 9
REMARK VINA RESULT:      -7.9      3.018      4.445
REMARK  7 active torsions:
REMARK  status: ('A' for Active; 'I' for Inactive)
REMARK    1  A    between atoms: C_2  and  C_3 
REMARK    2  A    between atoms: C_5  and  N_6 
REMARK       I    between atoms: N_6  and  C_7 
REMARK    3  A    between atoms: C_7  and  C_8 
REMARK    4  A    between atoms: C_8  and  S_9 
REMARK    5  A    between atoms: S_9  and  C_10 
REMARK    6  A    between atoms: C_12  and  C_13 
REMARK    7  A    between atoms: C_14  and  O_15 
ROOT
HETATM    1  C   UNL     1      42.634 -12.894   5.917  1.00  0.00     0.185 A 
HETATM    2  N   UNL     1      43.192 -13.630   4.990  1.00  0.00    -0.201 NA
HETATM    3  C   UNL     1      42.541 -14.849   5.127  1.00  0.00     0.184 A 
HETATM    4  N   UNL     1      41.590 -14.855   6.077  1.00  0.00    -0.152 NA
HETATM    5  N   UNL     1      41.676 -13.605   6.564  1.00  0.00    -0.253 N 
HETATM    6  H   UNL     1      41.075 -13.313   7.327  1.00  0.00     0.191 HD
ENDROOT
BRANCH   1   7
HETATM    7  S   UNL     1      42.988 -11.269   6.347  1.00  0.00    -0.081 SA
BRANCH   7   8
HETATM    8  C   UNL     1      44.501 -11.492   7.328  1.00  0.00     0.185 C 
BRANCH   8   9
HETATM    9  C   UNL     1      44.421 -10.740   8.653  1.00  0.00     0.231 C 
HETATM   10  N   UNL     1      43.203 -10.103   8.843  1.00  0.00    -0.327 N 
HETATM   11  H   UNL     1      42.512 -10.192   8.106  1.00  0.00     0.169 HD
HETATM   12  O   UNL     1      45.360 -10.744   9.446  1.00  0.00    -0.272 OA
BRANCH  10  13
HETATM   13  C   UNL     1      42.810  -9.293   9.931  1.00  0.00     0.035 A 
HETATM   14  C   UNL     1      42.210  -9.779  11.095  1.00  0.00     0.044 A 
HETATM   15  C   UNL     1      41.860  -8.904  12.134  1.00  0.00     0.011 A 
HETATM   16  C   UNL     1      42.115  -7.534  12.001  1.00  0.00     0.015 A 
HETATM   17  C   UNL     1      42.712  -7.042  10.844  1.00  0.00     0.003 A 
HETATM   18  C   UNL     1      43.057  -7.919   9.815  1.00  0.00     0.029 A 
BRANCH  15  19
HETATM   19  C   UNL     1      41.220  -9.384  13.395  1.00  0.00     0.155 C 
HETATM   20  C   UNL     1      39.963 -10.212  13.313  1.00  0.00     0.096 C 
HETATM   21  O   UNL     1      41.723  -9.101  14.482  1.00  0.00    -0.293 OA
ENDBRANCH  15  19
ENDBRANCH  10  13
ENDBRANCH   8   9
ENDBRANCH   7   8
ENDBRANCH   1   7
BRANCH   3  22
HETATM   22  C   UNL     1      42.902 -15.999   4.303  1.00  0.00     0.048 A 
HETATM   23  C   UNL     1      42.875 -15.932   2.896  1.00  0.00     0.080 A 
HETATM   24  C   UNL     1      43.243 -17.025   2.114  1.00  0.00     0.039 A 
HETATM   25  C   UNL     1      43.639 -18.213   2.726  1.00  0.00     0.022 A 
HETATM   26  C   UNL     1      43.662 -18.297   4.117  1.00  0.00     0.012 A 
HETATM   27 BR   UNL     1      44.191 -19.913   4.947  1.00  0.00    -0.051 Br
HETATM   28  C   UNL     1      43.299 -17.204   4.904  1.00  0.00     0.037 A 
BRANCH  23  29
HETATM   29  O   UNL     1      42.487 -14.805   2.215  1.00  0.00    -0.360 OA
HETATM   30  H   UNL     1      43.298 -14.455   1.788  1.00  0.00     0.217 HD
ENDBRANCH  23  29
ENDBRANCH   3  22
TORSDOF 7
ENDMDL
MODEL 10
REMARK VINA RESULT:      -7.8      3.385      7.945
REMARK  7 active torsions:
REMARK  status: ('A' for Active; 'I' for Inactive)
REMARK    1  A    between atoms: C_2  and  C_3 
REMARK    2  A    between atoms: C_5  and  N_6 
REMARK       I    between atoms: N_6  and  C_7 
REMARK    3  A    between atoms: C_7  and  C_8 
REMARK    4  A    between atoms: C_8  and  S_9 
REMARK    5  A    between atoms: S_9  and  C_10 
REMARK    6  A    between atoms: C_12  and  C_13 
REMARK    7  A    between atoms: C_14  and  O_15 
ROOT
HETATM    1  C   UNL     1      42.455 -11.051   4.741  1.00  0.00     0.185 A 
HETATM    2  N   UNL     1      42.423 -10.584   5.963  1.00  0.00    -0.201 NA
HETATM    3  C   UNL     1      43.746 -10.694   6.372  1.00  0.00     0.184 A 
HETATM    4  N   UNL     1      44.570 -11.175   5.426  1.00  0.00    -0.152 NA
HETATM    5  N   UNL     1      43.723 -11.399   4.406  1.00  0.00    -0.253 N 
HETATM    6  H   UNL     1      44.065 -11.790   3.536  1.00  0.00     0.191 HD
ENDROOT
BRANCH   1   7
HETATM    7  S   UNL     1      41.150 -11.254   3.641  1.00  0.00    -0.081 SA
BRANCH   7   8
HETATM    8  C   UNL     1      41.929 -12.288   2.366  1.00  0.00     0.185 C 
BRANCH   8   9
HETATM    9  C   UNL     1      41.758 -13.772   2.671  1.00  0.00     0.231 C 
HETATM   10  N   UNL     1      42.965 -14.424   2.888  1.00  0.00    -0.327 N 
HETATM   11  H   UNL     1      43.811 -13.870   2.819  1.00  0.00     0.169 HD
HETATM   12  O   UNL     1      40.645 -14.288   2.725  1.00  0.00    -0.272 OA
BRANCH  10  13
HETATM   13  C   UNL     1      43.172 -15.796   3.151  1.00  0.00     0.035 A 
HETATM   14  C   UNL     1      43.265 -16.343   4.433  1.00  0.00     0.044 A 
HETATM   15  C   UNL     1      43.462 -17.721   4.606  1.00  0.00     0.011 A 
HETATM   16  C   UNL     1      43.566 -18.552   3.484  1.00  0.00     0.015 A 
HETATM   17  C   UNL     1      43.474 -18.014   2.203  1.00  0.00     0.003 A 
HETATM   18  C   UNL     1      43.279 -16.642   2.040  1.00  0.00     0.029 A 
BRANCH  15  19
HETATM   19  C   UNL     1      43.562 -18.346   5.959  1.00  0.00     0.155 C 
HETATM   20  C   UNL     1      43.589 -19.848   6.075  1.00  0.00     0.096 C 
HETATM   21  O   UNL     1      43.622 -17.631   6.959  1.00  0.00    -0.293 OA
ENDBRANCH  15  19
ENDBRANCH  10  13
ENDBRANCH   8   9
ENDBRANCH   7   8
ENDBRANCH   1   7
BRANCH   3  22
HETATM   22  C   UNL     1      44.156 -10.323   7.724  1.00  0.00     0.048 A 
HETATM   23  C   UNL     1      45.502 -10.047   8.033  1.00  0.00     0.080 A 
HETATM   24  C   UNL     1      45.885  -9.670   9.319  1.00  0.00     0.039 A 
HETATM   25  C   UNL     1      44.926  -9.568  10.325  1.00  0.00     0.022 A 
HETATM   26  C   UNL     1      43.591  -9.847  10.036  1.00  0.00     0.012 A 
HETATM   27 BR   UNL     1      42.292  -9.717  11.404  1.00  0.00    -0.051 Br
HETATM   28  C   UNL     1      43.203 -10.220   8.748  1.00  0.00     0.037 A 
BRANCH  23  29
HETATM   29  O   UNL     1      46.509 -10.135   7.104  1.00  0.00    -0.360 OA
HETATM   30  H   UNL     1      46.097  -9.925   6.239  1.00  0.00     0.217 HD
ENDBRANCH  23  29
ENDBRANCH   3  22
TORSDOF 7
ENDMDL
