MODEL 1
REMARK VINA RESULT:      -8.9      0.000      0.000
REMARK  8 active torsions:
REMARK  status: ('A' for Active; 'I' for Inactive)
REMARK    1  A    between atoms: C_4  and  C_5 
REMARK    2  A    between atoms: C_5  and  C_6 
REMARK    3  A    between atoms: C_6  and  N_7 
REMARK    4  A    between atoms: C_8  and  S_9 
REMARK    5  A    between atoms: S_9  and  C_10 
REMARK    6  A    between atoms: C_10  and  C_11 
REMARK    7  A    between atoms: C_24  and  C_25 
REMARK    8  A    between atoms: C_26  and  O_27 
ROOT
HETATM    1  N   UNL     1      43.473 -10.142   7.551  1.00  0.00    -0.307 N 
HETATM    2  C   UNL     1      44.147 -11.057   6.782  1.00  0.00     0.192 C 
HETATM    3  N   UNL     1      45.162 -11.543   7.453  1.00  0.00    -0.122 NA
HETATM    4  N   UNL     1      45.124 -11.016   8.709  1.00  0.00    -0.128 NA
HETATM    5  C   UNL     1      44.058 -10.237   8.809  1.00  0.00     0.167 C 
ENDROOT
BRANCH   2   6
HETATM    6  S   UNL     1      43.725 -11.538   5.176  1.00  0.00    -0.083 SA
BRANCH   6   7
HETATM    7  C   UNL     1      42.480 -12.813   5.546  1.00  0.00     0.161 C 
BRANCH   7   8
HETATM    8  C   UNL     1      42.957 -14.232   5.299  1.00  0.00     0.117 A 
HETATM    9  N   UNL     1      42.799 -14.747   4.120  1.00  0.00    -0.234 NA
HETATM   10  C   UNL     1      43.222 -16.070   3.905  1.00  0.00     0.074 A 
HETATM   11  C   UNL     1      43.804 -16.846   4.911  1.00  0.00     0.061 A 
HETATM   12  C   UNL     1      43.046 -16.637   2.643  1.00  0.00     0.032 A 
HETATM   13  C   UNL     1      43.972 -16.219   6.231  1.00  0.00     0.259 A 
HETATM   14  C   UNL     1      44.209 -18.163   4.673  1.00  0.00     0.019 A 
HETATM   15  O   UNL     1      44.473 -16.813   7.179  1.00  0.00    -0.267 OA
HETATM   16  N   UNL     1      43.523 -14.928   6.332  1.00  0.00    -0.310 N 
HETATM   17  H   UNL     1      43.632 -14.486   7.236  1.00  0.00     0.170 HD
HETATM   18  C   UNL     1      44.026 -18.716   3.406  1.00  0.00     0.001 A 
HETATM   19  C   UNL     1      43.445 -17.954   2.391  1.00  0.00     0.002 A 
ENDBRANCH   7   8
ENDBRANCH   6   7
ENDBRANCH   2   6
BRANCH   1  20
HETATM   20  C   UNL     1      42.376  -9.265   7.182  1.00  0.00     0.137 C 
BRANCH  20  21
HETATM   21  C   UNL     1      40.967  -9.678   7.635  1.00  0.00     0.059 C 
BRANCH  21  22
HETATM   22  C   UNL     1      40.374  -8.895   8.791  1.00  0.00    -0.057 A 
HETATM   23  C   UNL     1      40.205  -7.509   8.627  1.00  0.00     0.007 A 
HETATM   24  C   UNL     1      39.657  -6.725   9.644  1.00  0.00     0.001 A 
HETATM   25  C   UNL     1      39.268  -7.312  10.844  1.00  0.00     0.000 A 
HETATM   26  C   UNL     1      39.422  -8.684  11.023  1.00  0.00     0.001 A 
HETATM   27  C   UNL     1      39.966  -9.472  10.003  1.00  0.00     0.007 A 
ENDBRANCH  21  22
ENDBRANCH  20  21
ENDBRANCH   1  20
BRANCH   5  28
HETATM   28  C   UNL     1      43.665  -9.581  10.061  1.00  0.00     0.045 A 
HETATM   29  C   UNL     1      43.415 -10.351  11.212  1.00  0.00     0.079 A 
HETATM   30  C   UNL     1      43.042  -9.756  12.416  1.00  0.00     0.037 A 
HETATM   31  C   UNL     1      42.881  -8.374  12.486  1.00  0.00     0.003 A 
HETATM   32  C   UNL     1      43.081  -7.596  11.348  1.00  0.00     0.001 A 
HETATM   33  C   UNL     1      43.457  -8.196  10.142  1.00  0.00     0.018 A 
BRANCH  29  34
HETATM   34  O   UNL     1      43.507 -11.720  11.220  1.00  0.00    -0.360 OA
HETATM   35  H   UNL     1      43.808 -11.998  12.110  1.00  0.00     0.217 HD
ENDBRANCH  29  34
ENDBRANCH   5  28
TORSDOF 8
ENDMDL
MODEL 2
REMARK VINA RESULT:      -8.9      4.080      8.433
REMARK  8 active torsions:
REMARK  status: ('A' for Active; 'I' for Inactive)
REMARK    1  A    between atoms: C_4  and  C_5 
REMARK    2  A    between atoms: C_5  and  C_6 
REMARK    3  A    between atoms: C_6  and  N_7 
REMARK    4  A    between atoms: C_8  and  S_9 
REMARK    5  A    between atoms: S_9  and  C_10 
REMARK    6  A    between atoms: C_10  and  C_11 
REMARK    7  A    between atoms: C_24  and  C_25 
REMARK    8  A    between atoms: C_26  and  O_27 
ROOT
HETATM    1  N   UNL     1      41.146 -13.824   2.897  1.00  0.00    -0.307 N 
HETATM    2  C   UNL     1      40.273 -12.951   2.300  1.00  0.00     0.192 C 
HETATM    3  N   UNL     1      39.309 -12.643   3.134  1.00  0.00    -0.122 NA
HETATM    4  N   UNL     1      39.578 -13.247   4.325  1.00  0.00    -0.128 NA
HETATM    5  C   UNL     1      40.731 -13.890   4.223  1.00  0.00     0.167 C 
ENDROOT
BRANCH   2   6
HETATM    6  S   UNL     1      40.413 -12.312   0.700  1.00  0.00    -0.083 SA
BRANCH   6   7
HETATM    7  C   UNL     1      41.476 -10.871   1.029  1.00  0.00     0.161 C 
BRANCH   7   8
HETATM    8  C   UNL     1      41.863 -10.709   2.488  1.00  0.00     0.117 A 
HETATM    9  N   UNL     1      43.019 -11.144   2.878  1.00  0.00    -0.234 NA
HETATM   10  C   UNL     1      43.361 -11.011   4.235  1.00  0.00     0.074 A 
HETATM   11  C   UNL     1      42.504 -10.431   5.173  1.00  0.00     0.061 A 
HETATM   12  C   UNL     1      44.599 -11.487   4.667  1.00  0.00     0.032 A 
HETATM   13  C   UNL     1      41.205  -9.943   4.685  1.00  0.00     0.259 A 
HETATM   14  C   UNL     1      42.864 -10.319   6.519  1.00  0.00     0.019 A 
HETATM   15  O   UNL     1      40.382  -9.415   5.425  1.00  0.00    -0.267 OA
HETATM   16  N   UNL     1      40.972 -10.124   3.346  1.00  0.00    -0.310 N 
HETATM   17  H   UNL     1      40.082  -9.793   2.998  1.00  0.00     0.170 HD
HETATM   18  C   UNL     1      44.105 -10.799   6.936  1.00  0.00     0.001 A 
HETATM   19  C   UNL     1      44.972 -11.383   6.012  1.00  0.00     0.002 A 
ENDBRANCH   7   8
ENDBRANCH   6   7
ENDBRANCH   2   6
BRANCH   1  20
HETATM   20  C   UNL     1      42.277 -14.529   2.320  1.00  0.00     0.137 C 
BRANCH  20  21
HETATM   21  C   UNL     1      42.055 -15.992   1.909  1.00  0.00     0.059 C 
BRANCH  21  22
HETATM   22  C   UNL     1      42.845 -17.035   2.677  1.00  0.00    -0.057 A 
HETATM   23  C   UNL     1      42.893 -18.338   2.153  1.00  0.00     0.007 A 
HETATM   24  C   UNL     1      43.608 -19.349   2.799  1.00  0.00     0.001 A 
HETATM   25  C   UNL     1      44.288 -19.074   3.981  1.00  0.00     0.000 A 
HETATM   26  C   UNL     1      44.258 -17.788   4.512  1.00  0.00     0.001 A 
HETATM   27  C   UNL     1      43.546 -16.773   3.863  1.00  0.00     0.007 A 
ENDBRANCH  21  22
ENDBRANCH  20  21
ENDBRANCH   1  20
BRANCH   5  28
HETATM   28  C   UNL     1      41.364 -14.575   5.355  1.00  0.00     0.045 A 
HETATM   29  C   UNL     1      40.865 -15.813   5.801  1.00  0.00     0.079 A 
HETATM   30  C   UNL     1      41.447 -16.486   6.874  1.00  0.00     0.037 A 
HETATM   31  C   UNL     1      42.527 -15.920   7.544  1.00  0.00     0.003 A 
HETATM   32  C   UNL     1      43.012 -14.675   7.149  1.00  0.00     0.001 A 
HETATM   33  C   UNL     1      42.426 -14.002   6.071  1.00  0.00     0.018 A 
BRANCH  29  34
HETATM   34  O   UNL     1      39.777 -16.420   5.226  1.00  0.00    -0.360 OA
HETATM   35  H   UNL     1      39.257 -15.732   4.761  1.00  0.00     0.217 HD
ENDBRANCH  29  34
ENDBRANCH   5  28
TORSDOF 8
ENDMDL
MODEL 3
REMARK VINA RESULT:      -8.9      3.241      8.087
REMARK  8 active torsions:
REMARK  status: ('A' for Active; 'I' for Inactive)
REMARK    1  A    between atoms: C_4  and  C_5 
REMARK    2  A    between atoms: C_5  and  C_6 
REMARK    3  A    between atoms: C_6  and  N_7 
REMARK    4  A    between atoms: C_8  and  S_9 
REMARK    5  A    between atoms: S_9  and  C_10 
REMARK    6  A    between atoms: C_10  and  C_11 
REMARK    7  A    between atoms: C_24  and  C_25 
REMARK    8  A    between atoms: C_26  and  O_27 
ROOT
HETATM    1  N   UNL     1      40.046 -12.558   4.499  1.00  0.00    -0.307 N 
HETATM    2  C   UNL     1      39.219 -11.580   4.989  1.00  0.00     0.192 C 
HETATM    3  N   UNL     1      38.927 -11.829   6.243  1.00  0.00    -0.122 NA
HETATM    4  N   UNL     1      39.627 -12.934   6.623  1.00  0.00    -0.128 NA
HETATM    5  C   UNL     1      40.375 -13.333   5.606  1.00  0.00     0.167 C 
ENDROOT
BRANCH   2   6
HETATM    6  S   UNL     1      38.654 -10.199   4.116  1.00  0.00    -0.083 SA
BRANCH   6   7
HETATM    7  C   UNL     1      40.177  -9.203   4.083  1.00  0.00     0.161 C 
BRANCH   7   8
HETATM    8  C   UNL     1      41.185  -9.580   5.153  1.00  0.00     0.117 A 
HETATM    9  N   UNL     1      42.275 -10.184   4.799  1.00  0.00    -0.234 NA
HETATM   10  C   UNL     1      43.193 -10.551   5.798  1.00  0.00     0.074 A 
HETATM   11  C   UNL     1      42.974 -10.288   7.153  1.00  0.00     0.061 A 
HETATM   12  C   UNL     1      44.363 -11.212   5.427  1.00  0.00     0.032 A 
HETATM   13  C   UNL     1      41.727  -9.592   7.509  1.00  0.00     0.259 A 
HETATM   14  C   UNL     1      43.898 -10.671   8.128  1.00  0.00     0.019 A 
HETATM   15  O   UNL     1      41.442  -9.312   8.668  1.00  0.00    -0.267 OA
HETATM   16  N   UNL     1      40.903  -9.284   6.459  1.00  0.00    -0.310 N 
HETATM   17  H   UNL     1      40.042  -8.805   6.692  1.00  0.00     0.170 HD
HETATM   18  C   UNL     1      45.064 -11.332   7.742  1.00  0.00     0.001 A 
HETATM   19  C   UNL     1      45.297 -11.602   6.393  1.00  0.00     0.002 A 
ENDBRANCH   7   8
ENDBRANCH   6   7
ENDBRANCH   2   6
BRANCH   1  20
HETATM   20  C   UNL     1      40.517 -12.766   3.141  1.00  0.00     0.137 C 
BRANCH  20  21
HETATM   21  C   UNL     1      40.165 -14.104   2.475  1.00  0.00     0.059 C 
BRANCH  21  22
HETATM   22  C   UNL     1      41.309 -15.082   2.281  1.00  0.00    -0.057 A 
HETATM   23  C   UNL     1      41.078 -16.433   2.593  1.00  0.00     0.007 A 
HETATM   24  C   UNL     1      42.080 -17.392   2.430  1.00  0.00     0.001 A 
HETATM   25  C   UNL     1      43.332 -17.016   1.954  1.00  0.00     0.000 A 
HETATM   26  C   UNL     1      43.578 -15.685   1.634  1.00  0.00     0.001 A 
HETATM   27  C   UNL     1      42.573 -14.724   1.790  1.00  0.00     0.007 A 
ENDBRANCH  21  22
ENDBRANCH  20  21
ENDBRANCH   1  20
BRANCH   5  28
HETATM   28  C   UNL     1      41.325 -14.446   5.705  1.00  0.00     0.045 A 
HETATM   29  C   UNL     1      40.880 -15.722   6.099  1.00  0.00     0.079 A 
HETATM   30  C   UNL     1      41.759 -16.798   6.200  1.00  0.00     0.037 A 
HETATM   31  C   UNL     1      43.114 -16.613   5.935  1.00  0.00     0.003 A 
HETATM   32  C   UNL     1      43.585 -15.350   5.586  1.00  0.00     0.001 A 
HETATM   33  C   UNL     1      42.700 -14.272   5.484  1.00  0.00     0.018 A 
BRANCH  29  34
HETATM   34  O   UNL     1      39.571 -15.980   6.420  1.00  0.00    -0.360 OA
HETATM   35  H   UNL     1      39.505 -16.922   6.683  1.00  0.00     0.217 HD
ENDBRANCH  29  34
ENDBRANCH   5  28
TORSDOF 8
ENDMDL
MODEL 4
REMARK VINA RESULT:      -8.9      2.517      9.216
REMARK  8 active torsions:
REMARK  status: ('A' for Active; 'I' for Inactive)
REMARK    1  A    between atoms: C_4  and  C_5 
REMARK    2  A    between atoms: C_5  and  C_6 
REMARK    3  A    between atoms: C_6  and  N_7 
REMARK    4  A    between atoms: C_8  and  S_9 
REMARK    5  A    between atoms: S_9  and  C_10 
REMARK    6  A    between atoms: C_10  and  C_11 
REMARK    7  A    between atoms: C_24  and  C_25 
REMARK    8  A    between atoms: C_26  and  O_27 
ROOT
HETATM    1  N   UNL     1      41.530 -12.654   5.168  1.00  0.00    -0.307 N 
HETATM    2  C   UNL     1      41.881 -11.506   5.834  1.00  0.00     0.192 C 
HETATM    3  N   UNL     1      43.187 -11.403   5.886  1.00  0.00    -0.122 NA
HETATM    4  N   UNL     1      43.717 -12.440   5.181  1.00  0.00    -0.128 NA
HETATM    5  C   UNL     1      42.727 -13.153   4.667  1.00  0.00     0.167 C 
ENDROOT
BRANCH   2   6
HETATM    6  S   UNL     1      40.787 -10.340   6.491  1.00  0.00    -0.083 SA
BRANCH   6   7
HETATM    7  C   UNL     1      41.962  -9.025   6.942  1.00  0.00     0.161 C 
BRANCH   7   8
HETATM    8  C   UNL     1      42.316  -8.993   8.417  1.00  0.00     0.117 A 
HETATM    9  N   UNL     1      42.011  -7.943   9.110  1.00  0.00    -0.234 NA
HETATM   10  C   UNL     1      42.363  -7.911  10.470  1.00  0.00     0.074 A 
HETATM   11  C   UNL     1      43.028  -8.967  11.099  1.00  0.00     0.061 A 
HETATM   12  C   UNL     1      42.048  -6.779  11.222  1.00  0.00     0.032 A 
HETATM   13  C   UNL     1      43.349 -10.143  10.277  1.00  0.00     0.259 A 
HETATM   14  C   UNL     1      43.376  -8.907  12.451  1.00  0.00     0.019 A 
HETATM   15  O   UNL     1      43.927 -11.123  10.733  1.00  0.00    -0.267 OA
HETATM   16  N   UNL     1      42.963 -10.068   8.963  1.00  0.00    -0.310 N 
HETATM   17  H   UNL     1      43.178 -10.872   8.388  1.00  0.00     0.170 HD
HETATM   18  C   UNL     1      43.054  -7.768  13.190  1.00  0.00     0.001 A 
HETATM   19  C   UNL     1      42.391  -6.705  12.576  1.00  0.00     0.002 A 
ENDBRANCH   7   8
ENDBRANCH   6   7
ENDBRANCH   2   6
BRANCH   1  20
HETATM   20  C   UNL     1      40.215 -13.241   4.983  1.00  0.00     0.137 C 
BRANCH  20  21
HETATM   21  C   UNL     1      39.417 -12.798   3.748  1.00  0.00     0.059 C 
BRANCH  21  22
HETATM   22  C   UNL     1      39.640 -13.600   2.479  1.00  0.00    -0.057 A 
HETATM   23  C   UNL     1      39.852 -12.891   1.284  1.00  0.00     0.007 A 
HETATM   24  C   UNL     1      40.073 -13.561   0.079  1.00  0.00     0.001 A 
HETATM   25  C   UNL     1      40.086 -14.952   0.047  1.00  0.00     0.000 A 
HETATM   26  C   UNL     1      39.883 -15.671   1.221  1.00  0.00     0.001 A 
HETATM   27  C   UNL     1      39.667 -15.002   2.430  1.00  0.00     0.007 A 
ENDBRANCH  21  22
ENDBRANCH  20  21
ENDBRANCH   1  20
BRANCH   5  28
HETATM   28  C   UNL     1      42.948 -14.294   3.772  1.00  0.00     0.045 A 
HETATM   29  C   UNL     1      42.886 -15.608   4.273  1.00  0.00     0.079 A 
HETATM   30  C   UNL     1      43.091 -16.710   3.446  1.00  0.00     0.037 A 
HETATM   31  C   UNL     1      43.392 -16.521   2.100  1.00  0.00     0.003 A 
HETATM   32  C   UNL     1      43.502 -15.229   1.590  1.00  0.00     0.001 A 
HETATM   33  C   UNL     1      43.295 -14.124   2.423  1.00  0.00     0.018 A 
BRANCH  29  34
HETATM   34  O   UNL     1      42.638 -15.882   5.594  1.00  0.00    -0.360 OA
HETATM   35  H   UNL     1      43.494 -16.082   6.027  1.00  0.00     0.217 HD
ENDBRANCH  29  34
ENDBRANCH   5  28
TORSDOF 8
ENDMDL
MODEL 5
REMARK VINA RESULT:      -8.8      3.987      7.832
REMARK  8 active torsions:
REMARK  status: ('A' for Active; 'I' for Inactive)
REMARK    1  A    between atoms: C_4  and  C_5 
REMARK    2  A    between atoms: C_5  and  C_6 
REMARK    3  A    between atoms: C_6  and  N_7 
REMARK    4  A    between atoms: C_8  and  S_9 
REMARK    5  A    between atoms: S_9  and  C_10 
REMARK    6  A    between atoms: C_10  and  C_11 
REMARK    7  A    between atoms: C_24  and  C_25 
REMARK    8  A    between atoms: C_26  and  O_27 
ROOT
HETATM    1  N   UNL     1      41.863 -14.747   2.364  1.00  0.00    -0.307 N 
HETATM    2  C   UNL     1      40.780 -14.508   1.555  1.00  0.00     0.192 C 
HETATM    3  N   UNL     1      39.880 -15.446   1.725  1.00  0.00    -0.122 NA
HETATM    4  N   UNL     1      40.322 -16.275   2.712  1.00  0.00    -0.128 NA
HETATM    5  C   UNL     1      41.476 -15.814   3.168  1.00  0.00     0.167 C 
ENDROOT
BRANCH   2   6
HETATM    6  S   UNL     1      40.592 -13.163   0.485  1.00  0.00    -0.083 SA
BRANCH   6   7
HETATM    7  C   UNL     1      39.257 -12.266   1.339  1.00  0.00     0.161 C 
BRANCH   7   8
HETATM    8  C   UNL     1      39.600 -11.856   2.760  1.00  0.00     0.117 A 
HETATM    9  N   UNL     1      40.203 -10.726   2.955  1.00  0.00    -0.234 NA
HETATM   10  C   UNL     1      40.538 -10.364   4.271  1.00  0.00     0.074 A 
HETATM   11  C   UNL     1      40.244 -11.174   5.371  1.00  0.00     0.061 A 
HETATM   12  C   UNL     1      41.198  -9.155   4.490  1.00  0.00     0.032 A 
HETATM   13  C   UNL     1      39.551 -12.444   5.105  1.00  0.00     0.259 A 
HETATM   14  C   UNL     1      40.596 -10.795   6.670  1.00  0.00     0.019 A 
HETATM   15  O   UNL     1      39.246 -13.224   6.000  1.00  0.00    -0.267 OA
HETATM   16  N   UNL     1      39.275 -12.700   3.787  1.00  0.00    -0.310 N 
HETATM   17  H   UNL     1      38.798 -13.570   3.591  1.00  0.00     0.170 HD
HETATM   18  C   UNL     1      41.256  -9.583   6.873  1.00  0.00     0.001 A 
HETATM   19  C   UNL     1      41.557  -8.763   5.784  1.00  0.00     0.002 A 
ENDBRANCH   7   8
ENDBRANCH   6   7
ENDBRANCH   2   6
BRANCH   1  20
HETATM   20  C   UNL     1      43.138 -14.055   2.417  1.00  0.00     0.137 C 
BRANCH  20  21
HETATM   21  C   UNL     1      43.140 -12.634   2.998  1.00  0.00     0.059 C 
BRANCH  21  22
HETATM   22  C   UNL     1      43.497 -12.506   4.468  1.00  0.00    -0.057 A 
HETATM   23  C   UNL     1      44.226 -11.374   4.870  1.00  0.00     0.007 A 
HETATM   24  C   UNL     1      44.583 -11.184   6.206  1.00  0.00     0.001 A 
HETATM   25  C   UNL     1      44.217 -12.124   7.165  1.00  0.00     0.000 A 
HETATM   26  C   UNL     1      43.490 -13.248   6.787  1.00  0.00     0.001 A 
HETATM   27  C   UNL     1      43.127 -13.438   5.449  1.00  0.00     0.007 A 
ENDBRANCH  21  22
ENDBRANCH  20  21
ENDBRANCH   1  20
BRANCH   5  28
HETATM   28  C   UNL     1      42.184 -16.420   4.301  1.00  0.00     0.045 A 
HETATM   29  C   UNL     1      41.584 -16.453   5.573  1.00  0.00     0.079 A 
HETATM   30  C   UNL     1      42.233 -17.023   6.667  1.00  0.00     0.037 A 
HETATM   31  C   UNL     1      43.513 -17.549   6.516  1.00  0.00     0.003 A 
HETATM   32  C   UNL     1      44.145 -17.489   5.277  1.00  0.00     0.001 A 
HETATM   33  C   UNL     1      43.491 -16.916   4.180  1.00  0.00     0.018 A 
BRANCH  29  34
HETATM   34  O   UNL     1      40.344 -15.919   5.818  1.00  0.00    -0.360 OA
HETATM   35  H   UNL     1      39.727 -16.264   5.140  1.00  0.00     0.217 HD
ENDBRANCH  29  34
ENDBRANCH   5  28
TORSDOF 8
ENDMDL
MODEL 6
REMARK VINA RESULT:      -8.8      1.308      1.939
REMARK  8 active torsions:
REMARK  status: ('A' for Active; 'I' for Inactive)
REMARK    1  A    between atoms: C_4  and  C_5 
REMARK    2  A    between atoms: C_5  and  C_6 
REMARK    3  A    between atoms: C_6  and  N_7 
REMARK    4  A    between atoms: C_8  and  S_9 
REMARK    5  A    between atoms: S_9  and  C_10 
REMARK    6  A    between atoms: C_10  and  C_11 
REMARK    7  A    between atoms: C_24  and  C_25 
REMARK    8  A    between atoms: C_26  and  O_27 
ROOT
HETATM    1  N   UNL     1      43.188 -10.353   7.279  1.00  0.00    -0.307 N 
HETATM    2  C   UNL     1      43.786 -11.360   6.564  1.00  0.00     0.192 C 
HETATM    3  N   UNL     1      44.837 -11.803   7.209  1.00  0.00    -0.122 NA
HETATM    4  N   UNL     1      44.901 -11.149   8.402  1.00  0.00    -0.128 NA
HETATM    5  C   UNL     1      43.861 -10.335   8.496  1.00  0.00     0.167 C 
ENDROOT
BRANCH   2   6
HETATM    6  S   UNL     1      43.238 -11.991   5.050  1.00  0.00    -0.083 SA
BRANCH   6   7
HETATM    7  C   UNL     1      42.297 -13.436   5.633  1.00  0.00     0.161 C 
BRANCH   7   8
HETATM    8  C   UNL     1      42.465 -14.672   4.769  1.00  0.00     0.117 A 
HETATM    9  N   UNL     1      43.225 -15.631   5.194  1.00  0.00    -0.234 NA
HETATM   10  C   UNL     1      43.395 -16.763   4.378  1.00  0.00     0.074 A 
HETATM   11  C   UNL     1      42.776 -16.890   3.132  1.00  0.00     0.061 A 
HETATM   12  C   UNL     1      44.219 -17.796   4.822  1.00  0.00     0.032 A 
HETATM   13  C   UNL     1      41.916 -15.781   2.692  1.00  0.00     0.259 A 
HETATM   14  C   UNL     1      42.968 -18.023   2.335  1.00  0.00     0.019 A 
HETATM   15  O   UNL     1      41.327 -15.796   1.617  1.00  0.00    -0.267 OA
HETATM   16  N   UNL     1      41.823 -14.726   3.562  1.00  0.00    -0.310 N 
HETATM   17  H   UNL     1      41.234 -13.957   3.270  1.00  0.00     0.170 HD
HETATM   18  C   UNL     1      43.797 -19.048   2.793  1.00  0.00     0.001 A 
HETATM   19  C   UNL     1      44.422 -18.935   4.035  1.00  0.00     0.002 A 
ENDBRANCH   7   8
ENDBRANCH   6   7
ENDBRANCH   2   6
BRANCH   1  20
HETATM   20  C   UNL     1      42.084  -9.489   6.900  1.00  0.00     0.137 C 
BRANCH  20  21
HETATM   21  C   UNL     1      40.693  -9.854   7.438  1.00  0.00     0.059 C 
BRANCH  21  22
HETATM   22  C   UNL     1      40.157  -8.989   8.564  1.00  0.00    -0.057 A 
HETATM   23  C   UNL     1      39.922  -9.603   9.806  1.00  0.00     0.007 A 
HETATM   24  C   UNL     1      39.439  -8.870  10.892  1.00  0.00     0.001 A 
HETATM   25  C   UNL     1      39.182  -7.509  10.754  1.00  0.00     0.000 A 
HETATM   26  C   UNL     1      39.415  -6.883   9.534  1.00  0.00     0.001 A 
HETATM   27  C   UNL     1      39.904  -7.615   8.447  1.00  0.00     0.007 A 
ENDBRANCH  21  22
ENDBRANCH  20  21
ENDBRANCH   1  20
BRANCH   5  28
HETATM   28  C   UNL     1      43.573  -9.545   9.698  1.00  0.00     0.045 A 
HETATM   29  C   UNL     1      43.419 -10.183  10.942  1.00  0.00     0.079 A 
HETATM   30  C   UNL     1      43.147  -9.458  12.101  1.00  0.00     0.037 A 
HETATM   31  C   UNL     1      42.994  -8.076  12.034  1.00  0.00     0.003 A 
HETATM   32  C   UNL     1      43.098  -7.427  10.806  1.00  0.00     0.001 A 
HETATM   33  C   UNL     1      43.373  -8.157   9.645  1.00  0.00     0.018 A 
BRANCH  29  34
HETATM   34  O   UNL     1      43.511 -11.544  11.090  1.00  0.00    -0.360 OA
HETATM   35  H   UNL     1      42.917 -11.961  10.431  1.00  0.00     0.217 HD
ENDBRANCH  29  34
ENDBRANCH   5  28
TORSDOF 8
ENDMDL
MODEL 7
REMARK VINA RESULT:      -8.8      5.056      8.223
REMARK  8 active torsions:
REMARK  status: ('A' for Active; 'I' for Inactive)
REMARK    1  A    between atoms: C_4  and  C_5 
REMARK    2  A    between atoms: C_5  and  C_6 
REMARK    3  A    between atoms: C_6  and  N_7 
REMARK    4  A    between atoms: C_8  and  S_9 
REMARK    5  A    between atoms: S_9  and  C_10 
REMARK    6  A    between atoms: C_10  and  C_11 
REMARK    7  A    between atoms: C_24  and  C_25 
REMARK    8  A    between atoms: C_26  and  O_27 
ROOT
HETATM    1  N   UNL     1      41.197 -12.509   4.825  1.00  0.00    -0.307 N 
HETATM    2  C   UNL     1      40.111 -11.704   5.064  1.00  0.00     0.192 C 
HETATM    3  N   UNL     1      39.252 -12.331   5.831  1.00  0.00    -0.122 NA
HETATM    4  N   UNL     1      39.798 -13.530   6.178  1.00  0.00    -0.128 NA
HETATM    5  C   UNL     1      41.009 -13.612   5.650  1.00  0.00     0.167 C 
ENDROOT
BRANCH   2   6
HETATM    6  S   UNL     1      39.895 -10.092   4.479  1.00  0.00    -0.083 SA
BRANCH   6   7
HETATM    7  C   UNL     1      38.733 -10.406   3.113  1.00  0.00     0.161 C 
BRANCH   7   8
HETATM    8  C   UNL     1      39.406 -10.741   1.795  1.00  0.00     0.117 A 
HETATM    9  N   UNL     1      38.975 -11.756   1.115  1.00  0.00    -0.234 NA
HETATM   10  C   UNL     1      39.618 -12.075  -0.094  1.00  0.00     0.074 A 
HETATM   11  C   UNL     1      40.700 -11.340  -0.585  1.00  0.00     0.061 A 
HETATM   12  C   UNL     1      39.168 -13.172  -0.827  1.00  0.00     0.032 A 
HETATM   13  C   UNL     1      41.152 -10.192   0.215  1.00  0.00     0.259 A 
HETATM   14  C   UNL     1      41.329 -11.683  -1.786  1.00  0.00     0.019 A 
HETATM   15  O   UNL     1      42.090  -9.481  -0.130  1.00  0.00    -0.267 OA
HETATM   16  N   UNL     1      40.457  -9.972   1.376  1.00  0.00    -0.310 N 
HETATM   17  H   UNL     1      40.759  -9.184   1.935  1.00  0.00     0.170 HD
HETATM   18  C   UNL     1      40.868 -12.784  -2.508  1.00  0.00     0.001 A 
HETATM   19  C   UNL     1      39.789 -13.528  -2.030  1.00  0.00     0.002 A 
ENDBRANCH   7   8
ENDBRANCH   6   7
ENDBRANCH   2   6
BRANCH   1  20
HETATM   20  C   UNL     1      42.323 -12.288   3.935  1.00  0.00     0.137 C 
BRANCH  20  21
HETATM   21  C   UNL     1      42.215 -12.861   2.514  1.00  0.00     0.059 C 
BRANCH  21  22
HETATM   22  C   UNL     1      42.115 -14.371   2.402  1.00  0.00    -0.057 A 
HETATM   23  C   UNL     1      43.294 -15.120   2.556  1.00  0.00     0.007 A 
HETATM   24  C   UNL     1      43.277 -16.514   2.476  1.00  0.00     0.001 A 
HETATM   25  C   UNL     1      42.081 -17.184   2.238  1.00  0.00     0.000 A 
HETATM   26  C   UNL     1      40.902 -16.459   2.088  1.00  0.00     0.001 A 
HETATM   27  C   UNL     1      40.916 -15.063   2.174  1.00  0.00     0.007 A 
ENDBRANCH  21  22
ENDBRANCH  20  21
ENDBRANCH   1  20
BRANCH   5  28
HETATM   28  C   UNL     1      41.914 -14.739   5.904  1.00  0.00     0.045 A 
HETATM   29  C   UNL     1      41.440 -16.060   5.806  1.00  0.00     0.079 A 
HETATM   30  C   UNL     1      42.277 -17.150   6.040  1.00  0.00     0.037 A 
HETATM   31  C   UNL     1      43.603 -16.940   6.407  1.00  0.00     0.003 A 
HETATM   32  C   UNL     1      44.083 -15.640   6.553  1.00  0.00     0.001 A 
HETATM   33  C   UNL     1      43.241 -14.548   6.316  1.00  0.00     0.018 A 
BRANCH  29  34
HETATM   34  O   UNL     1      40.137 -16.357   5.492  1.00  0.00    -0.360 OA
HETATM   35  H   UNL     1      39.932 -15.941   4.629  1.00  0.00     0.217 HD
ENDBRANCH  29  34
ENDBRANCH   5  28
TORSDOF 8
ENDMDL
MODEL 8
REMARK VINA RESULT:      -8.7      2.506      8.449
REMARK  8 active torsions:
REMARK  status: ('A' for Active; 'I' for Inactive)
REMARK    1  A    between atoms: C_4  and  C_5 
REMARK    2  A    between atoms: C_5  and  C_6 
REMARK    3  A    between atoms: C_6  and  N_7 
REMARK    4  A    between atoms: C_8  and  S_9 
REMARK    5  A    between atoms: S_9  and  C_10 
REMARK    6  A    between atoms: C_10  and  C_11 
REMARK    7  A    between atoms: C_24  and  C_25 
REMARK    8  A    between atoms: C_26  and  O_27 
ROOT
HETATM    1  N   UNL     1      41.185 -12.161   5.440  1.00  0.00    -0.307 N 
HETATM    2  C   UNL     1      40.114 -11.468   5.947  1.00  0.00     0.192 C 
HETATM    3  N   UNL     1      39.266 -12.300   6.501  1.00  0.00    -0.122 NA
HETATM    4  N   UNL     1      39.806 -13.549   6.440  1.00  0.00    -0.128 NA
HETATM    5  C   UNL     1      41.004 -13.467   5.883  1.00  0.00     0.167 C 
ENDROOT
BRANCH   2   6
HETATM    6  S   UNL     1      39.904  -9.753   5.903  1.00  0.00    -0.083 SA
BRANCH   6   7
HETATM    7  C   UNL     1      39.575  -9.430   7.664  1.00  0.00     0.161 C 
BRANCH   7   8
HETATM    8  C   UNL     1      40.815  -9.454   8.538  1.00  0.00     0.117 A 
HETATM    9  N   UNL     1      41.977  -9.354   7.975  1.00  0.00    -0.234 NA
HETATM   10  C   UNL     1      43.123  -9.400   8.788  1.00  0.00     0.074 A 
HETATM   11  C   UNL     1      43.053  -9.549  10.176  1.00  0.00     0.061 A 
HETATM   12  C   UNL     1      44.379  -9.305   8.190  1.00  0.00     0.032 A 
HETATM   13  C   UNL     1      41.713  -9.650  10.775  1.00  0.00     0.259 A 
HETATM   14  C   UNL     1      44.207  -9.600  10.963  1.00  0.00     0.019 A 
HETATM   15  O   UNL     1      41.543  -9.779  11.982  1.00  0.00    -0.267 OA
HETATM   16  N   UNL     1      40.666  -9.596   9.891  1.00  0.00    -0.310 N 
HETATM   17  H   UNL     1      39.740  -9.665  10.291  1.00  0.00     0.170 HD
HETATM   18  C   UNL     1      45.456  -9.504  10.350  1.00  0.00     0.001 A 
HETATM   19  C   UNL     1      45.542  -9.356   8.965  1.00  0.00     0.002 A 
ENDBRANCH   7   8
ENDBRANCH   6   7
ENDBRANCH   2   6
BRANCH   1  20
HETATM   20  C   UNL     1      42.293 -11.676   4.636  1.00  0.00     0.137 C 
BRANCH  20  21
HETATM   21  C   UNL     1      42.153 -11.790   3.111  1.00  0.00     0.059 C 
BRANCH  21  22
HETATM   22  C   UNL     1      42.237 -13.189   2.529  1.00  0.00    -0.057 A 
HETATM   23  C   UNL     1      41.058 -13.760   2.021  1.00  0.00     0.007 A 
HETATM   24  C   UNL     1      41.060 -15.039   1.461  1.00  0.00     0.001 A 
HETATM   25  C   UNL     1      42.243 -15.771   1.400  1.00  0.00     0.000 A 
HETATM   26  C   UNL     1      43.422 -15.219   1.892  1.00  0.00     0.001 A 
HETATM   27  C   UNL     1      43.422 -13.935   2.448  1.00  0.00     0.007 A 
ENDBRANCH  21  22
ENDBRANCH  20  21
ENDBRANCH   1  20
BRANCH   5  28
HETATM   28  C   UNL     1      41.901 -14.620   5.747  1.00  0.00     0.045 A 
HETATM   29  C   UNL     1      41.439 -15.807   5.149  1.00  0.00     0.079 A 
HETATM   30  C   UNL     1      42.269 -16.917   5.006  1.00  0.00     0.037 A 
HETATM   31  C   UNL     1      43.575 -16.873   5.486  1.00  0.00     0.003 A 
HETATM   32  C   UNL     1      44.041 -15.724   6.121  1.00  0.00     0.001 A 
HETATM   33  C   UNL     1      43.205 -14.611   6.262  1.00  0.00     0.018 A 
BRANCH  29  34
HETATM   34  O   UNL     1      40.155 -15.950   4.688  1.00  0.00    -0.360 OA
HETATM   35  H   UNL     1      40.075 -15.443   3.853  1.00  0.00     0.217 HD
ENDBRANCH  29  34
ENDBRANCH   5  28
TORSDOF 8
ENDMDL
MODEL 9
REMARK VINA RESULT:      -8.7     19.062     21.196
REMARK  8 active torsions:
REMARK  status: ('A' for Active; 'I' for Inactive)
REMARK    1  A    between atoms: C_4  and  C_5 
REMARK    2  A    between atoms: C_5  and  C_6 
REMARK    3  A    between atoms: C_6  and  N_7 
REMARK    4  A    between atoms: C_8  and  S_9 
REMARK    5  A    between atoms: S_9  and  C_10 
REMARK    6  A    between atoms: C_10  and  C_11 
REMARK    7  A    between atoms: C_24  and  C_25 
REMARK    8  A    between atoms: C_26  and  O_27 
ROOT
HETATM    1  N   UNL     1      44.253 -31.237   0.240  1.00  0.00    -0.307 N 
HETATM    2  C   UNL     1      43.467 -31.325   1.362  1.00  0.00     0.192 C 
HETATM    3  N   UNL     1      42.801 -30.208   1.529  1.00  0.00    -0.122 NA
HETATM    4  N   UNL     1      43.076 -29.395   0.472  1.00  0.00    -0.128 NA
HETATM    5  C   UNL     1      43.881 -30.038  -0.359  1.00  0.00     0.167 C 
ENDROOT
BRANCH   2   6
HETATM    6  S   UNL     1      43.333 -32.701   2.400  1.00  0.00    -0.083 SA
BRANCH   6   7
HETATM    7  C   UNL     1      43.999 -31.999   3.941  1.00  0.00     0.161 C 
BRANCH   7   8
HETATM    8  C   UNL     1      45.291 -31.223   3.759  1.00  0.00     0.117 A 
HETATM    9  N   UNL     1      46.390 -31.723   4.225  1.00  0.00    -0.234 NA
HETATM   10  C   UNL     1      47.579 -30.989   4.073  1.00  0.00     0.074 A 
HETATM   11  C   UNL     1      47.616 -29.744   3.439  1.00  0.00     0.061 A 
HETATM   12  C   UNL     1      48.766 -31.514   4.581  1.00  0.00     0.032 A 
HETATM   13  C   UNL     1      46.346 -29.216   2.917  1.00  0.00     0.259 A 
HETATM   14  C   UNL     1      48.810 -29.028   3.308  1.00  0.00     0.019 A 
HETATM   15  O   UNL     1      46.271 -28.136   2.343  1.00  0.00    -0.267 OA
HETATM   16  N   UNL     1      45.249 -30.012   3.122  1.00  0.00    -0.310 N 
HETATM   17  H   UNL     1      44.369 -29.660   2.767  1.00  0.00     0.170 HD
HETATM   18  C   UNL     1      49.989 -29.567   3.822  1.00  0.00     0.001 A 
HETATM   19  C   UNL     1      49.968 -30.809   4.458  1.00  0.00     0.002 A 
ENDBRANCH   7   8
ENDBRANCH   6   7
ENDBRANCH   2   6
BRANCH   1  20
HETATM   20  C   UNL     1      45.247 -32.170  -0.258  1.00  0.00     0.137 C 
BRANCH  20  21
HETATM   21  C   UNL     1      46.470 -32.432   0.632  1.00  0.00     0.059 C 
BRANCH  21  22
HETATM   22  C   UNL     1      47.698 -31.583   0.360  1.00  0.00    -0.057 A 
HETATM   23  C   UNL     1      48.942 -32.067   0.799  1.00  0.00     0.007 A 
HETATM   24  C   UNL     1      50.116 -31.345   0.575  1.00  0.00     0.001 A 
HETATM   25  C   UNL     1      50.066 -30.124  -0.091  1.00  0.00     0.000 A 
HETATM   26  C   UNL     1      48.844 -29.631  -0.538  1.00  0.00     0.001 A 
HETATM   27  C   UNL     1      47.668 -30.356  -0.320  1.00  0.00     0.007 A 
ENDBRANCH  21  22
ENDBRANCH  20  21
ENDBRANCH   1  20
BRANCH   5  28
HETATM   28  C   UNL     1      44.302 -29.483  -1.650  1.00  0.00     0.045 A 
HETATM   29  C   UNL     1      45.045 -28.289  -1.697  1.00  0.00     0.079 A 
HETATM   30  C   UNL     1      45.460 -27.739  -2.908  1.00  0.00     0.037 A 
HETATM   31  C   UNL     1      45.114 -28.359  -4.106  1.00  0.00     0.003 A 
HETATM   32  C   UNL     1      44.341 -29.518  -4.087  1.00  0.00     0.001 A 
HETATM   33  C   UNL     1      43.928 -30.069  -2.869  1.00  0.00     0.018 A 
BRANCH  29  34
HETATM   34  O   UNL     1      45.391 -27.590  -0.568  1.00  0.00    -0.360 OA
HETATM   35  H   UNL     1      45.007 -26.691  -0.638  1.00  0.00     0.217 HD
ENDBRANCH  29  34
ENDBRANCH   5  28
TORSDOF 8
ENDMDL
MODEL 10
REMARK VINA RESULT:      -8.5      5.067      9.050
REMARK  8 active torsions:
REMARK  status: ('A' for Active; 'I' for Inactive)
REMARK    1  A    between atoms: C_4  and  C_5 
REMARK    2  A    between atoms: C_5  and  C_6 
REMARK    3  A    between atoms: C_6  and  N_7 
REMARK    4  A    between atoms: C_8  and  S_9 
REMARK    5  A    between atoms: S_9  and  C_10 
REMARK    6  A    between atoms: C_10  and  C_11 
REMARK    7  A    between atoms: C_24  and  C_25 
REMARK    8  A    between atoms: C_26  and  O_27 
ROOT
HETATM    1  N   UNL     1      41.545 -14.184   4.026  1.00  0.00    -0.307 N 
HETATM    2  C   UNL     1      40.481 -14.019   3.175  1.00  0.00     0.192 C 
HETATM    3  N   UNL     1      40.067 -12.776   3.214  1.00  0.00    -0.122 NA
HETATM    4  N   UNL     1      40.906 -12.081   4.032  1.00  0.00    -0.128 NA
HETATM    5  C   UNL     1      41.855 -12.899   4.458  1.00  0.00     0.167 C 
ENDROOT
BRANCH   2   6
HETATM    6  S   UNL     1      39.789 -15.242   2.168  1.00  0.00    -0.083 SA
BRANCH   6   7
HETATM    7  C   UNL     1      40.811 -15.036   0.675  1.00  0.00     0.161 C 
BRANCH   7   8
HETATM    8  C   UNL     1      40.290 -13.987  -0.289  1.00  0.00     0.117 A 
HETATM    9  N   UNL     1      40.955 -12.884  -0.430  1.00  0.00    -0.234 NA
HETATM   10  C   UNL     1      40.455 -11.907  -1.308  1.00  0.00     0.074 A 
HETATM   11  C   UNL     1      39.272 -12.081  -2.031  1.00  0.00     0.061 A 
HETATM   12  C   UNL     1      41.158 -10.712  -1.458  1.00  0.00     0.032 A 
HETATM   13  C   UNL     1      38.553 -13.352  -1.847  1.00  0.00     0.259 A 
HETATM   14  C   UNL     1      38.790 -11.091  -2.891  1.00  0.00     0.019 A 
HETATM   15  O   UNL     1      37.508 -13.605  -2.436  1.00  0.00    -0.267 OA
HETATM   16  N   UNL     1      39.127 -14.232  -0.967  1.00  0.00    -0.310 N 
HETATM   17  H   UNL     1      38.642 -15.109  -0.832  1.00  0.00     0.170 HD
HETATM   18  C   UNL     1      39.505  -9.901  -3.030  1.00  0.00     0.001 A 
HETATM   19  C   UNL     1      40.687  -9.711  -2.314  1.00  0.00     0.002 A 
ENDBRANCH   7   8
ENDBRANCH   6   7
ENDBRANCH   2   6
BRANCH   1  20
HETATM   20  C   UNL     1      42.237 -15.403   4.403  1.00  0.00     0.137 C 
BRANCH  20  21
HETATM   21  C   UNL     1      43.269 -15.958   3.411  1.00  0.00     0.059 C 
BRANCH  21  22
HETATM   22  C   UNL     1      43.465 -17.463   3.413  1.00  0.00    -0.057 A 
HETATM   23  C   UNL     1      43.082 -18.175   2.263  1.00  0.00     0.007 A 
HETATM   24  C   UNL     1      43.241 -19.561   2.188  1.00  0.00     0.001 A 
HETATM   25  C   UNL     1      43.786 -20.258   3.262  1.00  0.00     0.000 A 
HETATM   26  C   UNL     1      44.177 -19.569   4.406  1.00  0.00     0.001 A 
HETATM   27  C   UNL     1      44.023 -18.181   4.481  1.00  0.00     0.007 A 
ENDBRANCH  21  22
ENDBRANCH  20  21
ENDBRANCH   1  20
BRANCH   5  28
HETATM   28  C   UNL     1      42.980 -12.450   5.287  1.00  0.00     0.045 A 
HETATM   29  C   UNL     1      44.028 -11.707   4.713  1.00  0.00     0.079 A 
HETATM   30  C   UNL     1      45.108 -11.267   5.476  1.00  0.00     0.037 A 
HETATM   31  C   UNL     1      45.177 -11.588   6.829  1.00  0.00     0.003 A 
HETATM   32  C   UNL     1      44.174 -12.360   7.410  1.00  0.00     0.001 A 
HETATM   33  C   UNL     1      43.090 -12.799   6.641  1.00  0.00     0.018 A 
BRANCH  29  34
HETATM   34  O   UNL     1      44.060 -11.385   3.380  1.00  0.00    -0.360 OA
HETATM   35  H   UNL     1      44.424 -12.153   2.892  1.00  0.00     0.217 HD
ENDBRANCH  29  34
ENDBRANCH   5  28
TORSDOF 8
ENDMDL
