MODEL 1
REMARK VINA RESULT:      -7.9      0.000      0.000
REMARK  2 active torsions:
REMARK  status: ('A' for Active; 'I' for Inactive)
REMARK    1  A    between atoms: C_8  and  S_9 
REMARK    2  A    between atoms: S_9  and  C_10 
ROOT
HETATM    1  C   UNL     1      43.765 -20.642   2.631  1.00  0.00     0.002 A 
HETATM    2  C   UNL     1      43.444 -19.344   2.233  1.00  0.00     0.034 A 
HETATM    3  C   UNL     1      43.443 -18.293   3.141  1.00  0.00     0.087 A 
HETATM    4  C   UNL     1      43.774 -18.548   4.496  1.00  0.00     0.087 A 
HETATM    5  N   UNL     1      43.795 -17.556   5.412  1.00  0.00    -0.231 NA
HETATM    6  C   UNL     1      43.446 -16.319   4.997  1.00  0.00     0.167 A 
HETATM    7 CL   UNL     1      43.616 -15.137   6.224  1.00  0.00    -0.059 Cl
HETATM    8  C   UNL     1      43.121 -16.083   3.682  1.00  0.00     0.192 A 
HETATM    9  N   UNL     1      43.137 -17.050   2.721  1.00  0.00    -0.232 NA
HETATM   10  C   UNL     1      44.095 -19.844   4.879  1.00  0.00     0.034 A 
HETATM   11  C   UNL     1      44.092 -20.892   3.958  1.00  0.00     0.002 A 
ENDROOT
BRANCH   8  12
HETATM   12  S   UNL     1      42.693 -14.492   3.056  1.00  0.00     0.200 S 
HETATM   13  O   UNL     1      43.332 -13.475   3.875  1.00  0.00    -0.221 OA
HETATM   14  O   UNL     1      42.896 -14.460   1.623  1.00  0.00    -0.221 OA
BRANCH  12  15
HETATM   15  C   UNL     1      40.929 -14.340   3.359  1.00  0.00     0.118 C 
HETATM   16  C   UNL     1      40.175 -15.539   2.762  1.00  0.00     0.048 C 
HETATM   17  C   UNL     1      40.083 -15.489   1.242  1.00  0.00     0.233 C 
HETATM   18  N   UNL     1      39.483 -14.187   0.828  1.00  0.00    -0.075 N 
HETATM   19  H   UNL     1      38.493 -14.151   1.108  1.00  0.00     0.277 HD
HETATM   20  H   UNL     1      39.472 -14.157  -0.203  1.00  0.00     0.277 HD
HETATM   21  C   UNL     1      40.197 -12.971   1.313  1.00  0.00     0.233 C 
HETATM   22  C   UNL     1      40.337 -13.024   2.831  1.00  0.00     0.048 C 
ENDBRANCH  12  15
ENDBRANCH   8  12
TORSDOF 2
ENDMDL
MODEL 2
REMARK VINA RESULT:      -7.7      1.714      2.362
REMARK  2 active torsions:
REMARK  status: ('A' for Active; 'I' for Inactive)
REMARK    1  A    between atoms: C_8  and  S_9 
REMARK    2  A    between atoms: S_9  and  C_10 
ROOT
HETATM    1  C   UNL     1      43.483 -20.472   2.293  1.00  0.00     0.002 A 
HETATM    2  C   UNL     1      43.180 -19.119   2.141  1.00  0.00     0.034 A 
HETATM    3  C   UNL     1      43.384 -18.215   3.175  1.00  0.00     0.087 A 
HETATM    4  C   UNL     1      43.908 -18.680   4.408  1.00  0.00     0.087 A 
HETATM    5  N   UNL     1      44.131 -17.837   5.438  1.00  0.00    -0.231 NA
HETATM    6  C   UNL     1      43.795 -16.540   5.265  1.00  0.00     0.167 A 
HETATM    7 CL   UNL     1      44.224 -15.561   6.601  1.00  0.00    -0.059 Cl
HETATM    8  C   UNL     1      43.281 -16.100   4.068  1.00  0.00     0.192 A 
HETATM    9  N   UNL     1      43.089 -16.913   2.990  1.00  0.00    -0.232 NA
HETATM   10  C   UNL     1      44.208 -20.029   4.546  1.00  0.00     0.034 A 
HETATM   11  C   UNL     1      43.999 -20.928   3.499  1.00  0.00     0.002 A 
ENDROOT
BRANCH   8  12
HETATM   12  S   UNL     1      42.855 -14.420   3.751  1.00  0.00     0.200 S 
HETATM   13  O   UNL     1      43.346 -13.594   4.842  1.00  0.00    -0.221 OA
HETATM   14  O   UNL     1      43.221 -14.070   2.395  1.00  0.00    -0.221 OA
BRANCH  12  15
HETATM   15  C   UNL     1      41.062 -14.373   3.860  1.00  0.00     0.118 C 
HETATM   16  C   UNL     1      40.567 -12.922   3.971  1.00  0.00     0.048 C 
HETATM   17  C   UNL     1      40.828 -12.307   5.339  1.00  0.00     0.233 C 
HETATM   18  N   UNL     1      40.238 -13.182   6.393  1.00  0.00    -0.075 N 
HETATM   19  H   UNL     1      39.210 -13.159   6.336  1.00  0.00     0.277 HD
HETATM   20  H   UNL     1      40.464 -12.770   7.311  1.00  0.00     0.277 HD
HETATM   21  C   UNL     1      40.719 -14.594   6.395  1.00  0.00     0.233 C 
HETATM   22  C   UNL     1      40.506 -15.215   5.018  1.00  0.00     0.048 C 
ENDBRANCH  12  15
ENDBRANCH   8  12
TORSDOF 2
ENDMDL
MODEL 3
REMARK VINA RESULT:      -7.6      2.061      2.538
REMARK  2 active torsions:
REMARK  status: ('A' for Active; 'I' for Inactive)
REMARK    1  A    between atoms: C_8  and  S_9 
REMARK    2  A    between atoms: S_9  and  C_10 
ROOT
HETATM    1  C   UNL     1      43.615 -19.705   2.309  1.00  0.00     0.002 A 
HETATM    2  C   UNL     1      43.253 -18.367   2.468  1.00  0.00     0.034 A 
HETATM    3  C   UNL     1      43.264 -17.762   3.719  1.00  0.00     0.087 A 
HETATM    4  C   UNL     1      43.649 -18.522   4.852  1.00  0.00     0.087 A 
HETATM    5  N   UNL     1      43.684 -17.975   6.085  1.00  0.00    -0.231 NA
HETATM    6  C   UNL     1      43.294 -16.686   6.206  1.00  0.00     0.167 A 
HETATM    7 CL   UNL     1      43.484 -16.084   7.796  1.00  0.00    -0.059 Cl
HETATM    8  C   UNL     1      42.917 -15.960   5.101  1.00  0.00     0.192 A 
HETATM    9  N   UNL     1      42.918 -16.465   3.835  1.00  0.00    -0.232 NA
HETATM   10  C   UNL     1      44.010 -19.853   4.680  1.00  0.00     0.034 A 
HETATM   11  C   UNL     1      43.995 -20.449   3.418  1.00  0.00     0.002 A 
ENDROOT
BRANCH   8  12
HETATM   12  S   UNL     1      42.434 -14.266   5.170  1.00  0.00     0.200 S 
HETATM   13  O   UNL     1      41.120 -14.174   5.783  1.00  0.00    -0.221 OA
HETATM   14  O   UNL     1      43.514 -13.472   5.717  1.00  0.00    -0.221 OA
BRANCH  12  15
HETATM   15  C   UNL     1      42.218 -13.781   3.454  1.00  0.00     0.118 C 
HETATM   16  C   UNL     1      43.434 -12.977   2.965  1.00  0.00     0.048 C 
HETATM   17  C   UNL     1      43.479 -11.563   3.529  1.00  0.00     0.233 C 
HETATM   18  N   UNL     1      42.191 -10.872   3.226  1.00  0.00    -0.075 N 
HETATM   19  H   UNL     1      42.112 -10.701   2.214  1.00  0.00     0.277 HD
HETATM   20  H   UNL     1      42.227  -9.934   3.655  1.00  0.00     0.277 HD
HETATM   21  C   UNL     1      40.965 -11.557   3.727  1.00  0.00     0.233 C 
HETATM   22  C   UNL     1      40.925 -12.991   3.208  1.00  0.00     0.048 C 
ENDBRANCH  12  15
ENDBRANCH   8  12
TORSDOF 2
ENDMDL
MODEL 4
REMARK VINA RESULT:      -7.5      3.460      4.553
REMARK  2 active torsions:
REMARK  status: ('A' for Active; 'I' for Inactive)
REMARK    1  A    between atoms: C_8  and  S_9 
REMARK    2  A    between atoms: S_9  and  C_10 
ROOT
HETATM    1  C   UNL     1      44.220 -19.321   4.033  1.00  0.00     0.002 A 
HETATM    2  C   UNL     1      44.080 -18.257   4.925  1.00  0.00     0.034 A 
HETATM    3  C   UNL     1      43.480 -17.066   4.536  1.00  0.00     0.087 A 
HETATM    4  C   UNL     1      43.003 -16.933   3.207  1.00  0.00     0.087 A 
HETATM    5  N   UNL     1      42.405 -15.799   2.787  1.00  0.00    -0.231 NA
HETATM    6  C   UNL     1      42.317 -14.778   3.668  1.00  0.00     0.167 A 
HETATM    7 CL   UNL     1      41.447 -13.441   3.048  1.00  0.00    -0.059 Cl
HETATM    8  C   UNL     1      42.789 -14.915   4.953  1.00  0.00     0.192 A 
HETATM    9  N   UNL     1      43.353 -16.062   5.425  1.00  0.00    -0.232 NA
HETATM   10  C   UNL     1      43.146 -18.001   2.330  1.00  0.00     0.034 A 
HETATM   11  C   UNL     1      43.750 -19.193   2.732  1.00  0.00     0.002 A 
ENDROOT
BRANCH   8  12
HETATM   12  S   UNL     1      42.677 -13.646   6.170  1.00  0.00     0.200 S 
HETATM   13  O   UNL     1      41.330 -13.100   6.161  1.00  0.00    -0.221 OA
HETATM   14  O   UNL     1      43.227 -14.120   7.423  1.00  0.00    -0.221 OA
BRANCH  12  15
HETATM   15  C   UNL     1      43.749 -12.337   5.567  1.00  0.00     0.118 C 
HETATM   16  C   UNL     1      44.865 -12.044   6.583  1.00  0.00     0.048 C 
HETATM   17  C   UNL     1      44.370 -11.294   7.812  1.00  0.00     0.233 C 
HETATM   18  N   UNL     1      43.665 -10.052   7.381  1.00  0.00    -0.075 N 
HETATM   19  H   UNL     1      44.339  -9.387   6.977  1.00  0.00     0.277 HD
HETATM   20  H   UNL     1      43.301  -9.585   8.226  1.00  0.00     0.277 HD
HETATM   21  C   UNL     1      42.524 -10.258   6.444  1.00  0.00     0.233 C 
HETATM   22  C   UNL     1      42.991 -11.046   5.224  1.00  0.00     0.048 C 
ENDBRANCH  12  15
ENDBRANCH   8  12
TORSDOF 2
ENDMDL
MODEL 5
REMARK VINA RESULT:      -7.5      2.030      2.842
REMARK  2 active torsions:
REMARK  status: ('A' for Active; 'I' for Inactive)
REMARK    1  A    between atoms: C_8  and  S_9 
REMARK    2  A    between atoms: S_9  and  C_10 
ROOT
HETATM    1  C   UNL     1      44.198 -20.554   4.943  1.00  0.00     0.002 A 
HETATM    2  C   UNL     1      43.955 -19.232   5.317  1.00  0.00     0.034 A 
HETATM    3  C   UNL     1      43.580 -18.277   4.381  1.00  0.00     0.087 A 
HETATM    4  C   UNL     1      43.445 -18.657   3.021  1.00  0.00     0.087 A 
HETATM    5  N   UNL     1      43.073 -17.766   2.078  1.00  0.00    -0.231 NA
HETATM    6  C   UNL     1      42.878 -16.488   2.471  1.00  0.00     0.167 A 
HETATM    7 CL   UNL     1      42.311 -15.485   1.205  1.00  0.00    -0.059 Cl
HETATM    8  C   UNL     1      43.018 -16.129   3.791  1.00  0.00     0.192 A 
HETATM    9  N   UNL     1      43.343 -17.012   4.778  1.00  0.00    -0.232 NA
HETATM   10  C   UNL     1      43.688 -19.977   2.663  1.00  0.00     0.034 A 
HETATM   11  C   UNL     1      44.064 -20.927   3.612  1.00  0.00     0.002 A 
ENDROOT
BRANCH   8  12
HETATM   12  S   UNL     1      42.744 -14.494   4.388  1.00  0.00     0.200 S 
HETATM   13  O   UNL     1      43.281 -14.386   5.734  1.00  0.00    -0.221 OA
HETATM   14  O   UNL     1      43.165 -13.532   3.391  1.00  0.00    -0.221 OA
BRANCH  12  15
HETATM   15  C   UNL     1      40.959 -14.360   4.553  1.00  0.00     0.118 C 
HETATM   16  C   UNL     1      40.367 -13.582   3.367  1.00  0.00     0.048 C 
HETATM   17  C   UNL     1      40.648 -12.086   3.434  1.00  0.00     0.233 C 
HETATM   18  N   UNL     1      40.175 -11.555   4.746  1.00  0.00    -0.075 N 
HETATM   19  H   UNL     1      39.147 -11.586   4.787  1.00  0.00     0.277 HD
HETATM   20  H   UNL     1      40.415 -10.553   4.787  1.00  0.00     0.277 HD
HETATM   21  C   UNL     1      40.756 -12.215   5.950  1.00  0.00     0.233 C 
HETATM   22  C   UNL     1      40.522 -13.721   5.879  1.00  0.00     0.048 C 
ENDBRANCH  12  15
ENDBRANCH   8  12
TORSDOF 2
ENDMDL
MODEL 6
REMARK VINA RESULT:      -7.3      2.628      6.355
REMARK  2 active torsions:
REMARK  status: ('A' for Active; 'I' for Inactive)
REMARK    1  A    between atoms: C_8  and  S_9 
REMARK    2  A    between atoms: S_9  and  C_10 
ROOT
HETATM    1  C   UNL     1      39.028 -14.323  -2.778  1.00  0.00     0.002 A 
HETATM    2  C   UNL     1      39.250 -14.873  -1.515  1.00  0.00     0.034 A 
HETATM    3  C   UNL     1      39.944 -14.172  -0.537  1.00  0.00     0.087 A 
HETATM    4  C   UNL     1      40.437 -12.876  -0.833  1.00  0.00     0.087 A 
HETATM    5  N   UNL     1      41.109 -12.154   0.088  1.00  0.00    -0.231 NA
HETATM    6  C   UNL     1      41.334 -12.732   1.289  1.00  0.00     0.167 A 
HETATM    7 CL   UNL     1      42.100 -11.678   2.398  1.00  0.00    -0.059 Cl
HETATM    8  C   UNL     1      40.858 -13.993   1.563  1.00  0.00     0.192 A 
HETATM    9  N   UNL     1      40.132 -14.730   0.675  1.00  0.00    -0.232 NA
HETATM   10  C   UNL     1      40.207 -12.339  -2.093  1.00  0.00     0.034 A 
HETATM   11  C   UNL     1      39.507 -13.052  -3.067  1.00  0.00     0.002 A 
ENDROOT
BRANCH   8  12
HETATM   12  S   UNL     1      41.075 -14.798   3.115  1.00  0.00     0.200 S 
HETATM   13  O   UNL     1      40.685 -13.888   4.179  1.00  0.00    -0.221 OA
HETATM   14  O   UNL     1      40.475 -16.115   3.071  1.00  0.00    -0.221 OA
BRANCH  12  15
HETATM   15  C   UNL     1      42.852 -15.016   3.274  1.00  0.00     0.118 C 
HETATM   16  C   UNL     1      43.398 -15.850   2.104  1.00  0.00     0.048 C 
HETATM   17  C   UNL     1      43.044 -17.327   2.208  1.00  0.00     0.233 C 
HETATM   18  N   UNL     1      43.499 -17.850   3.530  1.00  0.00    -0.075 N 
HETATM   19  H   UNL     1      44.528 -17.869   3.565  1.00  0.00     0.277 HD
HETATM   20  H   UNL     1      43.210 -18.838   3.596  1.00  0.00     0.277 HD
HETATM   21  C   UNL     1      42.959 -17.134   4.721  1.00  0.00     0.233 C 
HETATM   22  C   UNL     1      43.266 -15.644   4.612  1.00  0.00     0.048 C 
ENDBRANCH  12  15
ENDBRANCH   8  12
TORSDOF 2
ENDMDL
MODEL 7
REMARK VINA RESULT:      -7.1      2.685      3.537
REMARK  2 active torsions:
REMARK  status: ('A' for Active; 'I' for Inactive)
REMARK    1  A    between atoms: C_8  and  S_9 
REMARK    2  A    between atoms: S_9  and  C_10 
ROOT
HETATM    1  C   UNL     1      44.309 -19.269   4.457  1.00  0.00     0.002 A 
HETATM    2  C   UNL     1      43.908 -17.979   4.810  1.00  0.00     0.034 A 
HETATM    3  C   UNL     1      43.171 -17.190   3.937  1.00  0.00     0.087 A 
HETATM    4  C   UNL     1      42.822 -17.708   2.663  1.00  0.00     0.087 A 
HETATM    5  N   UNL     1      42.098 -16.981   1.785  1.00  0.00    -0.231 NA
HETATM    6  C   UNL     1      41.757 -15.725   2.149  1.00  0.00     0.167 A 
HETATM    7 CL   UNL     1      40.755 -14.952   0.996  1.00  0.00    -0.059 Cl
HETATM    8  C   UNL     1      42.106 -15.231   3.384  1.00  0.00     0.192 A 
HETATM    9  N   UNL     1      42.792 -15.954   4.314  1.00  0.00    -0.232 NA
HETATM   10  C   UNL     1      43.224 -18.993   2.325  1.00  0.00     0.034 A 
HETATM   11  C   UNL     1      43.965 -19.777   3.211  1.00  0.00     0.002 A 
ENDROOT
BRANCH   8  12
HETATM   12  S   UNL     1      41.665 -13.620   3.946  1.00  0.00     0.200 S 
HETATM   13  O   UNL     1      40.264 -13.380   3.642  1.00  0.00    -0.221 OA
HETATM   14  O   UNL     1      42.123 -13.435   5.307  1.00  0.00    -0.221 OA
BRANCH  12  15
HETATM   15  C   UNL     1      42.601 -12.498   2.900  1.00  0.00     0.118 C 
HETATM   16  C   UNL     1      43.518 -11.607   3.753  1.00  0.00     0.048 C 
HETATM   17  C   UNL     1      42.761 -10.526   4.513  1.00  0.00     0.233 C 
HETATM   18  N   UNL     1      41.943  -9.730   3.553  1.00  0.00    -0.075 N 
HETATM   19  H   UNL     1      42.558  -9.176   2.941  1.00  0.00     0.277 HD
HETATM   20  H   UNL     1      41.406  -9.035   4.094  1.00  0.00     0.277 HD
HETATM   21  C   UNL     1      40.977 -10.516   2.732  1.00  0.00     0.233 C 
HETATM   22  C   UNL     1      41.711 -11.632   1.996  1.00  0.00     0.048 C 
ENDBRANCH  12  15
ENDBRANCH   8  12
TORSDOF 2
ENDMDL
MODEL 8
REMARK VINA RESULT:      -7.1      2.637      6.385
REMARK  2 active torsions:
REMARK  status: ('A' for Active; 'I' for Inactive)
REMARK    1  A    between atoms: C_8  and  S_9 
REMARK    2  A    between atoms: S_9  and  C_10 
ROOT
HETATM    1  C   UNL     1      38.964 -14.644  -2.576  1.00  0.00     0.002 A 
HETATM    2  C   UNL     1      39.367 -14.988  -1.286  1.00  0.00     0.034 A 
HETATM    3  C   UNL     1      40.030 -14.078  -0.472  1.00  0.00     0.087 A 
HETATM    4  C   UNL     1      40.301 -12.776  -0.967  1.00  0.00     0.087 A 
HETATM    5  N   UNL     1      40.933 -11.856  -0.210  1.00  0.00    -0.231 NA
HETATM    6  C   UNL     1      41.338 -12.235   1.023  1.00  0.00     0.167 A 
HETATM    7 CL   UNL     1      42.030 -10.950   1.916  1.00  0.00    -0.059 Cl
HETATM    8  C   UNL     1      41.076 -13.502   1.490  1.00  0.00     0.192 A 
HETATM    9  N   UNL     1      40.397 -14.440   0.773  1.00  0.00    -0.232 NA
HETATM   10  C   UNL     1      39.892 -12.446  -2.253  1.00  0.00     0.034 A 
HETATM   11  C   UNL     1      39.227 -13.369  -3.061  1.00  0.00     0.002 A 
ENDROOT
BRANCH   8  12
HETATM   12  S   UNL     1      41.537 -14.059   3.097  1.00  0.00     0.200 S 
HETATM   13  O   UNL     1      42.977 -13.934   3.246  1.00  0.00    -0.221 OA
HETATM   14  O   UNL     1      40.679 -13.448   4.091  1.00  0.00    -0.221 OA
BRANCH  12  15
HETATM   15  C   UNL     1      41.188 -15.821   3.088  1.00  0.00     0.118 C 
HETATM   16  C   UNL     1      40.607 -16.262   4.442  1.00  0.00     0.048 C 
HETATM   17  C   UNL     1      41.648 -16.308   5.551  1.00  0.00     0.233 C 
HETATM   18  N   UNL     1      42.786 -17.173   5.123  1.00  0.00    -0.075 N 
HETATM   19  H   UNL     1      42.481 -18.155   5.068  1.00  0.00     0.277 HD
HETATM   20  H   UNL     1      43.497 -17.154   5.870  1.00  0.00     0.277 HD
HETATM   21  C   UNL     1      43.449 -16.771   3.849  1.00  0.00     0.233 C 
HETATM   22  C   UNL     1      42.413 -16.676   2.734  1.00  0.00     0.048 C 
ENDBRANCH  12  15
ENDBRANCH   8  12
TORSDOF 2
ENDMDL
MODEL 9
REMARK VINA RESULT:      -7.1     13.716     15.000
REMARK  2 active torsions:
REMARK  status: ('A' for Active; 'I' for Inactive)
REMARK    1  A    between atoms: C_8  and  S_9 
REMARK    2  A    between atoms: S_9  and  C_10 
ROOT
HETATM    1  C   UNL     1      45.125 -28.323  -4.104  1.00  0.00     0.002 A 
HETATM    2  C   UNL     1      45.566 -28.051  -2.808  1.00  0.00     0.034 A 
HETATM    3  C   UNL     1      45.243 -28.887  -1.747  1.00  0.00     0.087 A 
HETATM    4  C   UNL     1      44.447 -30.036  -1.988  1.00  0.00     0.087 A 
HETATM    5  N   UNL     1      44.116 -30.882  -0.991  1.00  0.00    -0.231 NA
HETATM    6  C   UNL     1      44.533 -30.568   0.256  1.00  0.00     0.167 A 
HETATM    7 CL   UNL     1      44.139 -31.770   1.408  1.00  0.00    -0.059 Cl
HETATM    8  C   UNL     1      45.298 -29.448   0.480  1.00  0.00     0.192 A 
HETATM    9  N   UNL     1      45.694 -28.599  -0.511  1.00  0.00    -0.232 NA
HETATM   10  C   UNL     1      44.016 -30.297  -3.283  1.00  0.00     0.034 A 
HETATM   11  C   UNL     1      44.348 -29.450  -4.341  1.00  0.00     0.002 A 
ENDROOT
BRANCH   8  12
HETATM   12  S   UNL     1      45.913 -28.992   2.068  1.00  0.00     0.200 S 
HETATM   13  O   UNL     1      46.780 -27.835   1.924  1.00  0.00    -0.221 OA
HETATM   14  O   UNL     1      44.820 -28.930   3.016  1.00  0.00    -0.221 OA
BRANCH  12  15
HETATM   15  C   UNL     1      46.978 -30.355   2.555  1.00  0.00     0.118 C 
HETATM   16  C   UNL     1      47.744 -30.007   3.841  1.00  0.00     0.048 C 
HETATM   17  C   UNL     1      48.863 -29.000   3.614  1.00  0.00     0.233 C 
HETATM   18  N   UNL     1      49.770 -29.505   2.543  1.00  0.00    -0.075 N 
HETATM   19  H   UNL     1      50.284 -30.332   2.877  1.00  0.00     0.277 HD
HETATM   20  H   UNL     1      50.493 -28.789   2.376  1.00  0.00     0.277 HD
HETATM   21  C   UNL     1      49.112 -29.804   1.238  1.00  0.00     0.233 C 
HETATM   22  C   UNL     1      47.958 -30.779   1.452  1.00  0.00     0.048 C 
ENDBRANCH  12  15
ENDBRANCH   8  12
TORSDOF 2
ENDMDL
MODEL 10
REMARK VINA RESULT:      -6.9      2.674      3.644
REMARK  2 active torsions:
REMARK  status: ('A' for Active; 'I' for Inactive)
REMARK    1  A    between atoms: C_8  and  S_9 
REMARK    2  A    between atoms: S_9  and  C_10 
ROOT
HETATM    1  C   UNL     1      44.336 -18.519   4.280  1.00  0.00     0.002 A 
HETATM    2  C   UNL     1      44.000 -17.208   4.618  1.00  0.00     0.034 A 
HETATM    3  C   UNL     1      43.160 -16.450   3.812  1.00  0.00     0.087 A 
HETATM    4  C   UNL     1      42.638 -17.022   2.624  1.00  0.00     0.087 A 
HETATM    5  N   UNL     1      41.810 -16.327   1.816  1.00  0.00    -0.231 NA
HETATM    6  C   UNL     1      41.534 -15.049   2.158  1.00  0.00     0.167 A 
HETATM    7 CL   UNL     1      40.395 -14.316   1.112  1.00  0.00    -0.059 Cl
HETATM    8  C   UNL     1      42.051 -14.501   3.309  1.00  0.00     0.192 A 
HETATM    9  N   UNL     1      42.849 -15.190   4.174  1.00  0.00    -0.232 NA
HETATM   10  C   UNL     1      42.978 -18.330   2.301  1.00  0.00     0.034 A 
HETATM   11  C   UNL     1      43.822 -19.082   3.119  1.00  0.00     0.002 A 
ENDROOT
BRANCH   8  12
HETATM   12  S   UNL     1      41.707 -12.858   3.842  1.00  0.00     0.200 S 
HETATM   13  O   UNL     1      42.350 -12.634   5.126  1.00  0.00    -0.221 OA
HETATM   14  O   UNL     1      41.967 -11.929   2.763  1.00  0.00    -0.221 OA
BRANCH  12  15
HETATM   15  C   UNL     1      39.939 -12.840   4.161  1.00  0.00     0.118 C 
HETATM   16  C   UNL     1      39.272 -11.666   3.427  1.00  0.00     0.048 C 
HETATM   17  C   UNL     1      39.565 -10.317   4.071  1.00  0.00     0.233 C 
HETATM   18  N   UNL     1      39.184 -10.366   5.512  1.00  0.00    -0.075 N 
HETATM   19  H   UNL     1      38.161 -10.434   5.604  1.00  0.00     0.277 HD
HETATM   20  H   UNL     1      39.432  -9.459   5.937  1.00  0.00     0.277 HD
HETATM   21  C   UNL     1      39.842 -11.440   6.311  1.00  0.00     0.233 C 
HETATM   22  C   UNL     1      39.596 -12.796   5.657  1.00  0.00     0.048 C 
ENDBRANCH  12  15
ENDBRANCH   8  12
TORSDOF 2
ENDMDL
