MODEL 1
REMARK VINA RESULT:      -8.0      0.000      0.000
REMARK  6 active torsions:
REMARK  status: ('A' for Active; 'I' for Inactive)
REMARK    1  A    between atoms: C_5  and  N_6 
REMARK    2  A    between atoms: N_6  and  C_7 
REMARK    3  A    between atoms: C_7  and  C_8 
REMARK    4  A    between atoms: N_10  and  C_12 
REMARK    5  A    between atoms: C_12  and  C_13 
REMARK    6  A    between atoms: C_14  and  O_15 
ROOT
HETATM    1  C   UNL     1      43.021 -14.464   5.357  1.00  0.00     0.026 C 
HETATM    2  C   UNL     1      43.505 -13.691   6.579  1.00  0.00     0.241 C 
HETATM    3  N   UNL     1      42.539 -12.536   6.673  1.00  0.00    -0.067 N 
HETATM    4  H   UNL     1      42.283 -12.387   7.667  1.00  0.00     0.280 HD
HETATM    5  C   UNL     1      41.284 -12.912   5.913  1.00  0.00     0.235 C 
HETATM    6  C   UNL     1      41.507 -14.365   5.514  1.00  0.00     0.035 C 
ENDROOT
BRANCH   1   7
HETATM    7  C   UNL     1      43.526 -15.908   5.270  1.00  0.00     0.100 C 
BRANCH   7   8
HETATM    8  N   UNL     1      43.334 -16.430   3.923  1.00  0.00    -0.279 NA
HETATM    9  H   UNL     1      42.493 -16.072   3.459  1.00  0.00     0.129 HD
BRANCH   8  10
HETATM   10  C   UNL     1      43.449 -17.795   3.631  1.00  0.00     0.080 A 
HETATM   11  N   UNL     1      43.886 -18.704   4.521  1.00  0.00    -0.351 N 
HETATM   12  C   UNL     1      43.989 -20.022   4.253  1.00  0.00     0.006 A 
HETATM   13  H   UNL     1      44.134 -18.391   5.452  1.00  0.00     0.167 HD
HETATM   14  C   UNL     1      44.432 -20.951   5.338  1.00  0.00     0.068 C 
HETATM   15  C   UNL     1      43.666 -20.488   2.980  1.00  0.00     0.024 A 
HETATM   16  C   UNL     1      43.241 -19.587   2.015  1.00  0.00     0.005 A 
HETATM   17  C   UNL     1      43.131 -18.239   2.342  1.00  0.00     0.042 A 
ENDBRANCH   8  10
ENDBRANCH   7   8
ENDBRANCH   1   7
BRANCH   3  18
HETATM   18  C   UNL     1      43.119 -11.199   6.273  1.00  0.00     0.276 C 
BRANCH  18  19
HETATM   19  C   UNL     1      44.014 -10.599   7.320  1.00  0.00     0.002 A 
HETATM   20  C   UNL     1      43.487 -10.111   8.524  1.00  0.00     0.091 A 
HETATM   21  C   UNL     1      44.322  -9.588   9.516  1.00  0.00     0.044 A 
HETATM   22 BR   UNL     1      43.602  -8.934  11.138  1.00  0.00    -0.048 Br
HETATM   23  C   UNL     1      45.699  -9.543   9.312  1.00  0.00     0.022 A 
HETATM   24  C   UNL     1      46.238 -10.022   8.118  1.00  0.00     0.002 A 
HETATM   25  C   UNL     1      45.403 -10.552   7.131  1.00  0.00     0.012 A 
BRANCH  20  26
HETATM   26  O   UNL     1      42.121 -10.146   8.682  1.00  0.00    -0.359 OA
HETATM   27  H   UNL     1      41.796  -9.254   8.425  1.00  0.00     0.218 HD
ENDBRANCH  20  26
ENDBRANCH  18  19
ENDBRANCH   3  18
TORSDOF 6
ENDMDL
MODEL 2
REMARK VINA RESULT:      -7.8      1.566      2.141
REMARK  6 active torsions:
REMARK  status: ('A' for Active; 'I' for Inactive)
REMARK    1  A    between atoms: C_5  and  N_6 
REMARK    2  A    between atoms: N_6  and  C_7 
REMARK    3  A    between atoms: C_7  and  C_8 
REMARK    4  A    between atoms: N_10  and  C_12 
REMARK    5  A    between atoms: C_12  and  C_13 
REMARK    6  A    between atoms: C_14  and  O_15 
ROOT
HETATM    1  C   UNL     1      43.114 -13.634   3.650  1.00  0.00     0.026 C 
HETATM    2  C   UNL     1      42.323 -13.387   4.930  1.00  0.00     0.241 C 
HETATM    3  N   UNL     1      42.961 -12.147   5.507  1.00  0.00    -0.067 N 
HETATM    4  H   UNL     1      42.218 -11.520   5.869  1.00  0.00     0.280 HD
HETATM    5  C   UNL     1      43.684 -11.428   4.387  1.00  0.00     0.235 C 
HETATM    6  C   UNL     1      43.313 -12.211   3.135  1.00  0.00     0.035 C 
ENDROOT
BRANCH   1   7
HETATM    7  C   UNL     1      42.425 -14.552   2.637  1.00  0.00     0.100 C 
BRANCH   7   8
HETATM    8  N   UNL     1      41.922 -15.749   3.299  1.00  0.00    -0.279 NA
HETATM    9  H   UNL     1      41.412 -15.556   4.168  1.00  0.00     0.129 HD
BRANCH   8  10
HETATM   10  C   UNL     1      42.726 -16.878   3.506  1.00  0.00     0.080 A 
HETATM   11  N   UNL     1      42.741 -17.934   2.674  1.00  0.00    -0.351 N 
HETATM   12  C   UNL     1      43.519 -19.020   2.858  1.00  0.00     0.006 A 
HETATM   13  H   UNL     1      42.151 -17.912   1.850  1.00  0.00     0.167 HD
HETATM   14  C   UNL     1      43.497 -20.112   1.837  1.00  0.00     0.068 C 
HETATM   15  C   UNL     1      44.335 -19.092   3.986  1.00  0.00     0.024 A 
HETATM   16  C   UNL     1      44.334 -18.042   4.893  1.00  0.00     0.005 A 
HETATM   17  C   UNL     1      43.529 -16.934   4.652  1.00  0.00     0.042 A 
ENDBRANCH   8  10
ENDBRANCH   7   8
ENDBRANCH   1   7
BRANCH   3  18
HETATM   18  C   UNL     1      43.816 -12.393   6.729  1.00  0.00     0.276 C 
BRANCH  18  19
HETATM   19  C   UNL     1      44.423 -11.140   7.295  1.00  0.00     0.002 A 
HETATM   20  C   UNL     1      43.618 -10.139   7.854  1.00  0.00     0.091 A 
HETATM   21  C   UNL     1      44.183  -8.990   8.417  1.00  0.00     0.044 A 
HETATM   22 BR   UNL     1      43.088  -7.646   9.171  1.00  0.00    -0.048 Br
HETATM   23  C   UNL     1      45.567  -8.828   8.421  1.00  0.00     0.022 A 
HETATM   24  C   UNL     1      46.381  -9.815   7.866  1.00  0.00     0.002 A 
HETATM   25  C   UNL     1      45.815 -10.967   7.311  1.00  0.00     0.012 A 
BRANCH  20  26
HETATM   26  O   UNL     1      42.255 -10.319   7.810  1.00  0.00    -0.359 OA
HETATM   27  H   UNL     1      42.106 -11.286   7.907  1.00  0.00     0.218 HD
ENDBRANCH  20  26
ENDBRANCH  18  19
ENDBRANCH   3  18
TORSDOF 6
ENDMDL
MODEL 3
REMARK VINA RESULT:      -7.7      3.949      8.610
REMARK  6 active torsions:
REMARK  status: ('A' for Active; 'I' for Inactive)
REMARK    1  A    between atoms: C_5  and  N_6 
REMARK    2  A    between atoms: N_6  and  C_7 
REMARK    3  A    between atoms: C_7  and  C_8 
REMARK    4  A    between atoms: N_10  and  C_12 
REMARK    5  A    between atoms: C_12  and  C_13 
REMARK    6  A    between atoms: C_14  and  O_15 
ROOT
HETATM    1  C   UNL     1      41.714 -13.772   5.848  1.00  0.00     0.026 C 
HETATM    2  C   UNL     1      42.200 -14.482   4.589  1.00  0.00     0.241 C 
HETATM    3  N   UNL     1      42.211 -15.938   4.985  1.00  0.00    -0.067 N 
HETATM    4  H   UNL     1      41.835 -16.506   4.203  1.00  0.00     0.280 HD
HETATM    5  C   UNL     1      41.291 -16.106   6.177  1.00  0.00     0.235 C 
HETATM    6  C   UNL     1      40.645 -14.738   6.350  1.00  0.00     0.035 C 
ENDROOT
BRANCH   1   7
HETATM    7  C   UNL     1      41.187 -12.352   5.621  1.00  0.00     0.100 C 
BRANCH   7   8
HETATM    8  N   UNL     1      42.291 -11.440   5.347  1.00  0.00    -0.279 NA
HETATM    9  H   UNL     1      42.683 -11.540   4.405  1.00  0.00     0.129 HD
BRANCH   8  10
HETATM   10  C   UNL     1      43.351 -11.265   6.246  1.00  0.00     0.080 A 
HETATM   11  N   UNL     1      43.175 -10.932   7.537  1.00  0.00    -0.351 N 
HETATM   12  C   UNL     1      44.188 -10.772   8.412  1.00  0.00     0.006 A 
HETATM   13  H   UNL     1      42.230 -10.812   7.883  1.00  0.00     0.167 HD
HETATM   14  C   UNL     1      43.873 -10.458   9.840  1.00  0.00     0.068 C 
HETATM   15  C   UNL     1      45.502 -10.919   7.971  1.00  0.00     0.024 A 
HETATM   16  C   UNL     1      45.741 -11.231   6.640  1.00  0.00     0.005 A 
HETATM   17  C   UNL     1      44.664 -11.405   5.778  1.00  0.00     0.042 A 
ENDBRANCH   8  10
ENDBRANCH   7   8
ENDBRANCH   1   7
BRANCH   3  18
HETATM   18  C   UNL     1      43.590 -16.521   5.190  1.00  0.00     0.276 C 
BRANCH  18  19
HETATM   19  C   UNL     1      43.660 -17.998   4.921  1.00  0.00     0.002 A 
HETATM   20  C   UNL     1      43.667 -18.491   3.608  1.00  0.00     0.091 A 
HETATM   21  C   UNL     1      43.771 -19.862   3.355  1.00  0.00     0.044 A 
HETATM   22 BR   UNL     1      43.782 -20.518   1.581  1.00  0.00    -0.048 Br
HETATM   23  C   UNL     1      43.865 -20.759   4.417  1.00  0.00     0.022 A 
HETATM   24  C   UNL     1      43.857 -20.284   5.728  1.00  0.00     0.002 A 
HETATM   25  C   UNL     1      43.762 -18.912   5.980  1.00  0.00     0.012 A 
BRANCH  20  26
HETATM   26  O   UNL     1      43.546 -17.580   2.585  1.00  0.00    -0.359 OA
HETATM   27  H   UNL     1      44.406 -17.593   2.108  1.00  0.00     0.218 HD
ENDBRANCH  20  26
ENDBRANCH  18  19
ENDBRANCH   3  18
TORSDOF 6
ENDMDL
MODEL 4
REMARK VINA RESULT:      -7.6      3.789      8.441
REMARK  6 active torsions:
REMARK  status: ('A' for Active; 'I' for Inactive)
REMARK    1  A    between atoms: C_5  and  N_6 
REMARK    2  A    between atoms: N_6  and  C_7 
REMARK    3  A    between atoms: C_7  and  C_8 
REMARK    4  A    between atoms: N_10  and  C_12 
REMARK    5  A    between atoms: C_12  and  C_13 
REMARK    6  A    between atoms: C_14  and  O_15 
ROOT
HETATM    1  C   UNL     1      42.914 -14.157   6.006  1.00  0.00     0.026 C 
HETATM    2  C   UNL     1      41.392 -14.143   5.910  1.00  0.00     0.241 C 
HETATM    3  N   UNL     1      40.995 -15.525   6.369  1.00  0.00    -0.067 N 
HETATM    4  H   UNL     1      40.165 -15.452   6.986  1.00  0.00     0.280 HD
HETATM    5  C   UNL     1      42.140 -16.095   7.181  1.00  0.00     0.235 C 
HETATM    6  C   UNL     1      43.131 -14.945   7.295  1.00  0.00     0.035 C 
ENDROOT
BRANCH   1   7
HETATM    7  C   UNL     1      43.569 -12.773   6.027  1.00  0.00     0.100 C 
BRANCH   7   8
HETATM    8  N   UNL     1      43.135 -12.026   7.201  1.00  0.00    -0.279 NA
HETATM    9  H   UNL     1      42.230 -11.559   7.081  1.00  0.00     0.129 HD
BRANCH   8  10
HETATM   10  C   UNL     1      43.990 -11.153   7.885  1.00  0.00     0.080 A 
HETATM   11  N   UNL     1      43.681 -10.594   9.068  1.00  0.00    -0.351 N 
HETATM   12  C   UNL     1      44.502  -9.760   9.739  1.00  0.00     0.006 A 
HETATM   13  H   UNL     1      42.791 -10.822   9.495  1.00  0.00     0.167 HD
HETATM   14  C   UNL     1      44.078  -9.243  11.076  1.00  0.00     0.068 C 
HETATM   15  C   UNL     1      45.730  -9.414   9.178  1.00  0.00     0.024 A 
HETATM   16  C   UNL     1      46.085  -9.938   7.943  1.00  0.00     0.005 A 
HETATM   17  C   UNL     1      45.214 -10.809   7.297  1.00  0.00     0.042 A 
ENDBRANCH   8  10
ENDBRANCH   7   8
ENDBRANCH   1   7
BRANCH   3  18
HETATM   18  C   UNL     1      40.514 -16.438   5.265  1.00  0.00     0.276 C 
BRANCH  18  19
HETATM   19  C   UNL     1      41.251 -16.248   3.969  1.00  0.00     0.002 A 
HETATM   20  C   UNL     1      40.687 -15.504   2.922  1.00  0.00     0.091 A 
HETATM   21  C   UNL     1      41.387 -15.293   1.731  1.00  0.00     0.044 A 
HETATM   22 BR   UNL     1      40.620 -14.287   0.325  1.00  0.00    -0.048 Br
HETATM   23  C   UNL     1      42.663 -15.830   1.571  1.00  0.00     0.022 A 
HETATM   24  C   UNL     1      43.236 -16.574   2.602  1.00  0.00     0.002 A 
HETATM   25  C   UNL     1      42.538 -16.777   3.796  1.00  0.00     0.012 A 
BRANCH  20  26
HETATM   26  O   UNL     1      39.416 -15.012   3.104  1.00  0.00    -0.359 OA
HETATM   27  H   UNL     1      38.918 -15.715   3.577  1.00  0.00     0.218 HD
ENDBRANCH  20  26
ENDBRANCH  18  19
ENDBRANCH   3  18
TORSDOF 6
ENDMDL
MODEL 5
REMARK VINA RESULT:      -7.4      3.660      8.892
REMARK  6 active torsions:
REMARK  status: ('A' for Active; 'I' for Inactive)
REMARK    1  A    between atoms: C_5  and  N_6 
REMARK    2  A    between atoms: N_6  and  C_7 
REMARK    3  A    between atoms: C_7  and  C_8 
REMARK    4  A    between atoms: N_10  and  C_12 
REMARK    5  A    between atoms: C_12  and  C_13 
REMARK    6  A    between atoms: C_14  and  O_15 
ROOT
HETATM    1  C   UNL     1      42.200 -12.195   6.183  1.00  0.00     0.026 C 
HETATM    2  C   UNL     1      43.167 -12.957   5.283  1.00  0.00     0.241 C 
HETATM    3  N   UNL     1      42.424 -14.230   4.962  1.00  0.00    -0.067 N 
HETATM    4  H   UNL     1      42.558 -14.459   3.960  1.00  0.00     0.280 HD
HETATM    5  C   UNL     1      40.948 -13.984   5.199  1.00  0.00     0.235 C 
HETATM    6  C   UNL     1      40.861 -12.498   5.516  1.00  0.00     0.035 C 
ENDROOT
BRANCH   1   7
HETATM    7  C   UNL     1      42.486 -10.696   6.309  1.00  0.00     0.100 C 
BRANCH   7   8
HETATM    8  N   UNL     1      43.775 -10.480   6.956  1.00  0.00    -0.279 NA
HETATM    9  H   UNL     1      44.482 -11.180   6.707  1.00  0.00     0.129 HD
BRANCH   8  10
HETATM   10  C   UNL     1      43.883 -10.216   8.327  1.00  0.00     0.080 A 
HETATM   11  N   UNL     1      42.821  -9.989   9.120  1.00  0.00    -0.351 N 
HETATM   12  C   UNL     1      42.915  -9.744  10.443  1.00  0.00     0.006 A 
HETATM   13  H   UNL     1      41.895 -10.021   8.711  1.00  0.00     0.167 HD
HETATM   14  C   UNL     1      41.662  -9.563  11.239  1.00  0.00     0.068 C 
HETATM   15  C   UNL     1      44.173  -9.681  11.038  1.00  0.00     0.024 A 
HETATM   16  C   UNL     1      45.305  -9.876  10.259  1.00  0.00     0.005 A 
HETATM   17  C   UNL     1      45.159 -10.144   8.902  1.00  0.00     0.042 A 
ENDBRANCH   8  10
ENDBRANCH   7   8
ENDBRANCH   1   7
BRANCH   3  18
HETATM   18  C   UNL     1      42.959 -15.460   5.660  1.00  0.00     0.276 C 
BRANCH  18  19
HETATM   19  C   UNL     1      43.278 -16.588   4.720  1.00  0.00     0.002 A 
HETATM   20  C   UNL     1      43.564 -17.872   5.206  1.00  0.00     0.091 A 
HETATM   21  C   UNL     1      43.823 -18.932   4.332  1.00  0.00     0.044 A 
HETATM   22 BR   UNL     1      44.206 -20.660   4.997  1.00  0.00    -0.048 Br
HETATM   23  C   UNL     1      43.803 -18.717   2.956  1.00  0.00     0.022 A 
HETATM   24  C   UNL     1      43.522 -17.445   2.457  1.00  0.00     0.002 A 
HETATM   25  C   UNL     1      43.255 -16.388   3.332  1.00  0.00     0.012 A 
BRANCH  20  26
HETATM   26  O   UNL     1      43.602 -18.042   6.570  1.00  0.00    -0.359 OA
HETATM   27  H   UNL     1      43.193 -18.920   6.745  1.00  0.00     0.218 HD
ENDBRANCH  20  26
ENDBRANCH  18  19
ENDBRANCH   3  18
TORSDOF 6
ENDMDL
MODEL 6
REMARK VINA RESULT:      -7.3      5.766      8.385
REMARK  6 active torsions:
REMARK  status: ('A' for Active; 'I' for Inactive)
REMARK    1  A    between atoms: C_5  and  N_6 
REMARK    2  A    between atoms: N_6  and  C_7 
REMARK    3  A    between atoms: C_7  and  C_8 
REMARK    4  A    between atoms: N_10  and  C_12 
REMARK    5  A    between atoms: C_12  and  C_13 
REMARK    6  A    between atoms: C_14  and  O_15 
ROOT
HETATM    1  C   UNL     1      40.578 -13.415   3.092  1.00  0.00     0.026 C 
HETATM    2  C   UNL     1      40.794 -14.924   3.037  1.00  0.00     0.241 C 
HETATM    3  N   UNL     1      41.543 -15.221   4.313  1.00  0.00    -0.067 N 
HETATM    4  H   UNL     1      41.165 -16.090   4.735  1.00  0.00     0.280 HD
HETATM    5  C   UNL     1      41.296 -14.080   5.278  1.00  0.00     0.235 C 
HETATM    6  C   UNL     1      40.269 -13.205   4.572  1.00  0.00     0.035 C 
ENDROOT
BRANCH   1   7
HETATM    7  C   UNL     1      39.479 -12.891   2.164  1.00  0.00     0.100 C 
BRANCH   7   8
HETATM    8  N   UNL     1      39.295 -13.795   1.036  1.00  0.00    -0.279 NA
HETATM    9  H   UNL     1      39.577 -14.761   1.232  1.00  0.00     0.129 HD
BRANCH   8  10
HETATM   10  C   UNL     1      39.725 -13.467  -0.256  1.00  0.00     0.080 A 
HETATM   11  N   UNL     1      40.292 -12.288  -0.567  1.00  0.00    -0.351 N 
HETATM   12  C   UNL     1      40.719 -11.967  -1.806  1.00  0.00     0.006 A 
HETATM   13  H   UNL     1      40.426 -11.605   0.169  1.00  0.00     0.167 HD
HETATM   14  C   UNL     1      41.388 -10.647  -2.025  1.00  0.00     0.068 C 
HETATM   15  C   UNL     1      40.541 -12.877  -2.846  1.00  0.00     0.024 A 
HETATM   16  C   UNL     1      39.933 -14.096  -2.586  1.00  0.00     0.005 A 
HETATM   17  C   UNL     1      39.525 -14.391  -1.290  1.00  0.00     0.042 A 
ENDBRANCH   8  10
ENDBRANCH   7   8
ENDBRANCH   1   7
BRANCH   3  18
HETATM   18  C   UNL     1      43.006 -15.552   4.119  1.00  0.00     0.276 C 
BRANCH  18  19
HETATM   19  C   UNL     1      43.315 -17.012   4.293  1.00  0.00     0.002 A 
HETATM   20  C   UNL     1      43.368 -17.873   3.188  1.00  0.00     0.091 A 
HETATM   21  C   UNL     1      43.694 -19.224   3.343  1.00  0.00     0.044 A 
HETATM   22 BR   UNL     1      43.765 -20.378   1.846  1.00  0.00    -0.048 Br
HETATM   23  C   UNL     1      43.968 -19.731   4.611  1.00  0.00     0.022 A 
HETATM   24  C   UNL     1      43.917 -18.888   5.720  1.00  0.00     0.002 A 
HETATM   25  C   UNL     1      43.599 -17.535   5.563  1.00  0.00     0.012 A 
BRANCH  20  26
HETATM   26  O   UNL     1      43.066 -17.346   1.955  1.00  0.00    -0.359 OA
HETATM   27  H   UNL     1      42.680 -18.084   1.432  1.00  0.00     0.218 HD
ENDBRANCH  20  26
ENDBRANCH  18  19
ENDBRANCH   3  18
TORSDOF 6
ENDMDL
MODEL 7
REMARK VINA RESULT:      -7.3      3.963      9.359
REMARK  6 active torsions:
REMARK  status: ('A' for Active; 'I' for Inactive)
REMARK    1  A    between atoms: C_5  and  N_6 
REMARK    2  A    between atoms: N_6  and  C_7 
REMARK    3  A    between atoms: C_7  and  C_8 
REMARK    4  A    between atoms: N_10  and  C_12 
REMARK    5  A    between atoms: C_12  and  C_13 
REMARK    6  A    between atoms: C_14  and  O_15 
ROOT
HETATM    1  C   UNL     1      43.651 -11.247   7.410  1.00  0.00     0.026 C 
HETATM    2  C   UNL     1      43.623 -12.766   7.272  1.00  0.00     0.241 C 
HETATM    3  N   UNL     1      43.818 -12.991   5.793  1.00  0.00    -0.067 N 
HETATM    4  H   UNL     1      44.471 -13.784   5.653  1.00  0.00     0.280 HD
HETATM    5  C   UNL     1      44.454 -11.746   5.209  1.00  0.00     0.235 C 
HETATM    6  C   UNL     1      44.750 -10.872   6.420  1.00  0.00     0.035 C 
ENDROOT
BRANCH   1   7
HETATM    7  C   UNL     1      43.916 -10.737   8.829  1.00  0.00     0.100 C 
BRANCH   7   8
HETATM    8  N   UNL     1      42.828  -9.872   9.267  1.00  0.00    -0.279 NA
HETATM    9  H   UNL     1      42.783  -8.980   8.763  1.00  0.00     0.129 HD
BRANCH   8  10
HETATM   10  C   UNL     1      42.575  -9.623  10.622  1.00  0.00     0.080 A 
HETATM   11  N   UNL     1      41.478 -10.068  11.260  1.00  0.00    -0.351 N 
HETATM   12  C   UNL     1      41.231  -9.843  12.567  1.00  0.00     0.006 A 
HETATM   13  H   UNL     1      40.805 -10.620  10.742  1.00  0.00     0.167 HD
HETATM   14  C   UNL     1      40.006 -10.436  13.188  1.00  0.00     0.068 C 
HETATM   15  C   UNL     1      42.128  -9.079  13.310  1.00  0.00     0.024 A 
HETATM   16  C   UNL     1      43.261  -8.568  12.692  1.00  0.00     0.005 A 
HETATM   17  C   UNL     1      43.484  -8.842  11.346  1.00  0.00     0.042 A 
ENDBRANCH   8  10
ENDBRANCH   7   8
ENDBRANCH   1   7
BRANCH   3  18
HETATM   18  C   UNL     1      42.577 -13.445   5.059  1.00  0.00     0.276 C 
BRANCH  18  19
HETATM   19  C   UNL     1      42.853 -14.474   3.999  1.00  0.00     0.002 A 
HETATM   20  C   UNL     1      43.226 -15.781   4.345  1.00  0.00     0.091 A 
HETATM   21  C   UNL     1      43.445 -16.751   3.362  1.00  0.00     0.044 A 
HETATM   22 BR   UNL     1      43.946 -18.511   3.837  1.00  0.00    -0.048 Br
HETATM   23  C   UNL     1      43.297 -16.421   2.016  1.00  0.00     0.022 A 
HETATM   24  C   UNL     1      42.928 -15.125   1.657  1.00  0.00     0.002 A 
HETATM   25  C   UNL     1      42.701 -14.158   2.641  1.00  0.00     0.012 A 
BRANCH  20  26
HETATM   26  O   UNL     1      43.389 -16.064   5.680  1.00  0.00    -0.359 OA
HETATM   27  H   UNL     1      43.056 -15.277   6.167  1.00  0.00     0.218 HD
ENDBRANCH  20  26
ENDBRANCH  18  19
ENDBRANCH   3  18
TORSDOF 6
ENDMDL
MODEL 8
REMARK VINA RESULT:      -7.2      4.006      8.868
REMARK  6 active torsions:
REMARK  status: ('A' for Active; 'I' for Inactive)
REMARK    1  A    between atoms: C_5  and  N_6 
REMARK    2  A    between atoms: N_6  and  C_7 
REMARK    3  A    between atoms: C_7  and  C_8 
REMARK    4  A    between atoms: N_10  and  C_12 
REMARK    5  A    between atoms: C_12  and  C_13 
REMARK    6  A    between atoms: C_14  and  O_15 
ROOT
HETATM    1  C   UNL     1      42.508 -11.881   5.012  1.00  0.00     0.026 C 
HETATM    2  C   UNL     1      43.330 -13.166   5.046  1.00  0.00     0.241 C 
HETATM    3  N   UNL     1      43.066 -13.791   3.699  1.00  0.00    -0.067 N 
HETATM    4  H   UNL     1      43.954 -14.173   3.321  1.00  0.00     0.280 HD
HETATM    5  C   UNL     1      42.583 -12.703   2.763  1.00  0.00     0.235 C 
HETATM    6  C   UNL     1      42.723 -11.421   3.573  1.00  0.00     0.035 C 
ENDROOT
BRANCH   1   7
HETATM    7  C   UNL     1      42.915 -10.831   6.049  1.00  0.00     0.100 C 
BRANCH   7   8
HETATM    8  N   UNL     1      43.219 -11.471   7.324  1.00  0.00    -0.279 NA
HETATM    9  H   UNL     1      42.442 -12.023   7.703  1.00  0.00     0.129 HD
BRANCH   8  10
HETATM   10  C   UNL     1      43.818 -10.774   8.381  1.00  0.00     0.080 A 
HETATM   11  N   UNL     1      43.285 -10.705   9.613  1.00  0.00    -0.351 N 
HETATM   12  C   UNL     1      43.859 -10.046  10.641  1.00  0.00     0.006 A 
HETATM   13  H   UNL     1      42.413 -11.190   9.793  1.00  0.00     0.167 HD
HETATM   14  C   UNL     1      43.205 -10.085  11.985  1.00  0.00     0.068 C 
HETATM   15  C   UNL     1      45.053  -9.359  10.429  1.00  0.00     0.024 A 
HETATM   16  C   UNL     1      45.629  -9.371   9.167  1.00  0.00     0.005 A 
HETATM   17  C   UNL     1      45.011 -10.080   8.143  1.00  0.00     0.042 A 
ENDBRANCH   8  10
ENDBRANCH   7   8
ENDBRANCH   1   7
BRANCH   3  18
HETATM   18  C   UNL     1      42.169 -15.008   3.737  1.00  0.00     0.276 C 
BRANCH  18  19
HETATM   19  C   UNL     1      42.913 -16.291   3.976  1.00  0.00     0.002 A 
HETATM   20  C   UNL     1      42.799 -17.366   3.084  1.00  0.00     0.091 A 
HETATM   21  C   UNL     1      43.521 -18.547   3.283  1.00  0.00     0.044 A 
HETATM   22 BR   UNL     1      43.363 -19.992   2.073  1.00  0.00    -0.048 Br
HETATM   23  C   UNL     1      44.365 -18.667   4.385  1.00  0.00     0.022 A 
HETATM   24  C   UNL     1      44.488 -17.607   5.283  1.00  0.00     0.002 A 
HETATM   25  C   UNL     1      43.772 -16.424   5.078  1.00  0.00     0.012 A 
BRANCH  20  26
HETATM   26  O   UNL     1      41.937 -17.224   2.023  1.00  0.00    -0.359 OA
HETATM   27  H   UNL     1      41.671 -18.136   1.766  1.00  0.00     0.218 HD
ENDBRANCH  20  26
ENDBRANCH  18  19
ENDBRANCH   3  18
TORSDOF 6
ENDMDL
MODEL 9
REMARK VINA RESULT:      -7.2      1.904      2.845
REMARK  6 active torsions:
REMARK  status: ('A' for Active; 'I' for Inactive)
REMARK    1  A    between atoms: C_5  and  N_6 
REMARK    2  A    between atoms: N_6  and  C_7 
REMARK    3  A    between atoms: C_7  and  C_8 
REMARK    4  A    between atoms: N_10  and  C_12 
REMARK    5  A    between atoms: C_12  and  C_13 
REMARK    6  A    between atoms: C_14  and  O_15 
ROOT
HETATM    1  C   UNL     1      43.445 -11.584   4.896  1.00  0.00     0.026 C 
HETATM    2  C   UNL     1      43.959 -12.301   6.140  1.00  0.00     0.241 C 
HETATM    3  N   UNL     1      43.469 -11.437   7.276  1.00  0.00    -0.067 N 
HETATM    4  H   UNL     1      43.119 -12.045   8.039  1.00  0.00     0.280 HD
HETATM    5  C   UNL     1      42.310 -10.605   6.765  1.00  0.00     0.235 C 
HETATM    6  C   UNL     1      42.063 -11.129   5.357  1.00  0.00     0.035 C 
ENDROOT
BRANCH   1   7
HETATM    7  C   UNL     1      43.407 -12.444   3.630  1.00  0.00     0.100 C 
BRANCH   7   8
HETATM    8  N   UNL     1      42.484 -13.558   3.803  1.00  0.00    -0.279 NA
HETATM    9  H   UNL     1      42.052 -13.595   4.732  1.00  0.00     0.129 HD
BRANCH   8  10
HETATM   10  C   UNL     1      42.816 -14.865   3.422  1.00  0.00     0.080 A 
HETATM   11  N   UNL     1      43.180 -15.817   4.298  1.00  0.00    -0.351 N 
HETATM   12  C   UNL     1      43.492 -17.081   3.943  1.00  0.00     0.006 A 
HETATM   13  H   UNL     1      43.206 -15.586   5.284  1.00  0.00     0.167 HD
HETATM   14  C   UNL     1      43.827 -18.074   5.009  1.00  0.00     0.068 C 
HETATM   15  C   UNL     1      43.478 -17.434   2.594  1.00  0.00     0.024 A 
HETATM   16  C   UNL     1      43.140 -16.479   1.646  1.00  0.00     0.005 A 
HETATM   17  C   UNL     1      42.808 -15.194   2.061  1.00  0.00     0.042 A 
ENDBRANCH   8  10
ENDBRANCH   7   8
ENDBRANCH   1   7
BRANCH   3  18
HETATM   18  C   UNL     1      44.548 -10.629   7.960  1.00  0.00     0.276 C 
BRANCH  18  19
HETATM   19  C   UNL     1      44.013  -9.654   8.971  1.00  0.00     0.002 A 
HETATM   20  C   UNL     1      43.559 -10.091  10.222  1.00  0.00     0.091 A 
HETATM   21  C   UNL     1      43.098  -9.182  11.179  1.00  0.00     0.044 A 
HETATM   22 BR   UNL     1      42.488  -9.781  12.866  1.00  0.00    -0.048 Br
HETATM   23  C   UNL     1      43.082  -7.819  10.890  1.00  0.00     0.022 A 
HETATM   24  C   UNL     1      43.529  -7.369   9.648  1.00  0.00     0.002 A 
HETATM   25  C   UNL     1      43.997  -8.278   8.696  1.00  0.00     0.012 A 
BRANCH  20  26
HETATM   26  O   UNL     1      43.563 -11.445  10.464  1.00  0.00    -0.359 OA
HETATM   27  H   UNL     1      44.444 -11.647  10.854  1.00  0.00     0.218 HD
ENDBRANCH  20  26
ENDBRANCH  18  19
ENDBRANCH   3  18
TORSDOF 6
ENDMDL
MODEL 10
REMARK VINA RESULT:      -7.1      1.471      2.287
REMARK  6 active torsions:
REMARK  status: ('A' for Active; 'I' for Inactive)
REMARK    1  A    between atoms: C_5  and  N_6 
REMARK    2  A    between atoms: N_6  and  C_7 
REMARK    3  A    between atoms: C_7  and  C_8 
REMARK    4  A    between atoms: N_10  and  C_12 
REMARK    5  A    between atoms: C_12  and  C_13 
REMARK    6  A    between atoms: C_14  and  O_15 
ROOT
HETATM    1  C   UNL     1      42.360 -15.354   5.709  1.00  0.00     0.026 C 
HETATM    2  C   UNL     1      42.637 -14.307   6.783  1.00  0.00     0.241 C 
HETATM    3  N   UNL     1      41.890 -13.091   6.292  1.00  0.00    -0.067 N 
HETATM    4  H   UNL     1      41.416 -12.637   7.095  1.00  0.00     0.280 HD
HETATM    5  C   UNL     1      40.828 -13.555   5.317  1.00  0.00     0.235 C 
HETATM    6  C   UNL     1      40.896 -15.075   5.382  1.00  0.00     0.035 C 
ENDROOT
BRANCH   1   7
HETATM    7  C   UNL     1      42.617 -16.800   6.143  1.00  0.00     0.100 C 
BRANCH   7   8
HETATM    8  N   UNL     1      43.793 -17.330   5.464  1.00  0.00    -0.279 NA
HETATM    9  H   UNL     1      44.196 -16.686   4.776  1.00  0.00     0.129 HD
BRANCH   8  10
HETATM   10  C   UNL     1      43.820 -18.621   4.923  1.00  0.00     0.080 A 
HETATM   11  N   UNL     1      43.725 -18.870   3.605  1.00  0.00    -0.351 N 
HETATM   12  C   UNL     1      43.761 -20.109   3.073  1.00  0.00     0.006 A 
HETATM   13  H   UNL     1      43.642 -18.086   2.968  1.00  0.00     0.167 HD
HETATM   14  C   UNL     1      43.706 -20.264   1.586  1.00  0.00     0.068 C 
HETATM   15  C   UNL     1      43.864 -21.212   3.918  1.00  0.00     0.024 A 
HETATM   16  C   UNL     1      43.933 -21.013   5.289  1.00  0.00     0.005 A 
HETATM   17  C   UNL     1      43.911 -19.716   5.791  1.00  0.00     0.042 A 
ENDBRANCH   8  10
ENDBRANCH   7   8
ENDBRANCH   1   7
BRANCH   3  18
HETATM   18  C   UNL     1      42.773 -11.987   5.756  1.00  0.00     0.276 C 
BRANCH  18  19
HETATM   19  C   UNL     1      42.873 -10.803   6.676  1.00  0.00     0.002 A 
HETATM   20  C   UNL     1      43.823 -10.770   7.707  1.00  0.00     0.091 A 
HETATM   21  C   UNL     1      43.944  -9.653   8.539  1.00  0.00     0.044 A 
HETATM   22 BR   UNL     1      45.229  -9.616   9.926  1.00  0.00    -0.048 Br
HETATM   23  C   UNL     1      43.109  -8.553   8.351  1.00  0.00     0.022 A 
HETATM   24  C   UNL     1      42.158  -8.572   7.331  1.00  0.00     0.002 A 
HETATM   25  C   UNL     1      42.043  -9.686   6.495  1.00  0.00     0.012 A 
BRANCH  20  26
HETATM   26  O   UNL     1      44.612 -11.882   7.881  1.00  0.00    -0.359 OA
HETATM   27  H   UNL     1      43.994 -12.629   8.050  1.00  0.00     0.218 HD
ENDBRANCH  20  26
ENDBRANCH  18  19
ENDBRANCH   3  18
TORSDOF 6
ENDMDL
