MODEL 1
REMARK VINA RESULT:      -8.6      0.000      0.000
REMARK  6 active torsions:
REMARK  status: ('A' for Active; 'I' for Inactive)
REMARK    1  A    between atoms: C_6  and  O_7 
REMARK    2  A    between atoms: C_12  and  C_13 
REMARK    3  A    between atoms: C_13  and  C_14 
REMARK       I    between atoms: C_14  and  N_15 
REMARK    4  A    between atoms: N_15  and  C_16 
REMARK    5  A    between atoms: C_16  and  C_17 
REMARK    6  A    between atoms: C_17  and  C_18 
ROOT
HETATM    1  C   UNL     1      41.777 -14.241   6.162  1.00  0.00     0.222 C 
HETATM    2  N   UNL     1      41.764 -15.471   6.789  1.00  0.00    -0.360 N 
HETATM    3  O   UNL     1      42.715 -13.453   6.267  1.00  0.00    -0.273 OA
HETATM    4  H   UNL     1      40.891 -15.984   6.789  1.00  0.00     0.162 HD
ENDROOT
BRANCH   1   5
HETATM    5  C   UNL     1      40.506 -13.873   5.401  1.00  0.00     0.148 C 
BRANCH   5   6
HETATM    6  C   UNL     1      40.471 -13.900   3.886  1.00  0.00     0.033 C 
HETATM    7  C   UNL     1      40.214 -15.282   3.375  1.00  0.00     0.295 C 
HETATM    8  O   UNL     1      39.832 -15.411   2.054  1.00  0.00    -0.274 OA
HETATM    9  O   UNL     1      40.260 -16.263   4.109  1.00  0.00    -0.259 OA
HETATM   10  C   UNL     1      40.079 -14.378   1.140  1.00  0.00     0.093 A 
HETATM   11  C   UNL     1      39.874 -14.701  -0.206  1.00  0.00     0.045 A 
HETATM   12  C   UNL     1      40.541 -13.133   1.559  1.00  0.00     0.038 A 
HETATM   13  C   UNL     1      40.169 -13.767  -1.196  1.00  0.00    -0.057 A 
HETATM   14  C   UNL     1      39.945 -14.074  -2.647  1.00  0.00     0.048 C 
HETATM   15  C   UNL     1      40.712 -12.537  -0.814  1.00  0.00     0.044 A 
HETATM   16  C   UNL     1      40.901 -12.231   0.542  1.00  0.00     0.079 A 
HETATM   17  C   UNL     1      40.574 -12.868   3.020  1.00  0.00    -0.034 C 
HETATM   18  C   UNL     1      40.620 -11.427   3.447  1.00  0.00     0.050 C 
BRANCH  16  19
HETATM   19  O   UNL     1      41.486 -11.033   0.853  1.00  0.00    -0.360 OA
HETATM   20  H   UNL     1      42.375 -11.184   1.212  1.00  0.00     0.217 HD
ENDBRANCH  16  19
ENDBRANCH   5   6
ENDBRANCH   1   5
BRANCH   2  21
HETATM   21  C   UNL     1      42.712 -15.746   7.862  1.00  0.00     0.127 C 
BRANCH  21  22
HETATM   22  C   UNL     1      43.932 -16.545   7.420  1.00  0.00     0.060 C 
BRANCH  22  23
HETATM   23  C   UNL     1      43.789 -17.543   6.300  1.00  0.00    -0.029 A 
HETATM   24  C   UNL     1      43.689 -17.387   4.872  1.00  0.00    -0.000 A 
HETATM   25  C   UNL     1      43.577 -18.668   4.319  1.00  0.00     0.043 A 
HETATM   26  C   UNL     1      43.681 -16.295   3.976  1.00  0.00     0.038 A 
HETATM   27  C   UNL     1      43.448 -18.910   2.944  1.00  0.00     0.032 A 
HETATM   28  N   UNL     1      43.626 -19.567   5.355  1.00  0.00    -0.365 N 
HETATM   29  C   UNL     1      43.426 -17.808   2.090  1.00  0.00     0.026 A 
HETATM   30  C   UNL     1      43.541 -16.520   2.601  1.00  0.00     0.035 A 
HETATM   31 CL   UNL     1      43.502 -15.179   1.520  1.00  0.00    -0.084 Cl
HETATM   32  H   UNL     1      43.579 -20.571   5.247  1.00  0.00     0.165 HD
HETATM   33  C   UNL     1      43.747 -18.907   6.542  1.00  0.00     0.096 A 
ENDBRANCH  22  23
ENDBRANCH  21  22
ENDBRANCH   2  21
TORSDOF 6
ENDMDL
MODEL 2
REMARK VINA RESULT:      -8.5      2.692      5.930
REMARK  6 active torsions:
REMARK  status: ('A' for Active; 'I' for Inactive)
REMARK    1  A    between atoms: C_6  and  O_7 
REMARK    2  A    between atoms: C_12  and  C_13 
REMARK    3  A    between atoms: C_13  and  C_14 
REMARK       I    between atoms: C_14  and  N_15 
REMARK    4  A    between atoms: N_15  and  C_16 
REMARK    5  A    between atoms: C_16  and  C_17 
REMARK    6  A    between atoms: C_17  and  C_18 
ROOT
HETATM    1  C   UNL     1      43.351 -13.151   6.799  1.00  0.00     0.222 C 
HETATM    2  N   UNL     1      42.372 -12.312   6.306  1.00  0.00    -0.360 N 
HETATM    3  O   UNL     1      44.517 -12.792   6.953  1.00  0.00    -0.273 OA
HETATM    4  H   UNL     1      41.485 -12.730   6.054  1.00  0.00     0.162 HD
ENDROOT
BRANCH   1   5
HETATM    5  C   UNL     1      42.920 -14.593   7.053  1.00  0.00     0.148 C 
BRANCH   5   6
HETATM    6  C   UNL     1      43.109 -15.659   5.993  1.00  0.00     0.033 C 
HETATM    7  C   UNL     1      44.326 -16.484   6.265  1.00  0.00     0.295 C 
HETATM    8  O   UNL     1      44.449 -17.681   5.589  1.00  0.00    -0.274 OA
HETATM    9  O   UNL     1      45.152 -16.160   7.112  1.00  0.00    -0.259 OA
HETATM   10  C   UNL     1      43.713 -17.913   4.418  1.00  0.00     0.093 A 
HETATM   11  C   UNL     1      44.086 -19.046   3.686  1.00  0.00     0.045 A 
HETATM   12  C   UNL     1      42.712 -17.038   4.005  1.00  0.00     0.038 A 
HETATM   13  C   UNL     1      43.468 -19.318   2.467  1.00  0.00    -0.057 A 
HETATM   14  C   UNL     1      43.830 -20.532   1.666  1.00  0.00     0.048 C 
HETATM   15  C   UNL     1      42.517 -18.414   1.984  1.00  0.00     0.044 A 
HETATM   16  C   UNL     1      42.153 -17.289   2.739  1.00  0.00     0.079 A 
HETATM   17  C   UNL     1      42.311 -15.959   4.943  1.00  0.00    -0.034 C 
HETATM   18  C   UNL     1      40.967 -15.326   4.716  1.00  0.00     0.050 C 
BRANCH  16  19
HETATM   19  O   UNL     1      41.255 -16.412   2.192  1.00  0.00    -0.360 OA
HETATM   20  H   UNL     1      40.528 -16.255   2.815  1.00  0.00     0.217 HD
ENDBRANCH  16  19
ENDBRANCH   5   6
ENDBRANCH   1   5
BRANCH   2  21
HETATM   21  C   UNL     1      42.751 -11.070   5.642  1.00  0.00     0.127 C 
BRANCH  21  22
HETATM   22  C   UNL     1      43.426 -11.273   4.291  1.00  0.00     0.060 C 
BRANCH  22  23
HETATM   23  C   UNL     1      42.726 -12.089   3.235  1.00  0.00    -0.029 A 
HETATM   24  C   UNL     1      41.446 -11.942   2.591  1.00  0.00    -0.000 A 
HETATM   25  C   UNL     1      41.315 -12.997   1.679  1.00  0.00     0.043 A 
HETATM   26  C   UNL     1      40.374 -11.027   2.677  1.00  0.00     0.038 A 
HETATM   27  C   UNL     1      40.184 -13.187   0.874  1.00  0.00     0.032 A 
HETATM   28  N   UNL     1      42.465 -13.742   1.748  1.00  0.00    -0.365 N 
HETATM   29  C   UNL     1      39.137 -12.274   0.996  1.00  0.00     0.026 A 
HETATM   30  C   UNL     1      39.233 -11.210   1.885  1.00  0.00     0.035 A 
HETATM   31 CL   UNL     1      37.918 -10.105   2.021  1.00  0.00    -0.084 Cl
HETATM   32  H   UNL     1      42.651 -14.563   1.187  1.00  0.00     0.165 HD
HETATM   33  C   UNL     1      43.312 -13.213   2.676  1.00  0.00     0.096 A 
ENDBRANCH  22  23
ENDBRANCH  21  22
ENDBRANCH   2  21
TORSDOF 6
ENDMDL
MODEL 3
REMARK VINA RESULT:      -8.5      5.643      8.562
REMARK  6 active torsions:
REMARK  status: ('A' for Active; 'I' for Inactive)
REMARK    1  A    between atoms: C_6  and  O_7 
REMARK    2  A    between atoms: C_12  and  C_13 
REMARK    3  A    between atoms: C_13  and  C_14 
REMARK       I    between atoms: C_14  and  N_15 
REMARK    4  A    between atoms: N_15  and  C_16 
REMARK    5  A    between atoms: C_16  and  C_17 
REMARK    6  A    between atoms: C_17  and  C_18 
ROOT
HETATM    1  C   UNL     1      44.092 -11.937   5.984  1.00  0.00     0.222 C 
HETATM    2  N   UNL     1      44.649 -11.976   7.247  1.00  0.00    -0.360 N 
HETATM    3  O   UNL     1      44.503 -11.188   5.100  1.00  0.00    -0.273 OA
HETATM    4  H   UNL     1      44.149 -12.493   7.960  1.00  0.00     0.162 HD
ENDROOT
BRANCH   1   5
HETATM    5  C   UNL     1      42.862 -12.818   5.777  1.00  0.00     0.148 C 
BRANCH   5   6
HETATM    6  C   UNL     1      42.982 -14.176   5.113  1.00  0.00     0.033 C 
HETATM    7  C   UNL     1      42.660 -14.096   3.655  1.00  0.00     0.295 C 
HETATM    8  O   UNL     1      43.038 -15.161   2.861  1.00  0.00    -0.274 OA
HETATM    9  O   UNL     1      42.153 -13.097   3.157  1.00  0.00    -0.259 OA
HETATM   10  C   UNL     1      43.314 -16.410   3.433  1.00  0.00     0.093 A 
HETATM   11  C   UNL     1      43.450 -17.470   2.530  1.00  0.00     0.045 A 
HETATM   12  C   UNL     1      43.399 -16.573   4.813  1.00  0.00     0.038 A 
HETATM   13  C   UNL     1      43.647 -18.765   3.006  1.00  0.00    -0.057 A 
HETATM   14  C   UNL     1      43.815 -19.922   2.067  1.00  0.00     0.048 C 
HETATM   15  C   UNL     1      43.655 -18.975   4.388  1.00  0.00     0.044 A 
HETATM   16  C   UNL     1      43.524 -17.895   5.274  1.00  0.00     0.079 A 
HETATM   17  C   UNL     1      43.385 -15.348   5.653  1.00  0.00    -0.034 C 
HETATM   18  C   UNL     1      43.928 -15.475   7.049  1.00  0.00     0.050 C 
BRANCH  16  19
HETATM   19  O   UNL     1      43.486 -18.168   6.616  1.00  0.00    -0.360 OA
HETATM   20  H   UNL     1      42.624 -18.548   6.850  1.00  0.00     0.217 HD
ENDBRANCH  16  19
ENDBRANCH   5   6
ENDBRANCH   1   5
BRANCH   2  21
HETATM   21  C   UNL     1      45.531 -10.899   7.681  1.00  0.00     0.127 C 
BRANCH  21  22
HETATM   22  C   UNL     1      45.292 -10.446   9.117  1.00  0.00     0.060 C 
BRANCH  22  23
HETATM   23  C   UNL     1      44.518  -9.178   9.367  1.00  0.00    -0.029 A 
HETATM   24  C   UNL     1      43.770  -8.710  10.506  1.00  0.00    -0.000 A 
HETATM   25  C   UNL     1      43.259  -7.448  10.180  1.00  0.00     0.043 A 
HETATM   26  C   UNL     1      43.466  -9.216  11.789  1.00  0.00     0.038 A 
HETATM   27  C   UNL     1      42.465  -6.686  11.048  1.00  0.00     0.032 A 
HETATM   28  N   UNL     1      43.688  -7.148   8.911  1.00  0.00    -0.365 N 
HETATM   29  C   UNL     1      42.170  -7.224  12.300  1.00  0.00     0.026 A 
HETATM   30  C   UNL     1      42.665  -8.471  12.663  1.00  0.00     0.035 A 
HETATM   31 CL   UNL     1      42.275  -9.113  14.214  1.00  0.00    -0.084 Cl
HETATM   32  H   UNL     1      43.477  -6.289   8.422  1.00  0.00     0.165 HD
HETATM   33  C   UNL     1      44.436  -8.175   8.414  1.00  0.00     0.096 A 
ENDBRANCH  22  23
ENDBRANCH  21  22
ENDBRANCH   2  21
TORSDOF 6
ENDMDL
MODEL 4
REMARK VINA RESULT:      -8.5      1.820      3.041
REMARK  6 active torsions:
REMARK  status: ('A' for Active; 'I' for Inactive)
REMARK    1  A    between atoms: C_6  and  O_7 
REMARK    2  A    between atoms: C_12  and  C_13 
REMARK    3  A    between atoms: C_13  and  C_14 
REMARK       I    between atoms: C_14  and  N_15 
REMARK    4  A    between atoms: N_15  and  C_16 
REMARK    5  A    between atoms: C_16  and  C_17 
REMARK    6  A    between atoms: C_17  and  C_18 
ROOT
HETATM    1  C   UNL     1      40.539 -13.367   5.490  1.00  0.00     0.222 C 
HETATM    2  N   UNL     1      41.845 -13.165   5.088  1.00  0.00    -0.360 N 
HETATM    3  O   UNL     1      40.244 -14.052   6.467  1.00  0.00    -0.273 OA
HETATM    4  H   UNL     1      41.992 -12.731   4.185  1.00  0.00     0.162 HD
ENDROOT
BRANCH   1   5
HETATM    5  C   UNL     1      39.468 -12.762   4.585  1.00  0.00     0.148 C 
BRANCH   5   6
HETATM    6  C   UNL     1      39.707 -12.605   3.097  1.00  0.00     0.033 C 
HETATM    7  C   UNL     1      39.901 -11.169   2.728  1.00  0.00     0.295 C 
HETATM    8  O   UNL     1      40.447 -10.898   1.489  1.00  0.00    -0.274 OA
HETATM    9  O   UNL     1      39.663 -10.260   3.516  1.00  0.00    -0.259 OA
HETATM   10  C   UNL     1      40.425 -11.867   0.477  1.00  0.00     0.093 A 
HETATM   11  C   UNL     1      40.781 -11.415  -0.799  1.00  0.00     0.045 A 
HETATM   12  C   UNL     1      40.029 -13.177   0.734  1.00  0.00     0.038 A 
HETATM   13  C   UNL     1      40.713 -12.284  -1.886  1.00  0.00    -0.057 A 
HETATM   14  C   UNL     1      41.105 -11.838  -3.263  1.00  0.00     0.048 C 
HETATM   15  C   UNL     1      40.241 -13.583  -1.675  1.00  0.00     0.044 A 
HETATM   16  C   UNL     1      39.897 -14.016  -0.386  1.00  0.00     0.079 A 
HETATM   17  C   UNL     1      39.821 -13.566   2.153  1.00  0.00    -0.034 C 
HETATM   18  C   UNL     1      39.852 -15.036   2.465  1.00  0.00     0.050 C 
BRANCH  16  19
HETATM   19  O   UNL     1      39.391 -15.281  -0.248  1.00  0.00    -0.360 OA
HETATM   20  H   UNL     1      39.230 -15.470   0.690  1.00  0.00     0.217 HD
ENDBRANCH  16  19
ENDBRANCH   5   6
ENDBRANCH   1   5
BRANCH   2  21
HETATM   21  C   UNL     1      42.903 -14.022   5.609  1.00  0.00     0.127 C 
BRANCH  21  22
HETATM   22  C   UNL     1      43.193 -15.242   4.743  1.00  0.00     0.060 C 
BRANCH  22  23
HETATM   23  C   UNL     1      43.335 -16.591   5.398  1.00  0.00    -0.029 A 
HETATM   24  C   UNL     1      43.529 -17.912   4.859  1.00  0.00    -0.000 A 
HETATM   25  C   UNL     1      43.596 -18.799   5.941  1.00  0.00     0.043 A 
HETATM   26  C   UNL     1      43.657 -18.464   3.565  1.00  0.00     0.038 A 
HETATM   27  C   UNL     1      43.769 -20.182   5.798  1.00  0.00     0.032 A 
HETATM   28  N   UNL     1      43.469 -18.056   7.087  1.00  0.00    -0.365 N 
HETATM   29  C   UNL     1      43.875 -20.695   4.506  1.00  0.00     0.026 A 
HETATM   30  C   UNL     1      43.820 -19.846   3.407  1.00  0.00     0.035 A 
HETATM   31 CL   UNL     1      43.945 -20.511   1.822  1.00  0.00    -0.084 Cl
HETATM   32  H   UNL     1      43.493 -18.436   8.023  1.00  0.00     0.165 HD
HETATM   33  C   UNL     1      43.307 -16.738   6.776  1.00  0.00     0.096 A 
ENDBRANCH  22  23
ENDBRANCH  21  22
ENDBRANCH   2  21
TORSDOF 6
ENDMDL
MODEL 5
REMARK VINA RESULT:      -8.4      5.556      8.084
REMARK  6 active torsions:
REMARK  status: ('A' for Active; 'I' for Inactive)
REMARK    1  A    between atoms: C_6  and  O_7 
REMARK    2  A    between atoms: C_12  and  C_13 
REMARK    3  A    between atoms: C_13  and  C_14 
REMARK       I    between atoms: C_14  and  N_15 
REMARK    4  A    between atoms: N_15  and  C_16 
REMARK    5  A    between atoms: C_16  and  C_17 
REMARK    6  A    between atoms: C_17  and  C_18 
ROOT
HETATM    1  C   UNL     1      44.087 -11.410   6.636  1.00  0.00     0.222 C 
HETATM    2  N   UNL     1      44.279 -11.188   7.985  1.00  0.00    -0.360 N 
HETATM    3  O   UNL     1      44.803 -10.907   5.772  1.00  0.00    -0.273 OA
HETATM    4  H   UNL     1      43.551 -11.500   8.616  1.00  0.00     0.162 HD
ENDROOT
BRANCH   1   5
HETATM    5  C   UNL     1      42.863 -12.247   6.271  1.00  0.00     0.148 C 
BRANCH   5   6
HETATM    6  C   UNL     1      43.013 -13.558   5.525  1.00  0.00     0.033 C 
HETATM    7  C   UNL     1      43.291 -14.688   6.463  1.00  0.00     0.295 C 
HETATM    8  O   UNL     1      43.126 -15.971   5.982  1.00  0.00    -0.274 OA
HETATM    9  O   UNL     1      43.577 -14.497   7.641  1.00  0.00    -0.259 OA
HETATM   10  C   UNL     1      43.118 -16.215   4.602  1.00  0.00     0.093 A 
HETATM   11  C   UNL     1      43.187 -17.561   4.226  1.00  0.00     0.045 A 
HETATM   12  C   UNL     1      43.088 -15.171   3.680  1.00  0.00     0.038 A 
HETATM   13  C   UNL     1      43.265 -17.902   2.877  1.00  0.00    -0.057 A 
HETATM   14  C   UNL     1      43.322 -19.335   2.439  1.00  0.00     0.048 C 
HETATM   15  C   UNL     1      43.320 -16.874   1.931  1.00  0.00     0.044 A 
HETATM   16  C   UNL     1      43.241 -15.532   2.330  1.00  0.00     0.079 A 
HETATM   17  C   UNL     1      42.864 -13.799   4.203  1.00  0.00    -0.034 C 
HETATM   18  C   UNL     1      42.379 -12.769   3.220  1.00  0.00     0.050 C 
BRANCH  16  19
HETATM   19  O   UNL     1      43.353 -14.568   1.364  1.00  0.00    -0.360 OA
HETATM   20  H   UNL     1      44.273 -14.514   1.059  1.00  0.00     0.217 HD
ENDBRANCH  16  19
ENDBRANCH   5   6
ENDBRANCH   1   5
BRANCH   2  21
HETATM   21  C   UNL     1      45.132 -10.090   8.423  1.00  0.00     0.127 C 
BRANCH  21  22
HETATM   22  C   UNL     1      45.373 -10.056   9.928  1.00  0.00     0.060 C 
BRANCH  22  23
HETATM   23  C   UNL     1      44.191  -9.967  10.858  1.00  0.00    -0.029 A 
HETATM   24  C   UNL     1      43.279  -8.896  11.163  1.00  0.00    -0.000 A 
HETATM   25  C   UNL     1      42.364  -9.381  12.106  1.00  0.00     0.043 A 
HETATM   26  C   UNL     1      43.121  -7.556  10.744  1.00  0.00     0.038 A 
HETATM   27  C   UNL     1      41.328  -8.609  12.649  1.00  0.00     0.032 A 
HETATM   28  N   UNL     1      42.688 -10.692  12.352  1.00  0.00    -0.365 N 
HETATM   29  C   UNL     1      41.213  -7.286  12.226  1.00  0.00     0.026 A 
HETATM   30  C   UNL     1      42.097  -6.769  11.287  1.00  0.00     0.035 A 
HETATM   31 CL   UNL     1      41.934  -5.127  10.790  1.00  0.00    -0.084 Cl
HETATM   32  H   UNL     1      42.185 -11.298  12.986  1.00  0.00     0.165 HD
HETATM   33  C   UNL     1      43.779 -11.051  11.617  1.00  0.00     0.096 A 
ENDBRANCH  22  23
ENDBRANCH  21  22
ENDBRANCH   2  21
TORSDOF 6
ENDMDL
MODEL 6
REMARK VINA RESULT:      -8.4      2.549      5.396
REMARK  6 active torsions:
REMARK  status: ('A' for Active; 'I' for Inactive)
REMARK    1  A    between atoms: C_6  and  O_7 
REMARK    2  A    between atoms: C_12  and  C_13 
REMARK    3  A    between atoms: C_13  and  C_14 
REMARK       I    between atoms: C_14  and  N_15 
REMARK    4  A    between atoms: N_15  and  C_16 
REMARK    5  A    between atoms: C_16  and  C_17 
REMARK    6  A    between atoms: C_17  and  C_18 
ROOT
HETATM    1  C   UNL     1      43.233 -16.858   5.537  1.00  0.00     0.222 C 
HETATM    2  N   UNL     1      43.406 -16.205   4.334  1.00  0.00    -0.360 N 
HETATM    3  O   UNL     1      43.442 -18.062   5.676  1.00  0.00    -0.273 OA
HETATM    4  H   UNL     1      43.054 -15.258   4.263  1.00  0.00     0.162 HD
ENDROOT
BRANCH   1   5
HETATM    5  C   UNL     1      42.667 -16.010   6.674  1.00  0.00     0.148 C 
BRANCH   5   6
HETATM    6  C   UNL     1      41.929 -14.718   6.386  1.00  0.00     0.033 C 
HETATM    7  C   UNL     1      40.451 -14.937   6.337  1.00  0.00     0.295 C 
HETATM    8  O   UNL     1      39.639 -13.822   6.413  1.00  0.00    -0.274 OA
HETATM    9  O   UNL     1      39.963 -16.062   6.312  1.00  0.00    -0.259 OA
HETATM   10  C   UNL     1      40.152 -12.550   6.124  1.00  0.00     0.093 A 
HETATM   11  C   UNL     1      39.201 -11.532   5.996  1.00  0.00     0.045 A 
HETATM   12  C   UNL     1      41.516 -12.343   5.936  1.00  0.00     0.038 A 
HETATM   13  C   UNL     1      39.605 -10.249   5.631  1.00  0.00    -0.057 A 
HETATM   14  C   UNL     1      38.615  -9.129   5.502  1.00  0.00     0.048 C 
HETATM   15  C   UNL     1      40.957 -10.027   5.355  1.00  0.00     0.044 A 
HETATM   16  C   UNL     1      41.893 -11.062   5.498  1.00  0.00     0.079 A 
HETATM   17  C   UNL     1      42.432 -13.470   6.246  1.00  0.00    -0.034 C 
HETATM   18  C   UNL     1      43.875 -13.125   6.489  1.00  0.00     0.050 C 
BRANCH  16  19
HETATM   19  O   UNL     1      43.195 -10.799   5.162  1.00  0.00    -0.360 OA
HETATM   20  H   UNL     1      43.694 -10.545   5.955  1.00  0.00     0.217 HD
ENDBRANCH  16  19
ENDBRANCH   5   6
ENDBRANCH   1   5
BRANCH   2  21
HETATM   21  C   UNL     1      43.529 -16.977   3.103  1.00  0.00     0.127 C 
BRANCH  21  22
HETATM   22  C   UNL     1      42.756 -16.393   1.927  1.00  0.00     0.060 C 
BRANCH  22  23
HETATM   23  C   UNL     1      41.454 -15.679   2.186  1.00  0.00    -0.029 A 
HETATM   24  C   UNL     1      41.100 -14.283   2.183  1.00  0.00    -0.000 A 
HETATM   25  C   UNL     1      39.736 -14.198   2.490  1.00  0.00     0.043 A 
HETATM   26  C   UNL     1      41.785 -13.070   1.952  1.00  0.00     0.038 A 
HETATM   27  C   UNL     1      39.039 -12.986   2.589  1.00  0.00     0.032 A 
HETATM   28  N   UNL     1      39.273 -15.480   2.655  1.00  0.00    -0.365 N 
HETATM   29  C   UNL     1      39.751 -11.807   2.372  1.00  0.00     0.026 A 
HETATM   30  C   UNL     1      41.104 -11.851   2.058  1.00  0.00     0.035 A 
HETATM   31 CL   UNL     1      41.958 -10.376   1.804  1.00  0.00    -0.084 Cl
HETATM   32  H   UNL     1      38.316 -15.720   2.872  1.00  0.00     0.165 HD
HETATM   33  C   UNL     1      40.291 -16.371   2.480  1.00  0.00     0.096 A 
ENDBRANCH  22  23
ENDBRANCH  21  22
ENDBRANCH   2  21
TORSDOF 6
ENDMDL
MODEL 7
REMARK VINA RESULT:      -8.4      2.991      6.970
REMARK  6 active torsions:
REMARK  status: ('A' for Active; 'I' for Inactive)
REMARK    1  A    between atoms: C_6  and  O_7 
REMARK    2  A    between atoms: C_12  and  C_13 
REMARK    3  A    between atoms: C_13  and  C_14 
REMARK       I    between atoms: C_14  and  N_15 
REMARK    4  A    between atoms: N_15  and  C_16 
REMARK    5  A    between atoms: C_16  and  C_17 
REMARK    6  A    between atoms: C_17  and  C_18 
ROOT
HETATM    1  C   UNL     1      41.244 -12.117   3.859  1.00  0.00     0.222 C 
HETATM    2  N   UNL     1      40.149 -11.532   3.254  1.00  0.00    -0.360 N 
HETATM    3  O   UNL     1      42.390 -11.702   3.700  1.00  0.00    -0.273 OA
HETATM    4  H   UNL     1      39.269 -12.031   3.301  1.00  0.00     0.162 HD
ENDROOT
BRANCH   1   5
HETATM    5  C   UNL     1      40.956 -13.381   4.666  1.00  0.00     0.148 C 
BRANCH   5   6
HETATM    6  C   UNL     1      41.482 -14.728   4.214  1.00  0.00     0.033 C 
HETATM    7  C   UNL     1      40.733 -15.229   3.021  1.00  0.00     0.295 C 
HETATM    8  O   UNL     1      41.297 -16.265   2.303  1.00  0.00    -0.274 OA
HETATM    9  O   UNL     1      39.696 -14.698   2.637  1.00  0.00    -0.259 OA
HETATM   10  C   UNL     1      42.280 -17.077   2.884  1.00  0.00     0.093 A 
HETATM   11  C   UNL     1      42.609 -18.232   2.166  1.00  0.00     0.045 A 
HETATM   12  C   UNL     1      42.847 -16.762   4.115  1.00  0.00     0.038 A 
HETATM   13  C   UNL     1      43.517 -19.145   2.700  1.00  0.00    -0.057 A 
HETATM   14  C   UNL     1      43.906 -20.384   1.950  1.00  0.00     0.048 C 
HETATM   15  C   UNL     1      44.042 -18.899   3.972  1.00  0.00     0.044 A 
HETATM   16  C   UNL     1      43.704 -17.730   4.669  1.00  0.00     0.079 A 
HETATM   17  C   UNL     1      42.525 -15.436   4.702  1.00  0.00    -0.034 C 
HETATM   18  C   UNL     1      43.461 -14.914   5.756  1.00  0.00     0.050 C 
BRANCH  16  19
HETATM   19  O   UNL     1      44.208 -17.568   5.932  1.00  0.00    -0.360 OA
HETATM   20  H   UNL     1      43.541 -17.829   6.588  1.00  0.00     0.217 HD
ENDBRANCH  16  19
ENDBRANCH   5   6
ENDBRANCH   1   5
BRANCH   2  21
HETATM   21  C   UNL     1      40.345 -10.604   2.147  1.00  0.00     0.127 C 
BRANCH  21  22
HETATM   22  C   UNL     1      39.429 -10.862   0.955  1.00  0.00     0.060 C 
BRANCH  22  23
HETATM   23  C   UNL     1      39.727 -12.018   0.037  1.00  0.00    -0.029 A 
HETATM   24  C   UNL     1      38.988 -12.603  -1.052  1.00  0.00    -0.000 A 
HETATM   25  C   UNL     1      39.754 -13.663  -1.554  1.00  0.00     0.043 A 
HETATM   26  C   UNL     1      37.747 -12.353  -1.677  1.00  0.00     0.038 A 
HETATM   27  C   UNL     1      39.345 -14.477  -2.618  1.00  0.00     0.032 A 
HETATM   28  N   UNL     1      40.913 -13.714  -0.820  1.00  0.00    -0.365 N 
HETATM   29  C   UNL     1      38.106 -14.213  -3.201  1.00  0.00     0.026 A 
HETATM   30  C   UNL     1      37.320 -13.165  -2.735  1.00  0.00     0.035 A 
HETATM   31 CL   UNL     1      35.790 -12.869  -3.469  1.00  0.00    -0.084 Cl
HETATM   32  H   UNL     1      41.660 -14.377  -0.972  1.00  0.00     0.165 HD
HETATM   33  C   UNL     1      40.906 -12.740   0.135  1.00  0.00     0.096 A 
ENDBRANCH  22  23
ENDBRANCH  21  22
ENDBRANCH   2  21
TORSDOF 6
ENDMDL
MODEL 8
REMARK VINA RESULT:      -8.3     15.090     17.596
REMARK  6 active torsions:
REMARK  status: ('A' for Active; 'I' for Inactive)
REMARK    1  A    between atoms: C_6  and  O_7 
REMARK    2  A    between atoms: C_12  and  C_13 
REMARK    3  A    between atoms: C_13  and  C_14 
REMARK       I    between atoms: C_14  and  N_15 
REMARK    4  A    between atoms: N_15  and  C_16 
REMARK    5  A    between atoms: C_16  and  C_17 
REMARK    6  A    between atoms: C_17  and  C_18 
ROOT
HETATM    1  C   UNL     1      45.367 -31.655  -2.236  1.00  0.00     0.222 C 
HETATM    2  N   UNL     1      45.925 -30.643  -2.993  1.00  0.00    -0.360 N 
HETATM    3  O   UNL     1      44.158 -31.739  -2.030  1.00  0.00    -0.273 OA
HETATM    4  H   UNL     1      46.933 -30.551  -2.975  1.00  0.00     0.162 HD
ENDROOT
BRANCH   1   5
HETATM    5  C   UNL     1      46.358 -32.617  -1.585  1.00  0.00     0.148 C 
BRANCH   5   6
HETATM    6  C   UNL     1      47.195 -32.184  -0.398  1.00  0.00     0.033 C 
HETATM    7  C   UNL     1      46.556 -32.588   0.892  1.00  0.00     0.295 C 
HETATM    8  O   UNL     1      47.341 -32.560   2.027  1.00  0.00    -0.274 OA
HETATM    9  O   UNL     1      45.404 -33.005   0.941  1.00  0.00    -0.259 OA
HETATM   10  C   UNL     1      48.521 -31.804   2.056  1.00  0.00     0.093 A 
HETATM   11  C   UNL     1      49.109 -31.651   3.316  1.00  0.00     0.045 A 
HETATM   12  C   UNL     1      49.033 -31.215   0.903  1.00  0.00     0.038 A 
HETATM   13  C   UNL     1      50.240 -30.850   3.461  1.00  0.00    -0.057 A 
HETATM   14  C   UNL     1      50.907 -30.679   4.793  1.00  0.00     0.048 C 
HETATM   15  C   UNL     1      50.731 -30.178   2.337  1.00  0.00     0.044 A 
HETATM   16  C   UNL     1      50.130 -30.354   1.082  1.00  0.00     0.079 A 
HETATM   17  C   UNL     1      48.402 -31.575  -0.392  1.00  0.00    -0.034 C 
HETATM   18  C   UNL     1      49.212 -31.325  -1.635  1.00  0.00     0.050 C 
BRANCH  16  19
HETATM   19  O   UNL     1      50.622 -29.629   0.029  1.00  0.00    -0.360 OA
HETATM   20  H   UNL     1      50.387 -30.063  -0.807  1.00  0.00     0.217 HD
ENDBRANCH  16  19
ENDBRANCH   5   6
ENDBRANCH   1   5
BRANCH   2  21
HETATM   21  C   UNL     1      45.140 -29.454  -3.302  1.00  0.00     0.127 C 
BRANCH  21  22
HETATM   22  C   UNL     1      45.715 -28.166  -2.724  1.00  0.00     0.060 C 
BRANCH  22  23
HETATM   23  C   UNL     1      46.327 -28.188  -1.347  1.00  0.00    -0.029 A 
HETATM   24  C   UNL     1      45.827 -28.640  -0.074  1.00  0.00    -0.000 A 
HETATM   25  C   UNL     1      46.836 -28.422   0.872  1.00  0.00     0.043 A 
HETATM   26  C   UNL     1      44.624 -29.216   0.389  1.00  0.00     0.038 A 
HETATM   27  C   UNL     1      46.702 -28.732   2.232  1.00  0.00     0.032 A 
HETATM   28  N   UNL     1      47.909 -27.880   0.208  1.00  0.00    -0.365 N 
HETATM   29  C   UNL     1      45.494 -29.283   2.658  1.00  0.00     0.026 A 
HETATM   30  C   UNL     1      44.472 -29.521   1.747  1.00  0.00     0.035 A 
HETATM   31 CL   UNL     1      42.987 -30.195   2.306  1.00  0.00    -0.084 Cl
HETATM   32  H   UNL     1      48.786 -27.631   0.643  1.00  0.00     0.165 HD
HETATM   33  C   UNL     1      47.615 -27.732  -1.115  1.00  0.00     0.096 A 
ENDBRANCH  22  23
ENDBRANCH  21  22
ENDBRANCH   2  21
TORSDOF 6
ENDMDL
MODEL 9
REMARK VINA RESULT:      -8.2      4.548      7.422
REMARK  6 active torsions:
REMARK  status: ('A' for Active; 'I' for Inactive)
REMARK    1  A    between atoms: C_6  and  O_7 
REMARK    2  A    between atoms: C_12  and  C_13 
REMARK    3  A    between atoms: C_13  and  C_14 
REMARK       I    between atoms: C_14  and  N_15 
REMARK    4  A    between atoms: N_15  and  C_16 
REMARK    5  A    between atoms: C_16  and  C_17 
REMARK    6  A    between atoms: C_17  and  C_18 
ROOT
HETATM    1  C   UNL     1      40.879 -11.720   6.129  1.00  0.00     0.222 C 
HETATM    2  N   UNL     1      40.674 -10.426   6.563  1.00  0.00    -0.360 N 
HETATM    3  O   UNL     1      39.988 -12.568   6.125  1.00  0.00    -0.273 OA
HETATM    4  H   UNL     1      41.492  -9.843   6.692  1.00  0.00     0.162 HD
ENDROOT
BRANCH   1   5
HETATM    5  C   UNL     1      42.314 -12.068   5.741  1.00  0.00     0.148 C 
BRANCH   5   6
HETATM    6  C   UNL     1      42.650 -13.417   5.137  1.00  0.00     0.033 C 
HETATM    7  C   UNL     1      43.164 -14.363   6.176  1.00  0.00     0.295 C 
HETATM    8  O   UNL     1      43.200 -15.705   5.853  1.00  0.00    -0.274 OA
HETATM    9  O   UNL     1      43.470 -13.984   7.301  1.00  0.00    -0.259 OA
HETATM   10  C   UNL     1      43.166 -16.113   4.513  1.00  0.00     0.093 A 
HETATM   11  C   UNL     1      43.447 -17.465   4.287  1.00  0.00     0.045 A 
HETATM   12  C   UNL     1      42.911 -15.210   3.485  1.00  0.00     0.038 A 
HETATM   13  C   UNL     1      43.517 -17.951   2.983  1.00  0.00    -0.057 A 
HETATM   14  C   UNL     1      43.799 -19.397   2.706  1.00  0.00     0.048 C 
HETATM   15  C   UNL     1      43.348 -17.052   1.926  1.00  0.00     0.044 A 
HETATM   16  C   UNL     1      43.058 -15.702   2.176  1.00  0.00     0.079 A 
HETATM   17  C   UNL     1      42.481 -13.840   3.864  1.00  0.00    -0.034 C 
HETATM   18  C   UNL     1      41.778 -13.032   2.808  1.00  0.00     0.050 C 
BRANCH  16  19
HETATM   19  O   UNL     1      42.956 -14.859   1.102  1.00  0.00    -0.360 OA
HETATM   20  H   UNL     1      43.253 -15.313   0.298  1.00  0.00     0.217 HD
ENDBRANCH  16  19
ENDBRANCH   5   6
ENDBRANCH   1   5
BRANCH   2  21
HETATM   21  C   UNL     1      39.483 -10.103   7.340  1.00  0.00     0.127 C 
BRANCH  21  22
HETATM   22  C   UNL     1      39.710  -9.041   8.409  1.00  0.00     0.060 C 
BRANCH  22  23
HETATM   23  C   UNL     1      40.605  -9.358   9.580  1.00  0.00    -0.029 A 
HETATM   24  C   UNL     1      42.036  -9.334   9.737  1.00  0.00    -0.000 A 
HETATM   25  C   UNL     1      42.318  -9.722  11.052  1.00  0.00     0.043 A 
HETATM   26  C   UNL     1      43.136  -9.023   8.907  1.00  0.00     0.038 A 
HETATM   27  C   UNL     1      43.617  -9.826  11.567  1.00  0.00     0.032 A 
HETATM   28  N   UNL     1      41.118  -9.955  11.676  1.00  0.00    -0.365 N 
HETATM   29  C   UNL     1      44.680  -9.528  10.715  1.00  0.00     0.026 A 
HETATM   30  C   UNL     1      44.441  -9.133   9.405  1.00  0.00     0.035 A 
HETATM   31 CL   UNL     1      45.776  -8.780   8.374  1.00  0.00    -0.084 Cl
HETATM   32  H   UNL     1      41.018 -10.239  12.641  1.00  0.00     0.165 HD
HETATM   33  C   UNL     1      40.089  -9.746  10.806  1.00  0.00     0.096 A 
ENDBRANCH  22  23
ENDBRANCH  21  22
ENDBRANCH   2  21
TORSDOF 6
ENDMDL
MODEL 10
REMARK VINA RESULT:      -8.1      6.185      8.865
REMARK  6 active torsions:
REMARK  status: ('A' for Active; 'I' for Inactive)
REMARK    1  A    between atoms: C_6  and  O_7 
REMARK    2  A    between atoms: C_12  and  C_13 
REMARK    3  A    between atoms: C_13  and  C_14 
REMARK       I    between atoms: C_14  and  N_15 
REMARK    4  A    between atoms: N_15  and  C_16 
REMARK    5  A    between atoms: C_16  and  C_17 
REMARK    6  A    between atoms: C_17  and  C_18 
ROOT
HETATM    1  C   UNL     1      43.652 -10.886   7.582  1.00  0.00     0.222 C 
HETATM    2  N   UNL     1      43.587 -12.250   7.788  1.00  0.00    -0.360 N 
HETATM    3  O   UNL     1      43.100 -10.331   6.634  1.00  0.00    -0.273 OA
HETATM    4  H   UNL     1      44.202 -12.644   8.489  1.00  0.00     0.162 HD
ENDROOT
BRANCH   1   5
HETATM    5  C   UNL     1      44.537 -10.112   8.556  1.00  0.00     0.148 C 
BRANCH   5   6
HETATM    6  C   UNL     1      43.938  -9.399   9.752  1.00  0.00     0.033 C 
HETATM    7  C   UNL     1      43.814 -10.317  10.925  1.00  0.00     0.295 C 
HETATM    8  O   UNL     1      43.600  -9.744  12.163  1.00  0.00    -0.274 OA
HETATM    9  O   UNL     1      43.974 -11.528  10.819  1.00  0.00    -0.259 OA
HETATM   10  C   UNL     1      43.105  -8.436  12.263  1.00  0.00     0.093 A 
HETATM   11  C   UNL     1      42.699  -8.041  13.542  1.00  0.00     0.045 A 
HETATM   12  C   UNL     1      42.991  -7.616  11.144  1.00  0.00     0.038 A 
HETATM   13  C   UNL     1      42.119  -6.788  13.729  1.00  0.00    -0.057 A 
HETATM   14  C   UNL     1      41.690  -6.325  15.090  1.00  0.00     0.048 C 
HETATM   15  C   UNL     1      41.915  -5.973  12.612  1.00  0.00     0.044 A 
HETATM   16  C   UNL     1      42.337  -6.387  11.340  1.00  0.00     0.079 A 
HETATM   17  C   UNL     1      43.593  -8.097   9.874  1.00  0.00    -0.034 C 
HETATM   18  C   UNL     1      43.878  -7.061   8.823  1.00  0.00     0.050 C 
BRANCH  16  19
HETATM   19  O   UNL     1      42.063  -5.570  10.276  1.00  0.00    -0.360 OA
HETATM   20  H   UNL     1      42.139  -6.071   9.449  1.00  0.00     0.217 HD
ENDBRANCH  16  19
ENDBRANCH   5   6
ENDBRANCH   1   5
BRANCH   2  21
HETATM   21  C   UNL     1      43.139 -13.123   6.710  1.00  0.00     0.127 C 
BRANCH  21  22
HETATM   22  C   UNL     1      43.040 -14.592   7.104  1.00  0.00     0.060 C 
BRANCH  22  23
HETATM   23  C   UNL     1      43.411 -15.649   6.097  1.00  0.00    -0.029 A 
HETATM   24  C   UNL     1      42.819 -16.041   4.844  1.00  0.00    -0.000 A 
HETATM   25  C   UNL     1      43.592 -17.087   4.326  1.00  0.00     0.043 A 
HETATM   26  C   UNL     1      41.705 -15.625   4.081  1.00  0.00     0.038 A 
HETATM   27  C   UNL     1      43.308 -17.734   3.116  1.00  0.00     0.032 A 
HETATM   28  N   UNL     1      44.619 -17.313   5.209  1.00  0.00    -0.365 N 
HETATM   29  C   UNL     1      42.191 -17.309   2.397  1.00  0.00     0.026 A 
HETATM   30  C   UNL     1      41.403 -16.269   2.875  1.00  0.00     0.035 A 
HETATM   31 CL   UNL     1      40.024 -15.772   1.969  1.00  0.00    -0.084 Cl
HETATM   32  H   UNL     1      45.342 -18.008   5.083  1.00  0.00     0.165 HD
HETATM   33  C   UNL     1      44.518 -16.464   6.271  1.00  0.00     0.096 A 
ENDBRANCH  22  23
ENDBRANCH  21  22
ENDBRANCH   2  21
TORSDOF 6
ENDMDL
