MODEL 1
REMARK VINA RESULT:      -8.3      0.000      0.000
REMARK  4 active torsions:
REMARK  status: ('A' for Active; 'I' for Inactive)
REMARK    1  A    between atoms: C_2  and  N_3 
REMARK    2  A    between atoms: N_7  and  C_8 
REMARK    3  A    between atoms: C_11  and  N_12 
REMARK    4  A    between atoms: C_13  and  C_14 
ROOT
HETATM    1  C   UNL     1      43.660 -10.470   7.822  1.00  0.00     0.030 A 
HETATM    2  C   UNL     1      42.594 -10.425   6.914  1.00  0.00     0.031 A 
HETATM    3  C   UNL     1      42.485 -11.352   5.867  1.00  0.00     0.034 A 
HETATM    4  C   UNL     1      43.429 -12.362   5.696  1.00  0.00     0.056 A 
HETATM    5  C   UNL     1      44.486 -12.432   6.602  1.00  0.00     0.034 A 
HETATM    6  C   UNL     1      44.603 -11.494   7.638  1.00  0.00     0.031 A 
ENDROOT
BRANCH   4   7
HETATM    7  N   UNL     1      43.205 -13.312   4.693  1.00  0.00    -0.260 NA
HETATM    8  C   UNL     1      42.816 -14.499   5.023  1.00  0.00     0.131 C 
BRANCH   8   9
HETATM    9  C   UNL     1      42.546 -15.472   3.984  1.00  0.00     0.009 A 
HETATM   10  C   UNL     1      43.138 -16.767   3.827  1.00  0.00     0.004 A 
HETATM   11  C   UNL     1      42.561 -17.355   2.698  1.00  0.00     0.043 A 
HETATM   12  C   UNL     1      44.104 -17.505   4.544  1.00  0.00     0.014 A 
HETATM   13  C   UNL     1      42.901 -18.638   2.253  1.00  0.00     0.030 A 
HETATM   14  N   UNL     1      41.660 -16.453   2.186  1.00  0.00    -0.364 N 
HETATM   15  C   UNL     1      43.857 -19.347   2.984  1.00  0.00     0.002 A 
HETATM   16  C   UNL     1      44.452 -18.790   4.113  1.00  0.00     0.001 A 
HETATM   17  H   UNL     1      41.090 -16.614   1.366  1.00  0.00     0.165 HD
HETATM   18  C   UNL     1      41.639 -15.320   2.951  1.00  0.00     0.102 A 
ENDBRANCH   8   9
ENDBRANCH   4   7
BRANCH   1  19
HETATM   19  N   UNL     1      43.781  -9.600   8.901  1.00  0.00    -0.378 N 
HETATM   20  C   UNL     1      44.701  -9.893  10.009  1.00  0.00     0.150 C 
HETATM   21  C   UNL     1      43.955 -10.481  11.224  1.00  0.00     0.254 C 
HETATM   22  N   UNL     1      42.795  -9.565  11.635  1.00  0.00    -0.068 N 
HETATM   23  H   UNL     1      43.198  -8.645  11.857  1.00  0.00     0.280 HD
HETATM   24  C   UNL     1      41.852  -9.348  10.441  1.00  0.00     0.254 C 
HETATM   25  C   UNL     1      42.621  -8.756   9.240  1.00  0.00     0.150 C 
BRANCH  22  26
HETATM   26  C   UNL     1      42.044 -10.054  12.849  1.00  0.00     0.230 C 
HETATM   27  C   UNL     1      42.092  -9.025  13.963  1.00  0.00     0.034 C 
ENDBRANCH  22  26
ENDBRANCH   1  19
TORSDOF 4
ENDMDL
MODEL 2
REMARK VINA RESULT:      -8.1      6.201      8.824
REMARK  4 active torsions:
REMARK  status: ('A' for Active; 'I' for Inactive)
REMARK    1  A    between atoms: C_2  and  N_3 
REMARK    2  A    between atoms: N_7  and  C_8 
REMARK    3  A    between atoms: C_11  and  N_12 
REMARK    4  A    between atoms: C_13  and  C_14 
ROOT
HETATM    1  C   UNL     1      39.863 -12.821  -0.664  1.00  0.00     0.030 A 
HETATM    2  C   UNL     1      40.677 -12.476   0.422  1.00  0.00     0.031 A 
HETATM    3  C   UNL     1      41.116 -13.439   1.343  1.00  0.00     0.034 A 
HETATM    4  C   UNL     1      40.765 -14.780   1.207  1.00  0.00     0.056 A 
HETATM    5  C   UNL     1      39.970 -15.144   0.120  1.00  0.00     0.034 A 
HETATM    6  C   UNL     1      39.519 -14.177  -0.790  1.00  0.00     0.031 A 
ENDROOT
BRANCH   4   7
HETATM    7  N   UNL     1      41.318 -15.702   2.103  1.00  0.00    -0.260 NA
HETATM    8  C   UNL     1      42.589 -15.672   2.336  1.00  0.00     0.131 C 
BRANCH   8   9
HETATM    9  C   UNL     1      43.157 -16.599   3.294  1.00  0.00     0.009 A 
HETATM   10  C   UNL     1      43.318 -18.015   3.146  1.00  0.00     0.004 A 
HETATM   11  C   UNL     1      43.926 -18.490   4.311  1.00  0.00     0.043 A 
HETATM   12  C   UNL     1      43.016 -18.943   2.125  1.00  0.00     0.014 A 
HETATM   13  C   UNL     1      44.244 -19.839   4.506  1.00  0.00     0.030 A 
HETATM   14  N   UNL     1      44.121 -17.408   5.136  1.00  0.00    -0.364 N 
HETATM   15  C   UNL     1      43.937 -20.733   3.479  1.00  0.00     0.002 A 
HETATM   16  C   UNL     1      43.332 -20.294   2.304  1.00  0.00     0.001 A 
HETATM   17  H   UNL     1      44.548 -17.455   6.052  1.00  0.00     0.165 HD
HETATM   18  C   UNL     1      43.667 -16.267   4.535  1.00  0.00     0.102 A 
ENDBRANCH   8   9
ENDBRANCH   4   7
BRANCH   1  19
HETATM   19  N   UNL     1      39.445 -11.907  -1.626  1.00  0.00    -0.378 N 
HETATM   20  C   UNL     1      40.210 -11.710  -2.865  1.00  0.00     0.150 C 
HETATM   21  C   UNL     1      41.096 -10.450  -2.789  1.00  0.00     0.254 C 
HETATM   22  N   UNL     1      40.255  -9.226  -2.404  1.00  0.00    -0.068 N 
HETATM   23  H   UNL     1      39.523  -9.123  -3.119  1.00  0.00     0.280 HD
HETATM   24  C   UNL     1      39.528  -9.489  -1.075  1.00  0.00     0.254 C 
HETATM   25  C   UNL     1      38.646 -10.752  -1.178  1.00  0.00     0.150 C 
BRANCH  22  26
HETATM   26  C   UNL     1      41.048  -7.943  -2.353  1.00  0.00     0.230 C 
HETATM   27  C   UNL     1      42.462  -8.202  -1.869  1.00  0.00     0.034 C 
ENDBRANCH  22  26
ENDBRANCH   1  19
TORSDOF 4
ENDMDL
MODEL 3
REMARK VINA RESULT:      -7.5      1.622      2.160
REMARK  4 active torsions:
REMARK  status: ('A' for Active; 'I' for Inactive)
REMARK    1  A    between atoms: C_2  and  N_3 
REMARK    2  A    between atoms: N_7  and  C_8 
REMARK    3  A    between atoms: C_11  and  N_12 
REMARK    4  A    between atoms: C_13  and  C_14 
ROOT
HETATM    1  C   UNL     1      42.808  -9.865   7.658  1.00  0.00     0.030 A 
HETATM    2  C   UNL     1      42.002 -10.437   6.666  1.00  0.00     0.031 A 
HETATM    3  C   UNL     1      42.315 -11.679   6.093  1.00  0.00     0.034 A 
HETATM    4  C   UNL     1      43.438 -12.397   6.498  1.00  0.00     0.056 A 
HETATM    5  C   UNL     1      44.241 -11.850   7.498  1.00  0.00     0.034 A 
HETATM    6  C   UNL     1      43.936 -10.601   8.056  1.00  0.00     0.031 A 
ENDROOT
BRANCH   4   7
HETATM    7  N   UNL     1      43.636 -13.673   5.957  1.00  0.00    -0.260 NA
HETATM    8  C   UNL     1      43.268 -14.710   6.635  1.00  0.00     0.131 C 
BRANCH   8   9
HETATM    9  C   UNL     1      43.436 -16.029   6.061  1.00  0.00     0.009 A 
HETATM   10  C   UNL     1      43.364 -16.393   4.677  1.00  0.00     0.004 A 
HETATM   11  C   UNL     1      43.608 -17.766   4.593  1.00  0.00     0.043 A 
HETATM   12  C   UNL     1      43.128 -15.682   3.479  1.00  0.00     0.014 A 
HETATM   13  C   UNL     1      43.625 -18.462   3.378  1.00  0.00     0.030 A 
HETATM   14  N   UNL     1      43.812 -18.221   5.874  1.00  0.00    -0.364 N 
HETATM   15  C   UNL     1      43.391 -17.733   2.210  1.00  0.00     0.002 A 
HETATM   16  C   UNL     1      43.145 -16.364   2.257  1.00  0.00     0.001 A 
HETATM   17  H   UNL     1      44.014 -19.182   6.116  1.00  0.00     0.165 HD
HETATM   18  C   UNL     1      43.715 -17.187   6.763  1.00  0.00     0.102 A 
ENDBRANCH   8   9
ENDBRANCH   4   7
BRANCH   1  19
HETATM   19  N   UNL     1      42.509  -8.660   8.284  1.00  0.00    -0.378 N 
HETATM   20  C   UNL     1      43.540  -7.913   9.020  1.00  0.00     0.150 C 
HETATM   21  C   UNL     1      43.428  -8.144  10.541  1.00  0.00     0.254 C 
HETATM   22  N   UNL     1      42.006  -7.837  11.026  1.00  0.00    -0.068 N 
HETATM   23  H   UNL     1      41.807  -6.857  10.784  1.00  0.00     0.280 HD
HETATM   24  C   UNL     1      40.992  -8.691  10.248  1.00  0.00     0.254 C 
HETATM   25  C   UNL     1      41.122  -8.440   8.730  1.00  0.00     0.150 C 
BRANCH  22  26
HETATM   26  C   UNL     1      41.831  -7.997  12.517  1.00  0.00     0.230 C 
HETATM   27  C   UNL     1      43.175  -7.996  13.220  1.00  0.00     0.034 C 
ENDBRANCH  22  26
ENDBRANCH   1  19
TORSDOF 4
ENDMDL
MODEL 4
REMARK VINA RESULT:      -7.3      1.672      2.259
REMARK  4 active torsions:
REMARK  status: ('A' for Active; 'I' for Inactive)
REMARK    1  A    between atoms: C_2  and  N_3 
REMARK    2  A    between atoms: N_7  and  C_8 
REMARK    3  A    between atoms: C_11  and  N_12 
REMARK    4  A    between atoms: C_13  and  C_14 
ROOT
HETATM    1  C   UNL     1      40.977 -10.031   7.188  1.00  0.00     0.030 A 
HETATM    2  C   UNL     1      42.232 -10.389   6.681  1.00  0.00     0.031 A 
HETATM    3  C   UNL     1      42.380 -11.450   5.773  1.00  0.00     0.034 A 
HETATM    4  C   UNL     1      41.279 -12.181   5.334  1.00  0.00     0.056 A 
HETATM    5  C   UNL     1      40.020 -11.825   5.814  1.00  0.00     0.034 A 
HETATM    6  C   UNL     1      39.877 -10.777   6.734  1.00  0.00     0.031 A 
ENDROOT
BRANCH   4   7
HETATM    7  N   UNL     1      41.485 -13.159   4.353  1.00  0.00    -0.260 NA
HETATM    8  C   UNL     1      42.659 -13.686   4.223  1.00  0.00     0.131 C 
BRANCH   8   9
HETATM    9  C   UNL     1      42.864 -14.726   3.236  1.00  0.00     0.009 A 
HETATM   10  C   UNL     1      43.210 -16.096   3.473  1.00  0.00     0.004 A 
HETATM   11  C   UNL     1      43.284 -16.728   2.229  1.00  0.00     0.043 A 
HETATM   12  C   UNL     1      43.457 -16.867   4.629  1.00  0.00     0.014 A 
HETATM   13  C   UNL     1      43.592 -18.086   2.084  1.00  0.00     0.030 A 
HETATM   14  N   UNL     1      43.001 -15.781   1.274  1.00  0.00    -0.364 N 
HETATM   15  C   UNL     1      43.828 -18.825   3.245  1.00  0.00     0.002 A 
HETATM   16  C   UNL     1      43.763 -18.227   4.501  1.00  0.00     0.001 A 
HETATM   17  H   UNL     1      42.979 -15.958   0.279  1.00  0.00     0.165 HD
HETATM   18  C   UNL     1      42.743 -14.576   1.867  1.00  0.00     0.102 A 
ENDBRANCH   8   9
ENDBRANCH   4   7
BRANCH   1  19
HETATM   19  N   UNL     1      40.780  -8.959   8.051  1.00  0.00    -0.378 N 
HETATM   20  C   UNL     1      41.894  -8.077   8.429  1.00  0.00     0.150 C 
HETATM   21  C   UNL     1      42.452  -8.436   9.821  1.00  0.00     0.254 C 
HETATM   22  N   UNL     1      41.325  -8.455  10.861  1.00  0.00    -0.068 N 
HETATM   23  H   UNL     1      40.896  -7.520  10.863  1.00  0.00     0.280 HD
HETATM   24  C   UNL     1      40.225  -9.435  10.422  1.00  0.00     0.254 C 
HETATM   25  C   UNL     1      39.681  -9.053   9.029  1.00  0.00     0.150 C 
BRANCH  22  26
HETATM   26  C   UNL     1      41.803  -8.755  12.261  1.00  0.00     0.230 C 
HETATM   27  C   UNL     1      43.220  -8.252  12.466  1.00  0.00     0.034 C 
ENDBRANCH  22  26
ENDBRANCH   1  19
TORSDOF 4
ENDMDL
MODEL 5
REMARK VINA RESULT:      -7.2      2.147      3.073
REMARK  4 active torsions:
REMARK  status: ('A' for Active; 'I' for Inactive)
REMARK    1  A    between atoms: C_2  and  N_3 
REMARK    2  A    between atoms: N_7  and  C_8 
REMARK    3  A    between atoms: C_11  and  N_12 
REMARK    4  A    between atoms: C_13  and  C_14 
ROOT
HETATM    1  C   UNL     1      41.176 -11.482   5.636  1.00  0.00     0.030 A 
HETATM    2  C   UNL     1      40.189 -12.289   5.057  1.00  0.00     0.031 A 
HETATM    3  C   UNL     1      40.480 -13.580   4.589  1.00  0.00     0.034 A 
HETATM    4  C   UNL     1      41.762 -14.113   4.693  1.00  0.00     0.056 A 
HETATM    5  C   UNL     1      42.753 -13.330   5.284  1.00  0.00     0.034 A 
HETATM    6  C   UNL     1      42.465 -12.034   5.735  1.00  0.00     0.031 A 
ENDROOT
BRANCH   4   7
HETATM    7  N   UNL     1      41.960 -15.441   4.298  1.00  0.00    -0.260 NA
HETATM    8  C   UNL     1      43.097 -15.787   3.791  1.00  0.00     0.131 C 
BRANCH   8   9
HETATM    9  C   UNL     1      43.317 -17.170   3.419  1.00  0.00     0.009 A 
HETATM   10  C   UNL     1      43.527 -18.285   4.293  1.00  0.00     0.004 A 
HETATM   11  C   UNL     1      43.674 -19.421   3.492  1.00  0.00     0.043 A 
HETATM   12  C   UNL     1      43.594 -18.444   5.694  1.00  0.00     0.014 A 
HETATM   13  C   UNL     1      43.885 -20.701   4.020  1.00  0.00     0.030 A 
HETATM   14  N   UNL     1      43.564 -19.012   2.184  1.00  0.00    -0.364 N 
HETATM   15  C   UNL     1      43.945 -20.828   5.409  1.00  0.00     0.002 A 
HETATM   16  C   UNL     1      43.802 -19.717   6.237  1.00  0.00     0.001 A 
HETATM   17  H   UNL     1      43.628 -19.627   1.384  1.00  0.00     0.165 HD
HETATM   18  C   UNL     1      43.346 -17.664   2.128  1.00  0.00     0.102 A 
ENDBRANCH   8   9
ENDBRANCH   4   7
BRANCH   1  19
HETATM   19  N   UNL     1      40.921 -10.217   6.155  1.00  0.00    -0.378 N 
HETATM   20  C   UNL     1      42.009  -9.384   6.686  1.00  0.00     0.150 C 
HETATM   21  C   UNL     1      42.068  -9.443   8.226  1.00  0.00     0.254 C 
HETATM   22  N   UNL     1      40.700  -9.096   8.827  1.00  0.00    -0.068 N 
HETATM   23  H   UNL     1      40.455  -8.152   8.501  1.00  0.00     0.280 HD
HETATM   24  C   UNL     1      39.626 -10.041   8.264  1.00  0.00     0.254 C 
HETATM   25  C   UNL     1      39.586  -9.961   6.723  1.00  0.00     0.150 C 
BRANCH  22  26
HETATM   26  C   UNL     1      40.690  -9.089  10.336  1.00  0.00     0.230 C 
HETATM   27  C   UNL     1      39.566  -9.955  10.872  1.00  0.00     0.034 C 
ENDBRANCH  22  26
ENDBRANCH   1  19
TORSDOF 4
ENDMDL
MODEL 6
REMARK VINA RESULT:      -7.1      1.542      2.092
REMARK  4 active torsions:
REMARK  status: ('A' for Active; 'I' for Inactive)
REMARK    1  A    between atoms: C_2  and  N_3 
REMARK    2  A    between atoms: N_7  and  C_8 
REMARK    3  A    between atoms: C_11  and  N_12 
REMARK    4  A    between atoms: C_13  and  C_14 
ROOT
HETATM    1  C   UNL     1      43.267 -10.193   7.925  1.00  0.00     0.030 A 
HETATM    2  C   UNL     1      42.240 -10.462   7.011  1.00  0.00     0.031 A 
HETATM    3  C   UNL     1      42.334 -11.521   6.095  1.00  0.00     0.034 A 
HETATM    4  C   UNL     1      43.451 -12.353   6.067  1.00  0.00     0.056 A 
HETATM    5  C   UNL     1      44.474 -12.110   6.982  1.00  0.00     0.034 A 
HETATM    6  C   UNL     1      44.385 -11.041   7.885  1.00  0.00     0.031 A 
ENDROOT
BRANCH   4   7
HETATM    7  N   UNL     1      43.435 -13.449   5.196  1.00  0.00    -0.260 NA
HETATM    8  C   UNL     1      42.909 -13.317   4.023  1.00  0.00     0.131 C 
BRANCH   8   9
HETATM    9  C   UNL     1      42.928 -14.439   3.107  1.00  0.00     0.009 A 
HETATM   10  C   UNL     1      43.240 -15.804   3.407  1.00  0.00     0.004 A 
HETATM   11  C   UNL     1      43.112 -16.532   2.221  1.00  0.00     0.043 A 
HETATM   12  C   UNL     1      43.609 -16.499   4.580  1.00  0.00     0.014 A 
HETATM   13  C   UNL     1      43.334 -17.912   2.149  1.00  0.00     0.030 A 
HETATM   14  N   UNL     1      42.743 -15.645   1.238  1.00  0.00    -0.364 N 
HETATM   15  C   UNL     1      43.694 -18.574   3.325  1.00  0.00     0.002 A 
HETATM   16  C   UNL     1      43.831 -17.880   4.524  1.00  0.00     0.001 A 
HETATM   17  H   UNL     1      42.574 -15.895   0.273  1.00  0.00     0.165 HD
HETATM   18  C   UNL     1      42.625 -14.386   1.759  1.00  0.00     0.102 A 
ENDBRANCH   8   9
ENDBRANCH   4   7
BRANCH   1  19
HETATM   19  N   UNL     1      43.194  -9.184   8.880  1.00  0.00    -0.378 N 
HETATM   20  C   UNL     1      42.548  -9.418  10.180  1.00  0.00     0.150 C 
HETATM   21  C   UNL     1      41.116  -8.848  10.210  1.00  0.00     0.254 C 
HETATM   22  N   UNL     1      41.118  -7.370   9.800  1.00  0.00    -0.068 N 
HETATM   23  H   UNL     1      41.730  -6.872  10.461  1.00  0.00     0.280 HD
HETATM   24  C   UNL     1      41.761  -7.213   8.413  1.00  0.00     0.254 C 
HETATM   25  C   UNL     1      43.194  -7.788   8.409  1.00  0.00     0.150 C 
BRANCH  22  26
HETATM   26  C   UNL     1      39.753  -6.729   9.850  1.00  0.00     0.230 C 
HETATM   27  C   UNL     1      38.696  -7.743  10.243  1.00  0.00     0.034 C 
ENDBRANCH  22  26
ENDBRANCH   1  19
TORSDOF 4
ENDMDL
MODEL 7
REMARK VINA RESULT:      -7.1      1.523      2.366
REMARK  4 active torsions:
REMARK  status: ('A' for Active; 'I' for Inactive)
REMARK    1  A    between atoms: C_2  and  N_3 
REMARK    2  A    between atoms: N_7  and  C_8 
REMARK    3  A    between atoms: C_11  and  N_12 
REMARK    4  A    between atoms: C_13  and  C_14 
ROOT
HETATM    1  C   UNL     1      43.402  -9.796   8.564  1.00  0.00     0.030 A 
HETATM    2  C   UNL     1      42.390  -9.896   7.601  1.00  0.00     0.031 A 
HETATM    3  C   UNL     1      42.426 -10.879   6.600  1.00  0.00     0.034 A 
HETATM    4  C   UNL     1      43.467 -11.803   6.533  1.00  0.00     0.056 A 
HETATM    5  C   UNL     1      44.473 -11.729   7.496  1.00  0.00     0.034 A 
HETATM    6  C   UNL     1      44.444 -10.735   8.485  1.00  0.00     0.031 A 
ENDROOT
BRANCH   4   7
HETATM    7  N   UNL     1      43.389 -12.817   5.572  1.00  0.00    -0.260 NA
HETATM    8  C   UNL     1      42.775 -13.917   5.863  1.00  0.00     0.131 C 
BRANCH   8   9
HETATM    9  C   UNL     1      42.659 -14.952   4.856  1.00  0.00     0.009 A 
HETATM   10  C   UNL     1      41.668 -15.059   3.827  1.00  0.00     0.004 A 
HETATM   11  C   UNL     1      41.963 -16.204   3.083  1.00  0.00     0.043 A 
HETATM   12  C   UNL     1      40.552 -14.284   3.444  1.00  0.00     0.014 A 
HETATM   13  C   UNL     1      41.200 -16.612   1.981  1.00  0.00     0.030 A 
HETATM   14  N   UNL     1      43.082 -16.774   3.640  1.00  0.00    -0.364 N 
HETATM   15  C   UNL     1      40.103 -15.825   1.625  1.00  0.00     0.002 A 
HETATM   16  C   UNL     1      39.781 -14.677   2.344  1.00  0.00     0.001 A 
HETATM   17  H   UNL     1      43.525 -17.618   3.302  1.00  0.00     0.165 HD
HETATM   18  C   UNL     1      43.511 -16.029   4.703  1.00  0.00     0.102 A 
ENDBRANCH   8   9
ENDBRANCH   4   7
BRANCH   1  19
HETATM   19  N   UNL     1      43.382  -8.868   9.600  1.00  0.00    -0.378 N 
HETATM   20  C   UNL     1      44.158  -9.088  10.829  1.00  0.00     0.150 C 
HETATM   21  C   UNL     1      43.269  -9.619  11.971  1.00  0.00     0.254 C 
HETATM   22  N   UNL     1      42.061  -8.697  12.183  1.00  0.00    -0.068 N 
HETATM   23  H   UNL     1      42.427  -7.762  12.402  1.00  0.00     0.280 HD
HETATM   24  C   UNL     1      41.273  -8.559  10.871  1.00  0.00     0.254 C 
HETATM   25  C   UNL     1      42.183  -8.023   9.744  1.00  0.00     0.150 C 
BRANCH  22  26
HETATM   26  C   UNL     1      41.166  -9.129  13.319  1.00  0.00     0.230 C 
HETATM   27  C   UNL     1      41.768  -8.741  14.656  1.00  0.00     0.034 C 
ENDBRANCH  22  26
ENDBRANCH   1  19
TORSDOF 4
ENDMDL
MODEL 8
REMARK VINA RESULT:      -7.1     17.293     20.355
REMARK  4 active torsions:
REMARK  status: ('A' for Active; 'I' for Inactive)
REMARK    1  A    between atoms: C_2  and  N_3 
REMARK    2  A    between atoms: N_7  and  C_8 
REMARK    3  A    between atoms: C_11  and  N_12 
REMARK    4  A    between atoms: C_13  and  C_14 
ROOT
HETATM    1  C   UNL     1      39.540 -32.529   4.052  1.00  0.00     0.030 A 
HETATM    2  C   UNL     1      39.903 -32.495   2.700  1.00  0.00     0.031 A 
HETATM    3  C   UNL     1      40.857 -31.584   2.221  1.00  0.00     0.034 A 
HETATM    4  C   UNL     1      41.488 -30.684   3.076  1.00  0.00     0.056 A 
HETATM    5  C   UNL     1      41.151 -30.717   4.428  1.00  0.00     0.034 A 
HETATM    6  C   UNL     1      40.186 -31.616   4.902  1.00  0.00     0.031 A 
ENDROOT
BRANCH   4   7
HETATM    7  N   UNL     1      42.501 -29.873   2.550  1.00  0.00    -0.260 NA
HETATM    8  C   UNL     1      43.561 -30.425   2.060  1.00  0.00     0.131 C 
BRANCH   8   9
HETATM    9  C   UNL     1      44.592 -29.589   1.479  1.00  0.00     0.009 A 
HETATM   10  C   UNL     1      44.761 -29.244   0.099  1.00  0.00     0.004 A 
HETATM   11  C   UNL     1      45.875 -28.405   0.012  1.00  0.00     0.043 A 
HETATM   12  C   UNL     1      44.065 -29.555  -1.089  1.00  0.00     0.014 A 
HETATM   13  C   UNL     1      46.326 -27.865  -1.199  1.00  0.00     0.030 A 
HETATM   14  N   UNL     1      46.367 -28.250   1.285  1.00  0.00    -0.364 N 
HETATM   15  C   UNL     1      45.616 -28.187  -2.358  1.00  0.00     0.002 A 
HETATM   16  C   UNL     1      44.502 -29.020  -2.307  1.00  0.00     0.001 A 
HETATM   17  H   UNL     1      47.174 -27.689   1.524  1.00  0.00     0.165 HD
HETATM   18  C   UNL     1      45.604 -28.953   2.176  1.00  0.00     0.102 A 
ENDBRANCH   8   9
ENDBRANCH   4   7
BRANCH   1  19
HETATM   19  N   UNL     1      38.635 -33.446   4.577  1.00  0.00    -0.378 N 
HETATM   20  C   UNL     1      38.907 -34.889   4.531  1.00  0.00     0.150 C 
HETATM   21  C   UNL     1      38.147 -35.572   3.376  1.00  0.00     0.254 C 
HETATM   22  N   UNL     1      36.650 -35.248   3.455  1.00  0.00    -0.068 N 
HETATM   23  H   UNL     1      36.314 -35.581   4.368  1.00  0.00     0.280 HD
HETATM   24  C   UNL     1      36.444 -33.724   3.446  1.00  0.00     0.254 C 
HETATM   25  C   UNL     1      37.211 -33.065   4.613  1.00  0.00     0.150 C 
BRANCH  22  26
HETATM   26  C   UNL     1      35.831 -35.920   2.380  1.00  0.00     0.230 C 
HETATM   27  C   UNL     1      34.505 -35.208   2.188  1.00  0.00     0.034 C 
ENDBRANCH  22  26
ENDBRANCH   1  19
TORSDOF 4
ENDMDL
MODEL 9
REMARK VINA RESULT:      -7.1     17.445     19.704
REMARK  4 active torsions:
REMARK  status: ('A' for Active; 'I' for Inactive)
REMARK    1  A    between atoms: C_2  and  N_3 
REMARK    2  A    between atoms: N_7  and  C_8 
REMARK    3  A    between atoms: C_11  and  N_12 
REMARK    4  A    between atoms: C_13  and  C_14 
ROOT
HETATM    1  C   UNL     1      51.103 -32.081   5.913  1.00  0.00     0.030 A 
HETATM    2  C   UNL     1      49.789 -32.561   5.987  1.00  0.00     0.031 A 
HETATM    3  C   UNL     1      48.741 -31.937   5.295  1.00  0.00     0.034 A 
HETATM    4  C   UNL     1      48.969 -30.818   4.497  1.00  0.00     0.056 A 
HETATM    5  C   UNL     1      50.274 -30.338   4.397  1.00  0.00     0.034 A 
HETATM    6  C   UNL     1      51.317 -30.953   5.104  1.00  0.00     0.031 A 
ENDROOT
BRANCH   4   7
HETATM    7  N   UNL     1      47.898 -30.306   3.756  1.00  0.00    -0.260 NA
HETATM    8  C   UNL     1      48.118 -29.826   2.576  1.00  0.00     0.131 C 
BRANCH   8   9
HETATM    9  C   UNL     1      47.004 -29.332   1.792  1.00  0.00     0.009 A 
HETATM   10  C   UNL     1      47.016 -28.932   0.417  1.00  0.00     0.004 A 
HETATM   11  C   UNL     1      45.716 -28.545   0.084  1.00  0.00     0.043 A 
HETATM   12  C   UNL     1      48.008 -28.873  -0.587  1.00  0.00     0.014 A 
HETATM   13  C   UNL     1      45.359 -28.103  -1.196  1.00  0.00     0.030 A 
HETATM   14  N   UNL     1      44.945 -28.697   1.212  1.00  0.00    -0.364 N 
HETATM   15  C   UNL     1      46.359 -28.057  -2.169  1.00  0.00     0.002 A 
HETATM   16  C   UNL     1      47.666 -28.436  -1.872  1.00  0.00     0.001 A 
HETATM   17  H   UNL     1      43.956 -28.494   1.262  1.00  0.00     0.165 HD
HETATM   18  C   UNL     1      45.707 -29.172   2.243  1.00  0.00     0.102 A 
ENDBRANCH   8   9
ENDBRANCH   4   7
BRANCH   1  19
HETATM   19  N   UNL     1      52.178 -32.697   6.545  1.00  0.00    -0.378 N 
HETATM   20  C   UNL     1      51.964 -33.675   7.621  1.00  0.00     0.150 C 
HETATM   21  C   UNL     1      52.168 -33.041   9.011  1.00  0.00     0.254 C 
HETATM   22  N   UNL     1      53.537 -32.355   9.091  1.00  0.00    -0.068 N 
HETATM   23  H   UNL     1      54.249 -33.072   8.902  1.00  0.00     0.280 HD
HETATM   24  C   UNL     1      53.665 -31.312   7.969  1.00  0.00     0.254 C 
HETATM   25  C   UNL     1      53.460 -31.972   6.588  1.00  0.00     0.150 C 
BRANCH  22  26
HETATM   26  C   UNL     1      53.829 -31.748  10.442  1.00  0.00     0.230 C 
HETATM   27  C   UNL     1      54.772 -30.568  10.310  1.00  0.00     0.034 C 
ENDBRANCH  22  26
ENDBRANCH   1  19
TORSDOF 4
ENDMDL
MODEL 10
REMARK VINA RESULT:      -7.0      2.409      3.389
REMARK  4 active torsions:
REMARK  status: ('A' for Active; 'I' for Inactive)
REMARK    1  A    between atoms: C_2  and  N_3 
REMARK    2  A    between atoms: N_7  and  C_8 
REMARK    3  A    between atoms: C_11  and  N_12 
REMARK    4  A    between atoms: C_13  and  C_14 
ROOT
HETATM    1  C   UNL     1      43.851 -10.449   7.700  1.00  0.00     0.030 A 
HETATM    2  C   UNL     1      42.662 -10.159   7.019  1.00  0.00     0.031 A 
HETATM    3  C   UNL     1      42.107 -11.060   6.097  1.00  0.00     0.034 A 
HETATM    4  C   UNL     1      42.714 -12.285   5.831  1.00  0.00     0.056 A 
HETATM    5  C   UNL     1      43.888 -12.598   6.515  1.00  0.00     0.034 A 
HETATM    6  C   UNL     1      44.450 -11.689   7.423  1.00  0.00     0.031 A 
ENDROOT
BRANCH   4   7
HETATM    7  N   UNL     1      42.055 -13.177   4.977  1.00  0.00    -0.260 NA
HETATM    8  C   UNL     1      41.760 -12.800   3.777  1.00  0.00     0.131 C 
BRANCH   8   9
HETATM    9  C   UNL     1      41.113 -13.735   2.878  1.00  0.00     0.009 A 
HETATM   10  C   UNL     1      40.829 -13.551   1.486  1.00  0.00     0.004 A 
HETATM   11  C   UNL     1      40.216 -14.720   1.028  1.00  0.00     0.043 A 
HETATM   12  C   UNL     1      41.045 -12.505   0.563  1.00  0.00     0.014 A 
HETATM   13  C   UNL     1      39.809 -14.895  -0.300  1.00  0.00     0.030 A 
HETATM   14  N   UNL     1      40.125 -15.577   2.099  1.00  0.00    -0.364 N 
HETATM   15  C   UNL     1      40.038 -13.845  -1.192  1.00  0.00     0.002 A 
HETATM   16  C   UNL     1      40.647 -12.666  -0.769  1.00  0.00     0.001 A 
HETATM   17  H   UNL     1      39.724 -16.505   2.059  1.00  0.00     0.165 HD
HETATM   18  C   UNL     1      40.664 -14.998   3.214  1.00  0.00     0.102 A 
ENDBRANCH   8   9
ENDBRANCH   4   7
BRANCH   1  19
HETATM   19  N   UNL     1      44.409  -9.606   8.655  1.00  0.00    -0.378 N 
HETATM   20  C   UNL     1      45.108 -10.150   9.828  1.00  0.00     0.150 C 
HETATM   21  C   UNL     1      44.209 -10.133  11.081  1.00  0.00     0.254 C 
HETATM   22  N   UNL     1      43.648  -8.725  11.318  1.00  0.00    -0.068 N 
HETATM   23  H   UNL     1      44.451  -8.092  11.429  1.00  0.00     0.280 HD
HETATM   24  C   UNL     1      42.889  -8.248  10.069  1.00  0.00     0.254 C 
HETATM   25  C   UNL     1      43.810  -8.271   8.831  1.00  0.00     0.150 C 
BRANCH  22  26
HETATM   26  C   UNL     1      42.792  -8.620  12.556  1.00  0.00     0.230 C 
HETATM   27  C   UNL     1      43.330  -7.556  13.494  1.00  0.00     0.034 C 
ENDBRANCH  22  26
ENDBRANCH   1  19
TORSDOF 4
ENDMDL
