MODEL 1
REMARK VINA RESULT:      -8.3      0.000      0.000
REMARK  3 active torsions:
REMARK  status: ('A' for Active; 'I' for Inactive)
REMARK    1  A    between atoms: C_6  and  N_7 
REMARK       I    between atoms: N_7  and  C_8 
REMARK    2  A    between atoms: C_8  and  C_9 
REMARK    3  A    between atoms: C_9  and  C_10 
ROOT
HETATM    1  C   UNL     1      40.597 -14.269   4.031  1.00  0.00     0.286 C 
HETATM    2  N   UNL     1      41.600 -13.126   4.101  1.00  0.00    -0.056 N 
HETATM    3  H   UNL     1      42.528 -13.555   3.894  1.00  0.00     0.278 HD
HETATM    4  H   UNL     1      41.428 -12.446   3.352  1.00  0.00     0.278 HD
HETATM    5  C   UNL     1      41.615 -12.462   5.455  1.00  0.00     0.209 C 
HETATM    6  C   UNL     1      41.952 -13.520   6.539  1.00  0.00     0.115 C 
HETATM    7  N   UNL     1      41.137 -14.730   6.410  1.00  0.00    -0.353 N 
HETATM    8  C   UNL     1      40.725 -15.257   5.210  1.00  0.00     0.249 C 
HETATM    9  O   UNL     1      40.368 -16.427   5.142  1.00  0.00    -0.271 OA
HETATM   10  C   UNL     1      42.596 -11.291   5.432  1.00  0.00     0.035 C 
HETATM   11  C   UNL     1      44.059 -11.725   5.444  1.00  0.00     0.002 C 
HETATM   12  C   UNL     1      44.345 -12.679   6.596  1.00  0.00     0.002 C 
HETATM   13  C   UNL     1      43.439 -13.903   6.543  1.00  0.00     0.027 C 
HETATM   14  H   UNL     1      41.184 -15.419   7.159  1.00  0.00     0.163 HD
ENDROOT
BRANCH   1  15
HETATM   15  C   UNL     1      40.627 -14.984   2.674  1.00  0.00     0.146 C 
BRANCH  15  16
HETATM   16  C   UNL     1      41.890 -14.692   1.909  1.00  0.00     0.224 C 
HETATM   17  N   UNL     1      42.976 -15.507   1.948  1.00  0.00    -0.327 N 
HETATM   18  H   UNL     1      43.715 -15.162   1.340  1.00  0.00     0.169 HD
HETATM   19  O   UNL     1      41.904 -13.719   1.140  1.00  0.00    -0.273 OA
BRANCH  17  20
HETATM   20  C   UNL     1      43.283 -16.716   2.605  1.00  0.00     0.035 A 
HETATM   21  C   UNL     1      43.219 -17.997   2.054  1.00  0.00     0.037 A 
HETATM   22  C   UNL     1      43.550 -19.144   2.807  1.00  0.00    -0.054 A 
HETATM   23  C   UNL     1      43.992 -19.002   4.134  1.00  0.00    -0.056 A 
HETATM   24  C   UNL     1      43.442 -20.501   2.163  1.00  0.00     0.049 C 
HETATM   25  C   UNL     1      44.367 -20.190   4.978  1.00  0.00     0.049 C 
HETATM   26  C   UNL     1      44.044 -17.721   4.693  1.00  0.00     0.009 A 
HETATM   27  C   UNL     1      43.690 -16.599   3.941  1.00  0.00     0.030 A 
ENDBRANCH  17  20
ENDBRANCH  15  16
ENDBRANCH   1  15
TORSDOF 3
ENDMDL
MODEL 2
REMARK VINA RESULT:      -8.1      2.886      4.831
REMARK  3 active torsions:
REMARK  status: ('A' for Active; 'I' for Inactive)
REMARK    1  A    between atoms: C_6  and  N_7 
REMARK       I    between atoms: N_7  and  C_8 
REMARK    2  A    between atoms: C_8  and  C_9 
REMARK    3  A    between atoms: C_9  and  C_10 
ROOT
HETATM    1  C   UNL     1      39.824 -14.696   1.092  1.00  0.00     0.286 C 
HETATM    2  N   UNL     1      40.389 -14.580  -0.317  1.00  0.00    -0.056 N 
HETATM    3  H   UNL     1      41.310 -14.104  -0.211  1.00  0.00     0.278 HD
HETATM    4  H   UNL     1      40.592 -15.508  -0.705  1.00  0.00     0.278 HD
HETATM    5  C   UNL     1      39.487 -13.787  -1.229  1.00  0.00     0.209 C 
HETATM    6  C   UNL     1      39.274 -12.370  -0.633  1.00  0.00     0.115 C 
HETATM    7  N   UNL     1      38.903 -12.412   0.783  1.00  0.00    -0.353 N 
HETATM    8  C   UNL     1      39.379 -13.340   1.678  1.00  0.00     0.249 C 
HETATM    9  O   UNL     1      39.326 -13.118   2.882  1.00  0.00    -0.271 OA
HETATM   10  C   UNL     1      40.085 -13.764  -2.636  1.00  0.00     0.035 C 
HETATM   11  C   UNL     1      41.298 -12.847  -2.764  1.00  0.00     0.002 C 
HETATM   12  C   UNL     1      40.988 -11.444  -2.258  1.00  0.00     0.002 C 
HETATM   13  C   UNL     1      40.503 -11.467  -0.815  1.00  0.00     0.027 C 
HETATM   14  H   UNL     1      38.604 -11.543   1.223  1.00  0.00     0.163 HD
ENDROOT
BRANCH   1  15
HETATM   15  C   UNL     1      40.772 -15.449   2.035  1.00  0.00     0.146 C 
BRANCH  15  16
HETATM   16  C   UNL     1      42.159 -14.865   2.027  1.00  0.00     0.224 C 
HETATM   17  N   UNL     1      43.247 -15.555   2.456  1.00  0.00    -0.327 N 
HETATM   18  H   UNL     1      44.097 -15.009   2.339  1.00  0.00     0.169 HD
HETATM   19  O   UNL     1      42.327 -13.745   1.521  1.00  0.00    -0.273 OA
BRANCH  17  20
HETATM   20  C   UNL     1      43.456 -16.847   2.983  1.00  0.00     0.035 A 
HETATM   21  C   UNL     1      43.424 -18.046   2.271  1.00  0.00     0.037 A 
HETATM   22  C   UNL     1      43.647 -19.288   2.902  1.00  0.00    -0.054 A 
HETATM   23  C   UNL     1      43.948 -19.327   4.275  1.00  0.00    -0.056 A 
HETATM   24  C   UNL     1      43.578 -20.551   2.084  1.00  0.00     0.049 C 
HETATM   25  C   UNL     1      44.205 -20.623   4.996  1.00  0.00     0.049 C 
HETATM   26  C   UNL     1      43.968 -18.128   4.994  1.00  0.00     0.009 A 
HETATM   27  C   UNL     1      43.721 -16.910   4.357  1.00  0.00     0.030 A 
ENDBRANCH  17  20
ENDBRANCH  15  16
ENDBRANCH   1  15
TORSDOF 3
ENDMDL
MODEL 3
REMARK VINA RESULT:      -8.1      2.143      3.607
REMARK  3 active torsions:
REMARK  status: ('A' for Active; 'I' for Inactive)
REMARK    1  A    between atoms: C_6  and  N_7 
REMARK       I    between atoms: N_7  and  C_8 
REMARK    2  A    between atoms: C_8  and  C_9 
REMARK    3  A    between atoms: C_9  and  C_10 
ROOT
HETATM    1  C   UNL     1      42.504 -13.964   5.993  1.00  0.00     0.286 C 
HETATM    2  N   UNL     1      43.655 -13.316   6.749  1.00  0.00    -0.056 N 
HETATM    3  H   UNL     1      43.263 -13.046   7.677  1.00  0.00     0.278 HD
HETATM    4  H   UNL     1      44.394 -14.001   6.942  1.00  0.00     0.278 HD
HETATM    5  C   UNL     1      44.199 -12.106   6.032  1.00  0.00     0.209 C 
HETATM    6  C   UNL     1      43.057 -11.074   5.834  1.00  0.00     0.115 C 
HETATM    7  N   UNL     1      41.848 -11.680   5.273  1.00  0.00    -0.353 N 
HETATM    8  C   UNL     1      41.420 -12.954   5.562  1.00  0.00     0.249 C 
HETATM    9  O   UNL     1      40.253 -13.271   5.362  1.00  0.00    -0.271 OA
HETATM   10  C   UNL     1      45.386 -11.547   6.815  1.00  0.00     0.035 C 
HETATM   11  C   UNL     1      44.980 -10.815   8.092  1.00  0.00     0.002 C 
HETATM   12  C   UNL     1      43.935  -9.744   7.809  1.00  0.00     0.002 C 
HETATM   13  C   UNL     1      42.704 -10.333   7.132  1.00  0.00     0.027 C 
HETATM   14  H   UNL     1      41.097 -11.059   4.975  1.00  0.00     0.163 HD
ENDROOT
BRANCH   1  15
HETATM   15  C   UNL     1      41.910 -15.157   6.753  1.00  0.00     0.146 C 
BRANCH  15  16
HETATM   16  C   UNL     1      42.959 -15.921   7.514  1.00  0.00     0.224 C 
HETATM   17  N   UNL     1      43.644 -16.963   6.974  1.00  0.00    -0.327 N 
HETATM   18  H   UNL     1      44.333 -17.327   7.627  1.00  0.00     0.169 HD
HETATM   19  O   UNL     1      43.277 -15.524   8.645  1.00  0.00    -0.273 OA
BRANCH  17  20
HETATM   20  C   UNL     1      43.631 -17.613   5.722  1.00  0.00     0.035 A 
HETATM   21  C   UNL     1      43.430 -17.011   4.479  1.00  0.00     0.037 A 
HETATM   22  C   UNL     1      43.436 -17.761   3.284  1.00  0.00    -0.054 A 
HETATM   23  C   UNL     1      43.690 -19.143   3.330  1.00  0.00    -0.056 A 
HETATM   24  C   UNL     1      43.192 -17.057   1.975  1.00  0.00     0.049 C 
HETATM   25  C   UNL     1      43.718 -19.988   2.086  1.00  0.00     0.049 C 
HETATM   26  C   UNL     1      43.878 -19.751   4.575  1.00  0.00     0.009 A 
HETATM   27  C   UNL     1      43.844 -18.997   5.751  1.00  0.00     0.030 A 
ENDBRANCH  17  20
ENDBRANCH  15  16
ENDBRANCH   1  15
TORSDOF 3
ENDMDL
MODEL 4
REMARK VINA RESULT:      -7.7      2.161      3.640
REMARK  3 active torsions:
REMARK  status: ('A' for Active; 'I' for Inactive)
REMARK    1  A    between atoms: C_6  and  N_7 
REMARK       I    between atoms: N_7  and  C_8 
REMARK    2  A    between atoms: C_8  and  C_9 
REMARK    3  A    between atoms: C_9  and  C_10 
ROOT
HETATM    1  C   UNL     1      40.323 -14.893   5.042  1.00  0.00     0.286 C 
HETATM    2  N   UNL     1      40.782 -14.955   3.592  1.00  0.00    -0.056 N 
HETATM    3  H   UNL     1      41.672 -14.414   3.557  1.00  0.00     0.278 HD
HETATM    4  H   UNL     1      41.024 -15.917   3.329  1.00  0.00     0.278 HD
HETATM    5  C   UNL     1      39.766 -14.364   2.647  1.00  0.00     0.209 C 
HETATM    6  C   UNL     1      39.494 -12.889   3.046  1.00  0.00     0.115 C 
HETATM    7  N   UNL     1      39.223 -12.740   4.477  1.00  0.00    -0.353 N 
HETATM    8  C   UNL     1      39.824 -13.493   5.458  1.00  0.00     0.249 C 
HETATM    9  O   UNL     1      39.836 -13.097   6.617  1.00  0.00    -0.271 OA
HETATM   10  C   UNL     1      40.265 -14.517   1.211  1.00  0.00     0.035 C 
HETATM   11  C   UNL     1      41.398 -13.558   0.857  1.00  0.00     0.002 C 
HETATM   12  C   UNL     1      41.024 -12.116   1.176  1.00  0.00     0.002 C 
HETATM   13  C   UNL     1      40.640 -11.951   2.641  1.00  0.00     0.027 C 
HETATM   14  H   UNL     1      38.894 -11.835   4.808  1.00  0.00     0.163 HD
ENDROOT
BRANCH   1  15
HETATM   15  C   UNL     1      41.383 -15.437   6.009  1.00  0.00     0.146 C 
BRANCH  15  16
HETATM   16  C   UNL     1      42.755 -14.896   5.706  1.00  0.00     0.224 C 
HETATM   17  N   UNL     1      43.668 -15.583   4.972  1.00  0.00    -0.327 N 
HETATM   18  H   UNL     1      44.519 -15.041   4.845  1.00  0.00     0.169 HD
HETATM   19  O   UNL     1      43.027 -13.739   6.061  1.00  0.00    -0.273 OA
BRANCH  17  20
HETATM   20  C   UNL     1      43.680 -16.841   4.333  1.00  0.00     0.035 A 
HETATM   21  C   UNL     1      43.983 -18.067   4.927  1.00  0.00     0.037 A 
HETATM   22  C   UNL     1      43.966 -19.271   4.190  1.00  0.00    -0.054 A 
HETATM   23  C   UNL     1      43.598 -19.251   2.833  1.00  0.00    -0.056 A 
HETATM   24  C   UNL     1      44.322 -20.560   4.881  1.00  0.00     0.049 C 
HETATM   25  C   UNL     1      43.553 -20.505   2.003  1.00  0.00     0.049 C 
HETATM   26  C   UNL     1      43.307 -18.022   2.232  1.00  0.00     0.009 A 
HETATM   27  C   UNL     1      43.353 -16.837   2.971  1.00  0.00     0.030 A 
ENDBRANCH  17  20
ENDBRANCH  15  16
ENDBRANCH   1  15
TORSDOF 3
ENDMDL
MODEL 5
REMARK VINA RESULT:      -7.6     14.265     16.645
REMARK  3 active torsions:
REMARK  status: ('A' for Active; 'I' for Inactive)
REMARK    1  A    between atoms: C_6  and  N_7 
REMARK       I    between atoms: N_7  and  C_8 
REMARK    2  A    between atoms: C_8  and  C_9 
REMARK    3  A    between atoms: C_9  and  C_10 
ROOT
HETATM    1  C   UNL     1      48.656 -29.952   0.292  1.00  0.00     0.286 C 
HETATM    2  N   UNL     1      48.304 -30.088   1.767  1.00  0.00    -0.056 N 
HETATM    3  H   UNL     1      48.740 -29.265   2.236  1.00  0.00     0.278 HD
HETATM    4  H   UNL     1      47.293 -29.994   1.909  1.00  0.00     0.278 HD
HETATM    5  C   UNL     1      48.827 -31.372   2.361  1.00  0.00     0.209 C 
HETATM    6  C   UNL     1      50.368 -31.428   2.183  1.00  0.00     0.115 C 
HETATM    7  N   UNL     1      50.782 -31.123   0.813  1.00  0.00    -0.353 N 
HETATM    8  C   UNL     1      50.148 -30.213   0.000  1.00  0.00     0.249 C 
HETATM    9  O   UNL     1      50.731 -29.744  -0.971  1.00  0.00    -0.271 OA
HETATM   10  C   UNL     1      48.386 -31.469   3.821  1.00  0.00     0.035 C 
HETATM   11  C   UNL     1      49.153 -30.532   4.749  1.00  0.00     0.002 C 
HETATM   12  C   UNL     1      50.658 -30.713   4.600  1.00  0.00     0.002 C 
HETATM   13  C   UNL     1      51.104 -30.499   3.160  1.00  0.00     0.027 C 
HETATM   14  H   UNL     1      51.759 -31.273   0.565  1.00  0.00     0.163 HD
ENDROOT
BRANCH   1  15
HETATM   15  C   UNL     1      48.179 -28.617  -0.296  1.00  0.00     0.146 C 
BRANCH  15  16
HETATM   16  C   UNL     1      46.888 -28.155   0.325  1.00  0.00     0.224 C 
HETATM   17  N   UNL     1      45.681 -28.338  -0.271  1.00  0.00    -0.327 N 
HETATM   18  H   UNL     1      44.926 -27.993   0.317  1.00  0.00     0.169 HD
HETATM   19  O   UNL     1      46.920 -27.674   1.467  1.00  0.00    -0.273 OA
BRANCH  17  20
HETATM   20  C   UNL     1      45.253 -28.920  -1.482  1.00  0.00     0.035 A 
HETATM   21  C   UNL     1      44.882 -30.252  -1.675  1.00  0.00     0.037 A 
HETATM   22  C   UNL     1      44.469 -30.730  -2.937  1.00  0.00    -0.054 A 
HETATM   23  C   UNL     1      44.388 -29.843  -4.025  1.00  0.00    -0.056 A 
HETATM   24  C   UNL     1      44.101 -32.182  -3.087  1.00  0.00     0.049 C 
HETATM   25  C   UNL     1      43.944 -30.297  -5.389  1.00  0.00     0.049 C 
HETATM   26  C   UNL     1      44.772 -28.511  -3.838  1.00  0.00     0.009 A 
HETATM   27  C   UNL     1      45.202 -28.061  -2.588  1.00  0.00     0.030 A 
ENDBRANCH  17  20
ENDBRANCH  15  16
ENDBRANCH   1  15
TORSDOF 3
ENDMDL
MODEL 6
REMARK VINA RESULT:      -7.6      2.990      5.311
REMARK  3 active torsions:
REMARK  status: ('A' for Active; 'I' for Inactive)
REMARK    1  A    between atoms: C_6  and  N_7 
REMARK       I    between atoms: N_7  and  C_8 
REMARK    2  A    between atoms: C_8  and  C_9 
REMARK    3  A    between atoms: C_9  and  C_10 
ROOT
HETATM    1  C   UNL     1      41.359 -12.891   1.755  1.00  0.00     0.286 C 
HETATM    2  N   UNL     1      40.879 -13.683   0.547  1.00  0.00    -0.056 N 
HETATM    3  H   UNL     1      41.714 -13.786  -0.069  1.00  0.00     0.278 HD
HETATM    4  H   UNL     1      40.608 -14.634   0.821  1.00  0.00     0.278 HD
HETATM    5  C   UNL     1      39.764 -12.982  -0.187  1.00  0.00     0.209 C 
HETATM    6  C   UNL     1      40.252 -11.581  -0.642  1.00  0.00     0.115 C 
HETATM    7  N   UNL     1      40.893 -10.835   0.444  1.00  0.00    -0.353 N 
HETATM    8  C   UNL     1      41.658 -11.413   1.428  1.00  0.00     0.249 C 
HETATM    9  O   UNL     1      42.443 -10.731   2.077  1.00  0.00    -0.271 OA
HETATM   10  C   UNL     1      39.293 -13.860  -1.347  1.00  0.00     0.035 C 
HETATM   11  C   UNL     1      40.270 -13.891  -2.519  1.00  0.00     0.002 C 
HETATM   12  C   UNL     1      40.625 -12.484  -2.983  1.00  0.00     0.002 C 
HETATM   13  C   UNL     1      41.203 -11.653  -1.845  1.00  0.00     0.027 C 
HETATM   14  H   UNL     1      41.117  -9.855   0.281  1.00  0.00     0.163 HD
ENDROOT
BRANCH   1  15
HETATM   15  C   UNL     1      42.535 -13.574   2.465  1.00  0.00     0.146 C 
BRANCH  15  16
HETATM   16  C   UNL     1      42.232 -13.864   3.910  1.00  0.00     0.224 C 
HETATM   17  N   UNL     1      42.344 -15.107   4.448  1.00  0.00    -0.327 N 
HETATM   18  H   UNL     1      42.132 -15.096   5.442  1.00  0.00     0.169 HD
HETATM   19  O   UNL     1      41.961 -12.915   4.661  1.00  0.00    -0.273 OA
BRANCH  17  20
HETATM   20  C   UNL     1      42.713 -16.372   3.947  1.00  0.00     0.035 A 
HETATM   21  C   UNL     1      43.435 -17.354   4.628  1.00  0.00     0.037 A 
HETATM   22  C   UNL     1      43.752 -18.590   4.027  1.00  0.00    -0.054 A 
HETATM   23  C   UNL     1      43.302 -18.867   2.724  1.00  0.00    -0.056 A 
HETATM   24  C   UNL     1      44.551 -19.602   4.806  1.00  0.00     0.049 C 
HETATM   25  C   UNL     1      43.603 -20.173   2.040  1.00  0.00     0.049 C 
HETATM   26  C   UNL     1      42.590 -17.881   2.034  1.00  0.00     0.009 A 
HETATM   27  C   UNL     1      42.306 -16.653   2.636  1.00  0.00     0.030 A 
ENDBRANCH  17  20
ENDBRANCH  15  16
ENDBRANCH   1  15
TORSDOF 3
ENDMDL
MODEL 7
REMARK VINA RESULT:      -7.4      2.320      6.590
REMARK  3 active torsions:
REMARK  status: ('A' for Active; 'I' for Inactive)
REMARK    1  A    between atoms: C_6  and  N_7 
REMARK       I    between atoms: N_7  and  C_8 
REMARK    2  A    between atoms: C_8  and  C_9 
REMARK    3  A    between atoms: C_9  and  C_10 
ROOT
HETATM    1  C   UNL     1      41.085 -13.422   4.608  1.00  0.00     0.286 C 
HETATM    2  N   UNL     1      42.143 -14.510   4.729  1.00  0.00    -0.056 N 
HETATM    3  H   UNL     1      42.759 -14.396   3.896  1.00  0.00     0.278 HD
HETATM    4  H   UNL     1      42.739 -14.347   5.548  1.00  0.00     0.278 HD
HETATM    5  C   UNL     1      41.538 -15.892   4.754  1.00  0.00     0.209 C 
HETATM    6  C   UNL     1      40.710 -16.110   3.460  1.00  0.00     0.115 C 
HETATM    7  N   UNL     1      39.795 -14.999   3.190  1.00  0.00    -0.353 N 
HETATM    8  C   UNL     1      40.078 -13.683   3.469  1.00  0.00     0.249 C 
HETATM    9  O   UNL     1      39.455 -12.788   2.909  1.00  0.00    -0.271 OA
HETATM   10  C   UNL     1      42.649 -16.925   4.939  1.00  0.00     0.035 C 
HETATM   11  C   UNL     1      43.495 -17.137   3.686  1.00  0.00     0.002 C 
HETATM   12  C   UNL     1      42.625 -17.452   2.476  1.00  0.00     0.002 C 
HETATM   13  C   UNL     1      41.595 -16.356   2.230  1.00  0.00     0.027 C 
HETATM   14  H   UNL     1      39.110 -15.116   2.445  1.00  0.00     0.163 HD
ENDROOT
BRANCH   1  15
HETATM   15  C   UNL     1      41.705 -12.021   4.519  1.00  0.00     0.146 C 
BRANCH  15  16
HETATM   16  C   UNL     1      43.112 -12.057   3.988  1.00  0.00     0.224 C 
HETATM   17  N   UNL     1      44.183 -11.659   4.722  1.00  0.00    -0.327 N 
HETATM   18  H   UNL     1      45.050 -11.792   4.207  1.00  0.00     0.169 HD
HETATM   19  O   UNL     1      43.310 -12.559   2.871  1.00  0.00    -0.273 OA
BRANCH  17  20
HETATM   20  C   UNL     1      44.355 -11.147   6.025  1.00  0.00     0.035 A 
HETATM   21  C   UNL     1      43.370 -10.558   6.819  1.00  0.00     0.037 A 
HETATM   22  C   UNL     1      43.654 -10.076   8.114  1.00  0.00    -0.054 A 
HETATM   23  C   UNL     1      44.948 -10.222   8.644  1.00  0.00    -0.056 A 
HETATM   24  C   UNL     1      42.553  -9.431   8.915  1.00  0.00     0.049 C 
HETATM   25  C   UNL     1      45.302  -9.735  10.023  1.00  0.00     0.049 C 
HETATM   26  C   UNL     1      45.940 -10.799   7.846  1.00  0.00     0.009 A 
HETATM   27  C   UNL     1      45.647 -11.249   6.556  1.00  0.00     0.030 A 
ENDBRANCH  17  20
ENDBRANCH  15  16
ENDBRANCH   1  15
TORSDOF 3
ENDMDL
MODEL 8
REMARK VINA RESULT:      -7.2      3.309      5.224
REMARK  3 active torsions:
REMARK  status: ('A' for Active; 'I' for Inactive)
REMARK    1  A    between atoms: C_6  and  N_7 
REMARK       I    between atoms: N_7  and  C_8 
REMARK    2  A    between atoms: C_8  and  C_9 
REMARK    3  A    between atoms: C_9  and  C_10 
ROOT
HETATM    1  C   UNL     1      40.871 -13.668   1.025  1.00  0.00     0.286 C 
HETATM    2  N   UNL     1      40.610 -12.302   0.406  1.00  0.00    -0.056 N 
HETATM    3  H   UNL     1      39.651 -12.034   0.714  1.00  0.00     0.278 HD
HETATM    4  H   UNL     1      41.242 -11.597   0.802  1.00  0.00     0.278 HD
HETATM    5  C   UNL     1      40.693 -12.333  -1.099  1.00  0.00     0.209 C 
HETATM    6  C   UNL     1      39.665 -13.360  -1.646  1.00  0.00     0.115 C 
HETATM    7  N   UNL     1      39.746 -14.650  -0.958  1.00  0.00    -0.353 N 
HETATM    8  C   UNL     1      40.038 -14.794   0.377  1.00  0.00     0.249 C 
HETATM    9  O   UNL     1      39.745 -15.829   0.963  1.00  0.00    -0.271 OA
HETATM   10  C   UNL     1      40.482 -10.922  -1.646  1.00  0.00     0.035 C 
HETATM   11  C   UNL     1      39.032 -10.452  -1.569  1.00  0.00     0.002 C 
HETATM   12  C   UNL     1      38.088 -11.457  -2.218  1.00  0.00     0.002 C 
HETATM   13  C   UNL     1      38.223 -12.836  -1.586  1.00  0.00     0.027 C 
HETATM   14  H   UNL     1      39.213 -15.429  -1.341  1.00  0.00     0.163 HD
ENDROOT
BRANCH   1  15
HETATM   15  C   UNL     1      40.725 -13.649   2.553  1.00  0.00     0.146 C 
BRANCH  15  16
HETATM   16  C   UNL     1      41.914 -13.020   3.226  1.00  0.00     0.224 C 
HETATM   17  N   UNL     1      42.887 -13.751   3.830  1.00  0.00    -0.327 N 
HETATM   18  H   UNL     1      43.623 -13.151   4.195  1.00  0.00     0.169 HD
HETATM   19  O   UNL     1      42.059 -11.791   3.145  1.00  0.00    -0.273 OA
BRANCH  17  20
HETATM   20  C   UNL     1      43.111 -15.130   4.026  1.00  0.00     0.035 A 
HETATM   21  C   UNL     1      43.043 -16.126   3.051  1.00  0.00     0.037 A 
HETATM   22  C   UNL     1      43.287 -17.481   3.359  1.00  0.00    -0.054 A 
HETATM   23  C   UNL     1      43.646 -17.844   4.669  1.00  0.00    -0.056 A 
HETATM   24  C   UNL     1      43.178 -18.513   2.267  1.00  0.00     0.049 C 
HETATM   25  C   UNL     1      43.926 -19.272   5.050  1.00  0.00     0.049 C 
HETATM   26  C   UNL     1      43.702 -16.850   5.651  1.00  0.00     0.009 A 
HETATM   27  C   UNL     1      43.434 -15.516   5.333  1.00  0.00     0.030 A 
ENDBRANCH  17  20
ENDBRANCH  15  16
ENDBRANCH   1  15
TORSDOF 3
ENDMDL
MODEL 9
REMARK VINA RESULT:      -7.1      3.272      4.654
REMARK  3 active torsions:
REMARK  status: ('A' for Active; 'I' for Inactive)
REMARK    1  A    between atoms: C_6  and  N_7 
REMARK       I    between atoms: N_7  and  C_8 
REMARK    2  A    between atoms: C_8  and  C_9 
REMARK    3  A    between atoms: C_9  and  C_10 
ROOT
HETATM    1  C   UNL     1      43.898 -11.137   6.171  1.00  0.00     0.286 C 
HETATM    2  N   UNL     1      44.858 -10.862   7.319  1.00  0.00    -0.056 N 
HETATM    3  H   UNL     1      44.562 -11.498   8.091  1.00  0.00     0.278 HD
HETATM    4  H   UNL     1      45.813 -11.143   7.070  1.00  0.00     0.278 HD
HETATM    5  C   UNL     1      44.808  -9.424   7.772  1.00  0.00     0.209 C 
HETATM    6  C   UNL     1      43.360  -9.076   8.207  1.00  0.00     0.115 C 
HETATM    7  N   UNL     1      42.366  -9.485   7.214  1.00  0.00    -0.353 N 
HETATM    8  C   UNL     1      42.470 -10.616   6.440  1.00  0.00     0.249 C 
HETATM    9  O   UNL     1      41.475 -11.091   5.905  1.00  0.00    -0.271 OA
HETATM   10  C   UNL     1      45.838  -9.208   8.881  1.00  0.00     0.035 C 
HETATM   11  C   UNL     1      45.426  -9.818  10.218  1.00  0.00     0.002 C 
HETATM   12  C   UNL     1      44.037  -9.351  10.637  1.00  0.00     0.002 C 
HETATM   13  C   UNL     1      42.997  -9.676   9.573  1.00  0.00     0.027 C 
HETATM   14  H   UNL     1      41.405  -9.172   7.343  1.00  0.00     0.163 HD
ENDROOT
BRANCH   1  15
HETATM   15  C   UNL     1      43.904 -12.614   5.753  1.00  0.00     0.146 C 
BRANCH  15  16
HETATM   16  C   UNL     1      43.573 -13.528   6.901  1.00  0.00     0.224 C 
HETATM   17  N   UNL     1      43.276 -14.842   6.731  1.00  0.00    -0.327 N 
HETATM   18  H   UNL     1      43.117 -15.301   7.624  1.00  0.00     0.169 HD
HETATM   19  O   UNL     1      43.669 -13.086   8.056  1.00  0.00    -0.273 OA
BRANCH  17  20
HETATM   20  C   UNL     1      43.175 -15.697   5.613  1.00  0.00     0.035 A 
HETATM   21  C   UNL     1      42.278 -15.568   4.551  1.00  0.00     0.037 A 
HETATM   22  C   UNL     1      42.264 -16.486   3.479  1.00  0.00    -0.054 A 
HETATM   23  C   UNL     1      43.197 -17.537   3.450  1.00  0.00    -0.056 A 
HETATM   24  C   UNL     1      41.259 -16.306   2.372  1.00  0.00     0.049 C 
HETATM   25  C   UNL     1      43.232 -18.538   2.327  1.00  0.00     0.049 C 
HETATM   26  C   UNL     1      44.087 -17.677   4.519  1.00  0.00     0.009 A 
HETATM   27  C   UNL     1      44.071 -16.773   5.584  1.00  0.00     0.030 A 
ENDBRANCH  17  20
ENDBRANCH  15  16
ENDBRANCH   1  15
TORSDOF 3
ENDMDL
MODEL 10
REMARK VINA RESULT:      -6.9      3.207      5.620
REMARK  3 active torsions:
REMARK  status: ('A' for Active; 'I' for Inactive)
REMARK    1  A    between atoms: C_6  and  N_7 
REMARK       I    between atoms: N_7  and  C_8 
REMARK    2  A    between atoms: C_8  and  C_9 
REMARK    3  A    between atoms: C_9  and  C_10 
ROOT
HETATM    1  C   UNL     1      40.649 -14.042   4.117  1.00  0.00     0.286 C 
HETATM    2  N   UNL     1      41.779 -13.939   5.130  1.00  0.00    -0.056 N 
HETATM    3  H   UNL     1      42.659 -13.940   4.570  1.00  0.00     0.278 HD
HETATM    4  H   UNL     1      41.752 -13.036   5.615  1.00  0.00     0.278 HD
HETATM    5  C   UNL     1      41.775 -15.089   6.107  1.00  0.00     0.209 C 
HETATM    6  C   UNL     1      41.894 -16.424   5.325  1.00  0.00     0.115 C 
HETATM    7  N   UNL     1      40.945 -16.505   4.213  1.00  0.00    -0.353 N 
HETATM    8  C   UNL     1      40.562 -15.430   3.448  1.00  0.00     0.249 C 
HETATM    9  O   UNL     1      40.066 -15.608   2.341  1.00  0.00    -0.271 OA
HETATM   10  C   UNL     1      42.895 -14.888   7.128  1.00  0.00     0.035 C 
HETATM   11  C   UNL     1      44.287 -15.156   6.561  1.00  0.00     0.002 C 
HETATM   12  C   UNL     1      44.363 -16.527   5.901  1.00  0.00     0.002 C 
HETATM   13  C   UNL     1      43.317 -16.675   4.804  1.00  0.00     0.027 C 
HETATM   14  H   UNL     1      40.849 -17.398   3.732  1.00  0.00     0.163 HD
ENDROOT
BRANCH   1  15
HETATM   15  C   UNL     1      40.691 -12.907   3.085  1.00  0.00     0.146 C 
BRANCH  15  16
HETATM   16  C   UNL     1      41.861 -13.038   2.148  1.00  0.00     0.224 C 
HETATM   17  N   UNL     1      41.715 -13.132   0.801  1.00  0.00    -0.327 N 
HETATM   18  H   UNL     1      42.618 -13.176   0.336  1.00  0.00     0.169 HD
HETATM   19  O   UNL     1      43.006 -12.962   2.617  1.00  0.00    -0.273 OA
BRANCH  17  20
HETATM   20  C   UNL     1      40.610 -13.146  -0.076  1.00  0.00     0.035 A 
HETATM   21  C   UNL     1      40.203 -14.214  -0.877  1.00  0.00     0.037 A 
HETATM   22  C   UNL     1      39.078 -14.118  -1.722  1.00  0.00    -0.054 A 
HETATM   23  C   UNL     1      38.316 -12.936  -1.737  1.00  0.00    -0.056 A 
HETATM   24  C   UNL     1      38.701 -15.298  -2.579  1.00  0.00     0.049 C 
HETATM   25  C   UNL     1      37.101 -12.784  -2.611  1.00  0.00     0.049 C 
HETATM   26  C   UNL     1      38.729 -11.860  -0.945  1.00  0.00     0.009 A 
HETATM   27  C   UNL     1      39.860 -11.964  -0.133  1.00  0.00     0.030 A 
ENDBRANCH  17  20
ENDBRANCH  15  16
ENDBRANCH   1  15
TORSDOF 3
ENDMDL
