MODEL 1
REMARK VINA RESULT:      -8.3      0.000      0.000
REMARK  4 active torsions:
REMARK  status: ('A' for Active; 'I' for Inactive)
REMARK    1  A    between atoms: C_4  and  C_5 
REMARK    2  A    between atoms: C_8  and  C_9 
REMARK       I    between atoms: C_9  and  N_10 
REMARK    3  A    between atoms: N_10  and  C_11 
REMARK    4  A    between atoms: C_14  and  N_15 
ROOT
HETATM    1  C   UNL     1      41.420 -13.346   1.144  1.00  0.00     0.252 C 
HETATM    2  N   UNL     1      41.026 -13.174  -0.171  1.00  0.00    -0.352 N 
HETATM    3  O   UNL     1      41.465 -12.432   1.960  1.00  0.00    -0.268 OA
HETATM    4  H   UNL     1      41.254 -13.950  -0.781  1.00  0.00     0.163 HD
ENDROOT
BRANCH   1   5
HETATM    5  C   UNL     1      41.819 -14.723   1.569  1.00  0.00     0.032 A 
HETATM    6  C   UNL     1      40.912 -15.683   2.034  1.00  0.00     0.018 A 
HETATM    7  C   UNL     1      41.361 -16.966   2.380  1.00  0.00     0.015 A 
HETATM    8  C   UNL     1      42.718 -17.314   2.289  1.00  0.00    -0.002 A 
HETATM    9  C   UNL     1      43.621 -16.336   1.852  1.00  0.00     0.015 A 
HETATM   10  C   UNL     1      43.178 -15.057   1.497  1.00  0.00     0.018 A 
BRANCH   8  11
HETATM   11  C   UNL     1      43.186 -18.654   2.633  1.00  0.00     0.086 A 
HETATM   12  O   UNL     1      43.581 -18.846   3.929  1.00  0.00    -0.315 OA
HETATM   13  C   UNL     1      43.953 -20.150   4.055  1.00  0.00     0.050 A 
HETATM   14  C   UNL     1      44.408 -20.585   5.391  1.00  0.00     0.076 C 
HETATM   15  C   UNL     1      43.813 -20.801   2.851  1.00  0.00     0.035 A 
HETATM   16  C   UNL     1      43.318 -19.841   1.936  1.00  0.00     0.040 A 
ENDBRANCH   8  11
ENDBRANCH   1   5
BRANCH   2  17
HETATM   17  C   UNL     1      40.928 -11.888  -0.870  1.00  0.00     0.084 C 
HETATM   18  C   UNL     1      41.066 -12.136  -2.383  1.00  0.00     0.027 C 
HETATM   19  C   UNL     1      39.817 -12.803  -2.974  1.00  0.00     0.035 C 
HETATM   20  C   UNL     1      38.515 -12.070  -2.646  1.00  0.00     0.183 C 
HETATM   21  C   UNL     1      38.398 -11.692  -1.172  1.00  0.00     0.035 C 
HETATM   22  C   UNL     1      39.669 -11.038  -0.627  1.00  0.00     0.027 C 
BRANCH  20  23
HETATM   23  N   UNL     1      38.429 -10.827  -3.471  1.00  0.00    -0.075 N 
HETATM   24  H   UNL     1      39.057 -10.837  -4.283  1.00  0.00     0.274 HD
HETATM   25  H   UNL     1      37.473 -10.675  -3.819  1.00  0.00     0.274 HD
HETATM   26  H   UNL     1      38.675 -10.001  -2.909  1.00  0.00     0.274 HD
ENDBRANCH  20  23
ENDBRANCH   2  17
TORSDOF 4
ENDMDL
MODEL 2
REMARK VINA RESULT:      -7.7      2.336      2.793
REMARK  4 active torsions:
REMARK  status: ('A' for Active; 'I' for Inactive)
REMARK    1  A    between atoms: C_4  and  C_5 
REMARK    2  A    between atoms: C_8  and  C_9 
REMARK       I    between atoms: C_9  and  N_10 
REMARK    3  A    between atoms: N_10  and  C_11 
REMARK    4  A    between atoms: C_14  and  N_15 
ROOT
HETATM    1  C   UNL     1      42.728 -12.485   2.831  1.00  0.00     0.252 C 
HETATM    2  N   UNL     1      41.458 -12.056   2.486  1.00  0.00    -0.352 N 
HETATM    3  O   UNL     1      43.668 -11.724   3.026  1.00  0.00    -0.268 OA
HETATM    4  H   UNL     1      40.851 -12.786   2.135  1.00  0.00     0.163 HD
ENDROOT
BRANCH   1   5
HETATM    5  C   UNL     1      42.946 -13.960   2.955  1.00  0.00     0.032 A 
HETATM    6  C   UNL     1      42.969 -14.638   4.180  1.00  0.00     0.018 A 
HETATM    7  C   UNL     1      43.144 -16.030   4.210  1.00  0.00     0.015 A 
HETATM    8  C   UNL     1      43.316 -16.770   3.030  1.00  0.00    -0.002 A 
HETATM    9  C   UNL     1      43.321 -16.077   1.812  1.00  0.00     0.015 A 
HETATM   10  C   UNL     1      43.139 -14.690   1.775  1.00  0.00     0.018 A 
BRANCH   8  11
HETATM   11  C   UNL     1      43.481 -18.221   3.057  1.00  0.00     0.086 A 
HETATM   12  O   UNL     1      43.913 -18.761   4.238  1.00  0.00    -0.315 OA
HETATM   13  C   UNL     1      43.978 -20.111   4.072  1.00  0.00     0.050 A 
HETATM   14  C   UNL     1      44.413 -20.904   5.239  1.00  0.00     0.076 C 
HETATM   15  C   UNL     1      43.602 -20.450   2.792  1.00  0.00     0.035 A 
HETATM   16  C   UNL     1      43.280 -19.235   2.139  1.00  0.00     0.040 A 
ENDBRANCH   8  11
ENDBRANCH   1   5
BRANCH   2  17
HETATM   17  C   UNL     1      41.118 -10.720   1.987  1.00  0.00     0.084 C 
HETATM   18  C   UNL     1      40.300 -10.869   0.691  1.00  0.00     0.027 C 
HETATM   19  C   UNL     1      38.876 -11.371   0.965  1.00  0.00     0.035 C 
HETATM   20  C   UNL     1      38.121 -10.545   2.008  1.00  0.00     0.183 C 
HETATM   21  C   UNL     1      38.948 -10.265   3.259  1.00  0.00     0.035 C 
HETATM   22  C   UNL     1      40.361  -9.775   2.937  1.00  0.00     0.027 C 
BRANCH  20  23
HETATM   23  N   UNL     1      37.710  -9.243   1.400  1.00  0.00    -0.075 N 
HETATM   24  H   UNL     1      37.043  -8.719   1.979  1.00  0.00     0.274 HD
HETATM   25  H   UNL     1      38.524  -8.634   1.236  1.00  0.00     0.274 HD
HETATM   26  H   UNL     1      37.264  -9.394   0.486  1.00  0.00     0.274 HD
ENDBRANCH  20  23
ENDBRANCH   2  17
TORSDOF 4
ENDMDL
MODEL 3
REMARK VINA RESULT:      -7.5      7.357      9.047
REMARK  4 active torsions:
REMARK  status: ('A' for Active; 'I' for Inactive)
REMARK    1  A    between atoms: C_4  and  C_5 
REMARK    2  A    between atoms: C_8  and  C_9 
REMARK       I    between atoms: C_9  and  N_10 
REMARK    3  A    between atoms: N_10  and  C_11 
REMARK    4  A    between atoms: C_14  and  N_15 
ROOT
HETATM    1  C   UNL     1      44.361 -11.416   7.770  1.00  0.00     0.252 C 
HETATM    2  N   UNL     1      43.452 -10.727   8.554  1.00  0.00    -0.352 N 
HETATM    3  O   UNL     1      45.576 -11.311   7.895  1.00  0.00    -0.268 OA
HETATM    4  H   UNL     1      42.505 -10.732   8.196  1.00  0.00     0.163 HD
ENDROOT
BRANCH   1   5
HETATM    5  C   UNL     1      43.813 -12.322   6.713  1.00  0.00     0.032 A 
HETATM    6  C   UNL     1      43.552 -11.911   5.401  1.00  0.00     0.018 A 
HETATM    7  C   UNL     1      43.070 -12.832   4.458  1.00  0.00     0.015 A 
HETATM    8  C   UNL     1      42.822 -14.169   4.805  1.00  0.00    -0.002 A 
HETATM    9  C   UNL     1      43.058 -14.562   6.128  1.00  0.00     0.015 A 
HETATM   10  C   UNL     1      43.546 -13.651   7.071  1.00  0.00     0.018 A 
BRANCH   8  11
HETATM   11  C   UNL     1      42.337 -15.133   3.821  1.00  0.00     0.086 A 
HETATM   12  O   UNL     1      43.098 -16.256   3.643  1.00  0.00    -0.315 OA
HETATM   13  C   UNL     1      42.473 -17.034   2.716  1.00  0.00     0.050 A 
HETATM   14  C   UNL     1      43.121 -18.317   2.377  1.00  0.00     0.076 C 
HETATM   15  C   UNL     1      41.319 -16.421   2.284  1.00  0.00     0.035 A 
HETATM   16  C   UNL     1      41.229 -15.199   2.996  1.00  0.00     0.040 A 
ENDBRANCH   8  11
ENDBRANCH   1   5
BRANCH   2  17
HETATM   17  C   UNL     1      43.759  -9.562   9.389  1.00  0.00     0.084 C 
HETATM   18  C   UNL     1      42.462  -8.766   9.623  1.00  0.00     0.027 C 
HETATM   19  C   UNL     1      41.511  -9.486  10.589  1.00  0.00     0.035 C 
HETATM   20  C   UNL     1      42.166  -9.885  11.913  1.00  0.00     0.183 C 
HETATM   21  C   UNL     1      43.519 -10.565  11.728  1.00  0.00     0.035 C 
HETATM   22  C   UNL     1      44.429  -9.817  10.751  1.00  0.00     0.027 C 
BRANCH  20  23
HETATM   23  N   UNL     1      42.350  -8.667  12.759  1.00  0.00    -0.075 N 
HETATM   24  H   UNL     1      41.821  -8.701  13.638  1.00  0.00     0.274 HD
HETATM   25  H   UNL     1      43.341  -8.524  12.997  1.00  0.00     0.274 HD
HETATM   26  H   UNL     1      42.043  -7.825  12.253  1.00  0.00     0.274 HD
ENDBRANCH  20  23
ENDBRANCH   2  17
TORSDOF 4
ENDMDL
MODEL 4
REMARK VINA RESULT:      -7.4      1.319      1.672
REMARK  4 active torsions:
REMARK  status: ('A' for Active; 'I' for Inactive)
REMARK    1  A    between atoms: C_4  and  C_5 
REMARK    2  A    between atoms: C_8  and  C_9 
REMARK       I    between atoms: C_9  and  N_10 
REMARK    3  A    between atoms: N_10  and  C_11 
REMARK    4  A    between atoms: C_14  and  N_15 
ROOT
HETATM    1  C   UNL     1      41.866 -12.412   1.783  1.00  0.00     0.252 C 
HETATM    2  N   UNL     1      40.934 -12.476   0.762  1.00  0.00    -0.352 N 
HETATM    3  O   UNL     1      42.332 -11.361   2.207  1.00  0.00    -0.268 OA
HETATM    4  H   UNL     1      40.812 -13.400   0.364  1.00  0.00     0.163 HD
ENDROOT
BRANCH   1   5
HETATM    5  C   UNL     1      42.324 -13.706   2.379  1.00  0.00     0.032 A 
HETATM    6  C   UNL     1      42.320 -13.969   3.754  1.00  0.00     0.018 A 
HETATM    7  C   UNL     1      42.733 -15.221   4.232  1.00  0.00     0.015 A 
HETATM    8  C   UNL     1      43.172 -16.228   3.357  1.00  0.00    -0.002 A 
HETATM    9  C   UNL     1      43.202 -15.943   1.986  1.00  0.00     0.015 A 
HETATM   10  C   UNL     1      42.783 -14.698   1.503  1.00  0.00     0.018 A 
BRANCH   8  11
HETATM   11  C   UNL     1      43.587 -17.538   3.851  1.00  0.00     0.086 A 
HETATM   12  O   UNL     1      43.467 -18.583   2.975  1.00  0.00    -0.315 OA
HETATM   13  C   UNL     1      43.923 -19.701   3.606  1.00  0.00     0.050 A 
HETATM   14  C   UNL     1      43.898 -20.958   2.831  1.00  0.00     0.076 C 
HETATM   15  C   UNL     1      44.327 -19.392   4.884  1.00  0.00     0.035 A 
HETATM   16  C   UNL     1      44.113 -18.001   5.043  1.00  0.00     0.040 A 
ENDBRANCH   8  11
ENDBRANCH   1   5
BRANCH   2  17
HETATM   17  C   UNL     1      40.615 -11.389  -0.169  1.00  0.00     0.084 C 
HETATM   18  C   UNL     1      41.130 -11.770  -1.569  1.00  0.00     0.027 C 
HETATM   19  C   UNL     1      40.280 -12.870  -2.216  1.00  0.00     0.035 C 
HETATM   20  C   UNL     1      38.782 -12.556  -2.240  1.00  0.00     0.183 C 
HETATM   21  C   UNL     1      38.257 -12.051  -0.900  1.00  0.00     0.035 C 
HETATM   22  C   UNL     1      39.141 -10.962  -0.290  1.00  0.00     0.027 C 
BRANCH  20  23
HETATM   23  N   UNL     1      38.514 -11.521  -3.284  1.00  0.00    -0.075 N 
HETATM   24  H   UNL     1      37.852 -10.798  -2.976  1.00  0.00     0.274 HD
HETATM   25  H   UNL     1      39.381 -11.047  -3.572  1.00  0.00     0.274 HD
HETATM   26  H   UNL     1      38.117 -11.953  -4.130  1.00  0.00     0.274 HD
ENDBRANCH  20  23
ENDBRANCH   2  17
TORSDOF 4
ENDMDL
MODEL 5
REMARK VINA RESULT:      -7.3      4.502      5.337
REMARK  4 active torsions:
REMARK  status: ('A' for Active; 'I' for Inactive)
REMARK    1  A    between atoms: C_4  and  C_5 
REMARK    2  A    between atoms: C_8  and  C_9 
REMARK       I    between atoms: C_9  and  N_10 
REMARK    3  A    between atoms: N_10  and  C_11 
REMARK    4  A    between atoms: C_14  and  N_15 
ROOT
HETATM    1  C   UNL     1      42.887 -12.400   6.342  1.00  0.00     0.252 C 
HETATM    2  N   UNL     1      41.573 -11.964   6.369  1.00  0.00    -0.352 N 
HETATM    3  O   UNL     1      43.834 -11.714   6.709  1.00  0.00    -0.268 OA
HETATM    4  H   UNL     1      40.932 -12.534   5.831  1.00  0.00     0.163 HD
ENDROOT
BRANCH   1   5
HETATM    5  C   UNL     1      43.143 -13.779   5.822  1.00  0.00     0.032 A 
HETATM    6  C   UNL     1      43.765 -14.785   6.571  1.00  0.00     0.018 A 
HETATM    7  C   UNL     1      43.938 -16.065   6.024  1.00  0.00     0.015 A 
HETATM    8  C   UNL     1      43.514 -16.364   4.719  1.00  0.00    -0.002 A 
HETATM    9  C   UNL     1      42.922 -15.341   3.968  1.00  0.00     0.015 A 
HETATM   10  C   UNL     1      42.739 -14.065   4.511  1.00  0.00     0.018 A 
BRANCH   8  11
HETATM   11  C   UNL     1      43.678 -17.700   4.153  1.00  0.00     0.086 A 
HETATM   12  O   UNL     1      43.892 -18.716   5.044  1.00  0.00    -0.315 OA
HETATM   13  C   UNL     1      43.992 -19.873   4.332  1.00  0.00     0.050 A 
HETATM   14  C   UNL     1      44.213 -21.112   5.103  1.00  0.00     0.076 C 
HETATM   15  C   UNL     1      43.855 -19.614   2.987  1.00  0.00     0.035 A 
HETATM   16  C   UNL     1      43.650 -18.218   2.871  1.00  0.00     0.040 A 
ENDBRANCH   8  11
ENDBRANCH   1   5
BRANCH   2  17
HETATM   17  C   UNL     1      41.142 -10.569   6.510  1.00  0.00     0.084 C 
HETATM   18  C   UNL     1      41.258  -9.875   5.141  1.00  0.00     0.027 C 
HETATM   19  C   UNL     1      40.172 -10.344   4.164  1.00  0.00     0.035 C 
HETATM   20  C   UNL     1      38.752 -10.236   4.724  1.00  0.00     0.183 C 
HETATM   21  C   UNL     1      38.624 -10.800   6.136  1.00  0.00     0.035 C 
HETATM   22  C   UNL     1      39.733 -10.312   7.071  1.00  0.00     0.027 C 
BRANCH  20  23
HETATM   23  N   UNL     1      38.336  -8.801   4.738  1.00  0.00    -0.075 N 
HETATM   24  H   UNL     1      38.019  -8.481   5.661  1.00  0.00     0.274 HD
HETATM   25  H   UNL     1      39.107  -8.186   4.443  1.00  0.00     0.274 HD
HETATM   26  H   UNL     1      37.562  -8.641   4.080  1.00  0.00     0.274 HD
ENDBRANCH  20  23
ENDBRANCH   2  17
TORSDOF 4
ENDMDL
MODEL 6
REMARK VINA RESULT:      -7.1      1.909      2.613
REMARK  4 active torsions:
REMARK  status: ('A' for Active; 'I' for Inactive)
REMARK    1  A    between atoms: C_4  and  C_5 
REMARK    2  A    between atoms: C_8  and  C_9 
REMARK       I    between atoms: C_9  and  N_10 
REMARK    3  A    between atoms: N_10  and  C_11 
REMARK    4  A    between atoms: C_14  and  N_15 
ROOT
HETATM    1  C   UNL     1      39.963 -14.174  -0.373  1.00  0.00     0.252 C 
HETATM    2  N   UNL     1      40.109 -12.804  -0.513  1.00  0.00    -0.352 N 
HETATM    3  O   UNL     1      39.273 -14.859  -1.119  1.00  0.00    -0.268 OA
HETATM    4  H   UNL     1      40.512 -12.342   0.293  1.00  0.00     0.163 HD
ENDROOT
BRANCH   1   5
HETATM    5  C   UNL     1      40.684 -14.830   0.762  1.00  0.00     0.032 A 
HETATM    6  C   UNL     1      40.125 -15.842   1.551  1.00  0.00     0.018 A 
HETATM    7  C   UNL     1      40.879 -16.433   2.575  1.00  0.00     0.015 A 
HETATM    8  C   UNL     1      42.193 -16.019   2.846  1.00  0.00    -0.002 A 
HETATM    9  C   UNL     1      42.731 -14.984   2.070  1.00  0.00     0.015 A 
HETATM   10  C   UNL     1      41.986 -14.397   1.042  1.00  0.00     0.018 A 
BRANCH   8  11
HETATM   11  C   UNL     1      42.986 -16.644   3.901  1.00  0.00     0.086 A 
HETATM   12  O   UNL     1      43.218 -17.987   3.773  1.00  0.00    -0.315 OA
HETATM   13  C   UNL     1      43.988 -18.373   4.828  1.00  0.00     0.050 A 
HETATM   14  C   UNL     1      44.373 -19.797   4.884  1.00  0.00     0.076 C 
HETATM   15  C   UNL     1      44.249 -17.295   5.643  1.00  0.00     0.035 A 
HETATM   16  C   UNL     1      43.607 -16.182   5.047  1.00  0.00     0.040 A 
ENDBRANCH   8  11
ENDBRANCH   1   5
BRANCH   2  17
HETATM   17  C   UNL     1      39.246 -11.934  -1.318  1.00  0.00     0.084 C 
HETATM   18  C   UNL     1      39.316 -10.505  -0.749  1.00  0.00     0.027 C 
HETATM   19  C   UNL     1      40.658  -9.828  -1.055  1.00  0.00     0.035 C 
HETATM   20  C   UNL     1      41.037  -9.856  -2.537  1.00  0.00     0.183 C 
HETATM   21  C   UNL     1      40.859 -11.232  -3.172  1.00  0.00     0.035 C 
HETATM   22  C   UNL     1      39.510 -11.870  -2.833  1.00  0.00     0.027 C 
BRANCH  20  23
HETATM   23  N   UNL     1      40.196  -8.870  -3.279  1.00  0.00    -0.075 N 
HETATM   24  H   UNL     1      39.228  -8.826  -2.938  1.00  0.00     0.274 HD
HETATM   25  H   UNL     1      40.590  -7.922  -3.218  1.00  0.00     0.274 HD
HETATM   26  H   UNL     1      40.153  -9.109  -4.279  1.00  0.00     0.274 HD
ENDBRANCH  20  23
ENDBRANCH   2  17
TORSDOF 4
ENDMDL
MODEL 7
REMARK VINA RESULT:      -7.0     14.270     16.711
REMARK  4 active torsions:
REMARK  status: ('A' for Active; 'I' for Inactive)
REMARK    1  A    between atoms: C_4  and  C_5 
REMARK    2  A    between atoms: C_8  and  C_9 
REMARK       I    between atoms: C_9  and  N_10 
REMARK    3  A    between atoms: N_10  and  C_11 
REMARK    4  A    between atoms: C_14  and  N_15 
ROOT
HETATM    1  C   UNL     1      47.794 -28.613   1.740  1.00  0.00     0.252 C 
HETATM    2  N   UNL     1      47.745 -28.910   0.389  1.00  0.00    -0.352 N 
HETATM    3  O   UNL     1      47.088 -27.764   2.271  1.00  0.00    -0.268 OA
HETATM    4  H   UNL     1      48.529 -29.456   0.052  1.00  0.00     0.163 HD
ENDROOT
BRANCH   1   5
HETATM    5  C   UNL     1      48.776 -29.372   2.576  1.00  0.00     0.032 A 
HETATM    6  C   UNL     1      50.099 -29.612   2.189  1.00  0.00     0.018 A 
HETATM    7  C   UNL     1      50.969 -30.302   3.046  1.00  0.00     0.015 A 
HETATM    8  C   UNL     1      50.537 -30.781   4.293  1.00  0.00    -0.002 A 
HETATM    9  C   UNL     1      49.203 -30.562   4.657  1.00  0.00     0.015 A 
HETATM   10  C   UNL     1      48.333 -29.866   3.810  1.00  0.00     0.018 A 
BRANCH   8  11
HETATM   11  C   UNL     1      51.445 -31.485   5.195  1.00  0.00     0.086 A 
HETATM   12  O   UNL     1      52.199 -30.705   6.029  1.00  0.00    -0.315 OA
HETATM   13  C   UNL     1      52.953 -31.538   6.800  1.00  0.00     0.050 A 
HETATM   14  C   UNL     1      53.841 -30.902   7.793  1.00  0.00     0.076 C 
HETATM   15  C   UNL     1      52.702 -32.849   6.465  1.00  0.00     0.035 A 
HETATM   16  C   UNL     1      51.731 -32.816   5.435  1.00  0.00     0.040 A 
ENDBRANCH   8  11
ENDBRANCH   1   5
BRANCH   2  17
HETATM   17  C   UNL     1      47.124 -28.075  -0.644  1.00  0.00     0.084 C 
HETATM   18  C   UNL     1      47.699 -28.476  -2.015  1.00  0.00     0.027 C 
HETATM   19  C   UNL     1      47.170 -29.837  -2.485  1.00  0.00     0.035 C 
HETATM   20  C   UNL     1      45.644 -29.944  -2.469  1.00  0.00     0.183 C 
HETATM   21  C   UNL     1      45.025 -29.435  -1.170  1.00  0.00     0.035 C 
HETATM   22  C   UNL     1      45.588 -28.080  -0.737  1.00  0.00     0.027 C 
BRANCH  20  23
HETATM   23  N   UNL     1      45.083 -29.160  -3.610  1.00  0.00    -0.075 N 
HETATM   24  H   UNL     1      44.059 -29.200  -3.664  1.00  0.00     0.274 HD
HETATM   25  H   UNL     1      45.353 -28.168  -3.550  1.00  0.00     0.274 HD
HETATM   26  H   UNL     1      45.448 -29.512  -4.506  1.00  0.00     0.274 HD
ENDBRANCH  20  23
ENDBRANCH   2  17
TORSDOF 4
ENDMDL
MODEL 8
REMARK VINA RESULT:      -6.9      7.197      9.054
REMARK  4 active torsions:
REMARK  status: ('A' for Active; 'I' for Inactive)
REMARK    1  A    between atoms: C_4  and  C_5 
REMARK    2  A    between atoms: C_8  and  C_9 
REMARK       I    between atoms: C_9  and  N_10 
REMARK    3  A    between atoms: N_10  and  C_11 
REMARK    4  A    between atoms: C_14  and  N_15 
ROOT
HETATM    1  C   UNL     1      45.083 -11.215   7.504  1.00  0.00     0.252 C 
HETATM    2  N   UNL     1      44.416 -10.702   8.603  1.00  0.00    -0.352 N 
HETATM    3  O   UNL     1      46.254 -10.963   7.247  1.00  0.00    -0.268 OA
HETATM    4  H   UNL     1      43.409 -10.804   8.566  1.00  0.00     0.163 HD
ENDROOT
BRANCH   1   5
HETATM    5  C   UNL     1      44.312 -12.113   6.589  1.00  0.00     0.032 A 
HETATM    6  C   UNL     1      43.785 -13.349   6.981  1.00  0.00     0.018 A 
HETATM    7  C   UNL     1      43.043 -14.118   6.072  1.00  0.00     0.015 A 
HETATM    8  C   UNL     1      42.825 -13.683   4.756  1.00  0.00    -0.002 A 
HETATM    9  C   UNL     1      43.383 -12.459   4.365  1.00  0.00     0.015 A 
HETATM   10  C   UNL     1      44.117 -11.684   5.270  1.00  0.00     0.018 A 
BRANCH   8  11
HETATM   11  C   UNL     1      42.038 -14.473   3.812  1.00  0.00     0.086 A 
HETATM   12  O   UNL     1      41.452 -13.786   2.785  1.00  0.00    -0.315 OA
HETATM   13  C   UNL     1      40.792 -14.692   2.009  1.00  0.00     0.050 A 
HETATM   14  C   UNL     1      40.091 -14.164   0.822  1.00  0.00     0.076 C 
HETATM   15  C   UNL     1      40.938 -15.957   2.531  1.00  0.00     0.035 A 
HETATM   16  C   UNL     1      41.741 -15.818   3.689  1.00  0.00     0.040 A 
ENDBRANCH   8  11
ENDBRANCH   1   5
BRANCH   2  17
HETATM   17  C   UNL     1      44.861  -9.564   9.413  1.00  0.00     0.084 C 
HETATM   18  C   UNL     1      44.568  -8.263   8.643  1.00  0.00     0.027 C 
HETATM   19  C   UNL     1      43.069  -7.938   8.612  1.00  0.00     0.035 C 
HETATM   20  C   UNL     1      42.413  -7.927   9.994  1.00  0.00     0.183 C 
HETATM   21  C   UNL     1      42.783  -9.141  10.840  1.00  0.00     0.035 C 
HETATM   22  C   UNL     1      44.285  -9.431  10.834  1.00  0.00     0.027 C 
BRANCH  20  23
HETATM   23  N   UNL     1      42.823  -6.688  10.724  1.00  0.00    -0.075 N 
HETATM   24  H   UNL     1      42.763  -6.782  11.744  1.00  0.00     0.274 HD
HETATM   25  H   UNL     1      43.789  -6.422  10.492  1.00  0.00     0.274 HD
HETATM   26  H   UNL     1      42.225  -5.895  10.456  1.00  0.00     0.274 HD
ENDBRANCH  20  23
ENDBRANCH   2  17
TORSDOF 4
ENDMDL
MODEL 9
REMARK VINA RESULT:      -6.9     15.119     17.607
REMARK  4 active torsions:
REMARK  status: ('A' for Active; 'I' for Inactive)
REMARK    1  A    between atoms: C_4  and  C_5 
REMARK    2  A    between atoms: C_8  and  C_9 
REMARK       I    between atoms: C_9  and  N_10 
REMARK    3  A    between atoms: N_10  and  C_11 
REMARK    4  A    between atoms: C_14  and  N_15 
ROOT
HETATM    1  C   UNL     1      47.658 -28.521   1.523  1.00  0.00     0.252 C 
HETATM    2  N   UNL     1      48.807 -29.201   1.888  1.00  0.00    -0.352 N 
HETATM    3  O   UNL     1      47.098 -27.705   2.245  1.00  0.00    -0.268 OA
HETATM    4  H   UNL     1      49.025 -29.999   1.303  1.00  0.00     0.163 HD
ENDROOT
BRANCH   1   5
HETATM    5  C   UNL     1      47.078 -28.823   0.177  1.00  0.00     0.032 A 
HETATM    6  C   UNL     1      47.713 -28.499  -1.028  1.00  0.00     0.018 A 
HETATM    7  C   UNL     1      47.120 -28.847  -2.251  1.00  0.00     0.015 A 
HETATM    8  C   UNL     1      45.881 -29.505  -2.300  1.00  0.00    -0.002 A 
HETATM    9  C   UNL     1      45.241 -29.796  -1.089  1.00  0.00     0.015 A 
HETATM   10  C   UNL     1      45.832 -29.459   0.134  1.00  0.00     0.018 A 
BRANCH   8  11
HETATM   11  C   UNL     1      45.269 -29.884  -3.571  1.00  0.00     0.086 A 
HETATM   12  O   UNL     1      46.011 -30.696  -4.385  1.00  0.00    -0.315 OA
HETATM   13  C   UNL     1      45.267 -30.955  -5.496  1.00  0.00     0.050 A 
HETATM   14  C   UNL     1      45.876 -31.833  -6.515  1.00  0.00     0.076 C 
HETATM   15  C   UNL     1      44.054 -30.310  -5.414  1.00  0.00     0.035 A 
HETATM   16  C   UNL     1      44.053 -29.623  -4.176  1.00  0.00     0.040 A 
ENDBRANCH   8  11
ENDBRANCH   1   5
BRANCH   2  17
HETATM   17  C   UNL     1      49.332 -29.314   3.252  1.00  0.00     0.084 C 
HETATM   18  C   UNL     1      48.275 -30.004   4.134  1.00  0.00     0.027 C 
HETATM   19  C   UNL     1      48.153 -31.501   3.821  1.00  0.00     0.035 C 
HETATM   20  C   UNL     1      49.487 -32.249   3.862  1.00  0.00     0.183 C 
HETATM   21  C   UNL     1      50.598 -31.529   3.104  1.00  0.00     0.035 C 
HETATM   22  C   UNL     1      50.676 -30.039   3.442  1.00  0.00     0.027 C 
BRANCH  20  23
HETATM   23  N   UNL     1      49.909 -32.424   5.285  1.00  0.00    -0.075 N 
HETATM   24  H   UNL     1      50.329 -31.578   5.689  1.00  0.00     0.274 HD
HETATM   25  H   UNL     1      49.113 -32.691   5.880  1.00  0.00     0.274 HD
HETATM   26  H   UNL     1      50.606 -33.177   5.367  1.00  0.00     0.274 HD
ENDBRANCH  20  23
ENDBRANCH   2  17
TORSDOF 4
ENDMDL
MODEL 10
REMARK VINA RESULT:      -6.8      8.156      9.866
REMARK  4 active torsions:
REMARK  status: ('A' for Active; 'I' for Inactive)
REMARK    1  A    between atoms: C_4  and  C_5 
REMARK    2  A    between atoms: C_8  and  C_9 
REMARK       I    between atoms: C_9  and  N_10 
REMARK    3  A    between atoms: N_10  and  C_11 
REMARK    4  A    between atoms: C_14  and  N_15 
ROOT
HETATM    1  C   UNL     1      43.489  -9.637   8.403  1.00  0.00     0.252 C 
HETATM    2  N   UNL     1      42.683  -9.794   9.518  1.00  0.00    -0.352 N 
HETATM    3  O   UNL     1      44.303  -8.730   8.282  1.00  0.00    -0.268 OA
HETATM    4  H   UNL     1      41.910 -10.436   9.387  1.00  0.00     0.163 HD
ENDROOT
BRANCH   1   5
HETATM    5  C   UNL     1      43.334 -10.631   7.296  1.00  0.00     0.032 A 
HETATM    6  C   UNL     1      42.395 -10.501   6.266  1.00  0.00     0.018 A 
HETATM    7  C   UNL     1      42.336 -11.459   5.243  1.00  0.00     0.015 A 
HETATM    8  C   UNL     1      43.194 -12.570   5.233  1.00  0.00    -0.002 A 
HETATM    9  C   UNL     1      44.108 -12.706   6.285  1.00  0.00     0.015 A 
HETATM   10  C   UNL     1      44.178 -11.749   7.304  1.00  0.00     0.018 A 
BRANCH   8  11
HETATM   11  C   UNL     1      43.146 -13.560   4.161  1.00  0.00     0.086 A 
HETATM   12  O   UNL     1      42.980 -14.864   4.543  1.00  0.00    -0.315 OA
HETATM   13  C   UNL     1      42.935 -15.621   3.412  1.00  0.00     0.050 A 
HETATM   14  C   UNL     1      42.746 -17.074   3.591  1.00  0.00     0.076 C 
HETATM   15  C   UNL     1      43.080 -14.822   2.301  1.00  0.00     0.035 A 
HETATM   16  C   UNL     1      43.213 -13.496   2.781  1.00  0.00     0.040 A 
ENDBRANCH   8  11
ENDBRANCH   1   5
BRANCH   2  17
HETATM   17  C   UNL     1      42.431  -8.771  10.537  1.00  0.00     0.084 C 
HETATM   18  C   UNL     1      40.912  -8.665  10.766  1.00  0.00     0.027 C 
HETATM   19  C   UNL     1      40.358  -9.876  11.528  1.00  0.00     0.035 C 
HETATM   20  C   UNL     1      41.099 -10.172  12.834  1.00  0.00     0.183 C 
HETATM   21  C   UNL     1      42.616 -10.159  12.675  1.00  0.00     0.035 C 
HETATM   22  C   UNL     1      43.120  -8.939  11.902  1.00  0.00     0.027 C 
BRANCH  20  23
HETATM   23  N   UNL     1      40.713  -9.156  13.860  1.00  0.00    -0.075 N 
HETATM   24  H   UNL     1      41.396  -9.071  14.621  1.00  0.00     0.274 HD
HETATM   25  H   UNL     1      40.598  -8.225  13.438  1.00  0.00     0.274 HD
HETATM   26  H   UNL     1      39.810  -9.399  14.289  1.00  0.00     0.274 HD
ENDBRANCH  20  23
ENDBRANCH   2  17
TORSDOF 4
ENDMDL
