MODEL 1
REMARK VINA RESULT:      -8.7      0.000      0.000
REMARK  7 active torsions:
REMARK  status: ('A' for Active; 'I' for Inactive)
REMARK    1  A    between atoms: O_2  and  C_3 
REMARK    2  A    between atoms: C_6  and  C_7 
REMARK    3  A    between atoms: C_11  and  C_12 
REMARK       I    between atoms: C_12  and  N_13 
REMARK    4  A    between atoms: N_13  and  N_14 
REMARK       I    between atoms: N_14  and  C_15 
REMARK    5  A    between atoms: C_15  and  C_16 
REMARK    6  A    between atoms: C_16  and  C_17 
REMARK    7  A    between atoms: C_17  and  C_18 
ROOT
HETATM    1  C   UNL     1      43.963 -11.734   7.529  1.00  0.00     0.288 C 
HETATM    2  N   UNL     1      42.946 -10.949   8.030  1.00  0.00    -0.262 N 
HETATM    3  O   UNL     1      45.132 -11.595   7.887  1.00  0.00    -0.264 OA
HETATM    4  H   UNL     1      41.966 -11.187   7.892  1.00  0.00     0.190 HD
ENDROOT
BRANCH   1   5
HETATM    5  C   UNL     1      43.552 -12.727   6.574  1.00  0.00     0.121 A 
HETATM    6  N   UNL     1      42.539 -12.506   5.684  1.00  0.00    -0.272 N 
HETATM    7  N   UNL     1      42.307 -13.529   4.848  1.00  0.00    -0.174 NA
HETATM    8  H   UNL     1      41.976 -11.665   5.597  1.00  0.00     0.189 HD
HETATM    9  C   UNL     1      43.189 -14.474   5.212  1.00  0.00     0.089 A 
HETATM   10  C   UNL     1      43.986 -14.007   6.295  1.00  0.00     0.071 A 
BRANCH   9  11
HETATM   11  C   UNL     1      43.270 -15.768   4.527  1.00  0.00    -0.005 A 
HETATM   12  C   UNL     1      42.776 -15.917   3.222  1.00  0.00     0.016 A 
HETATM   13  C   UNL     1      42.879 -17.140   2.545  1.00  0.00     0.037 A 
HETATM   14  C   UNL     1      43.476 -18.236   3.165  1.00  0.00     0.068 A 
HETATM   15  C   UNL     1      43.951 -18.102   4.470  1.00  0.00     0.037 A 
HETATM   16  C   UNL     1      43.853 -16.881   5.146  1.00  0.00     0.016 A 
BRANCH  14  17
HETATM   17  O   UNL     1      43.648 -19.477   2.618  1.00  0.00    -0.356 OA
HETATM   18  C   UNL     1      43.828 -20.557   3.525  1.00  0.00     0.210 C 
ENDBRANCH  14  17
ENDBRANCH   9  11
ENDBRANCH   1   5
BRANCH   2  19
HETATM   19  N   UNL     1      43.209 -10.103   9.120  1.00  0.00    -0.267 N 
HETATM   20  C   UNL     1      43.100  -8.745   8.888  1.00  0.00     0.236 C 
HETATM   21  O   UNL     1      42.934  -8.286   7.759  1.00  0.00    -0.272 OA
HETATM   22  H   UNL     1      43.083 -10.508  10.046  1.00  0.00     0.190 HD
BRANCH  20  23
HETATM   23  C   UNL     1      43.258  -7.904  10.135  1.00  0.00     0.109 C 
BRANCH  23  24
HETATM   24  C   UNL     1      43.784  -8.741  11.301  1.00  0.00     0.051 C 
BRANCH  24  25
HETATM   25  C   UNL     1      42.974  -8.564  12.559  1.00  0.00    -0.019 A 
HETATM   26  C   UNL     1      41.832  -9.335  12.793  1.00  0.00     0.122 A 
HETATM   27  F   UNL     1      41.450 -10.254  11.894  1.00  0.00    -0.206 F 
HETATM   28  C   UNL     1      41.071  -9.173  13.948  1.00  0.00     0.043 A 
HETATM   29  C   UNL     1      41.446  -8.220  14.893  1.00  0.00     0.003 A 
HETATM   30  C   UNL     1      42.581  -7.438  14.676  1.00  0.00     0.001 A 
HETATM   31  C   UNL     1      43.342  -7.608  13.516  1.00  0.00     0.010 A 
ENDBRANCH  24  25
ENDBRANCH  23  24
ENDBRANCH  20  23
ENDBRANCH   2  19
TORSDOF 7
ENDMDL
MODEL 2
REMARK VINA RESULT:      -8.7      1.387      2.039
REMARK  7 active torsions:
REMARK  status: ('A' for Active; 'I' for Inactive)
REMARK    1  A    between atoms: O_2  and  C_3 
REMARK    2  A    between atoms: C_6  and  C_7 
REMARK    3  A    between atoms: C_11  and  C_12 
REMARK       I    between atoms: C_12  and  N_13 
REMARK    4  A    between atoms: N_13  and  N_14 
REMARK       I    between atoms: N_14  and  C_15 
REMARK    5  A    between atoms: C_15  and  C_16 
REMARK    6  A    between atoms: C_16  and  C_17 
REMARK    7  A    between atoms: C_17  and  C_18 
ROOT
HETATM    1  C   UNL     1      42.372 -11.546   5.768  1.00  0.00     0.288 C 
HETATM    2  N   UNL     1      42.684 -11.700   7.102  1.00  0.00    -0.262 N 
HETATM    3  O   UNL     1      42.090 -10.449   5.286  1.00  0.00    -0.264 OA
HETATM    4  H   UNL     1      43.108 -12.553   7.459  1.00  0.00     0.190 HD
ENDROOT
BRANCH   1   5
HETATM    5  C   UNL     1      42.415 -12.753   4.989  1.00  0.00     0.121 A 
HETATM    6  N   UNL     1      41.844 -12.841   3.750  1.00  0.00    -0.272 N 
HETATM    7  N   UNL     1      42.003 -14.032   3.154  1.00  0.00    -0.174 NA
HETATM    8  H   UNL     1      41.339 -12.110   3.258  1.00  0.00     0.189 HD
HETATM    9  C   UNL     1      42.689 -14.770   4.041  1.00  0.00     0.089 A 
HETATM   10  C   UNL     1      42.963 -14.001   5.208  1.00  0.00     0.071 A 
BRANCH   9  11
HETATM   11  C   UNL     1      43.081 -16.156   3.765  1.00  0.00    -0.005 A 
HETATM   12  C   UNL     1      43.787 -16.901   4.720  1.00  0.00     0.016 A 
HETATM   13  C   UNL     1      44.139 -18.238   4.481  1.00  0.00     0.037 A 
HETATM   14  C   UNL     1      43.789 -18.848   3.278  1.00  0.00     0.068 A 
HETATM   15  C   UNL     1      43.104 -18.107   2.314  1.00  0.00     0.037 A 
HETATM   16  C   UNL     1      42.750 -16.775   2.553  1.00  0.00     0.016 A 
BRANCH  14  17
HETATM   17  O   UNL     1      44.059 -20.140   2.921  1.00  0.00    -0.356 OA
HETATM   18  C   UNL     1      43.547 -20.578   1.669  1.00  0.00     0.210 C 
ENDBRANCH  14  17
ENDBRANCH   9  11
ENDBRANCH   1   5
BRANCH   2  19
HETATM   19  N   UNL     1      42.881 -10.557   7.894  1.00  0.00    -0.267 N 
HETATM   20  C   UNL     1      44.153 -10.368   8.400  1.00  0.00     0.236 C 
HETATM   21  O   UNL     1      45.031 -11.223   8.298  1.00  0.00    -0.272 OA
HETATM   22  H   UNL     1      42.238  -9.781   7.735  1.00  0.00     0.190 HD
BRANCH  20  23
HETATM   23  C   UNL     1      44.327  -9.051   9.122  1.00  0.00     0.109 C 
BRANCH  23  24
HETATM   24  C   UNL     1      44.926  -9.260  10.513  1.00  0.00     0.051 C 
BRANCH  24  25
HETATM   25  C   UNL     1      43.890  -9.214  11.607  1.00  0.00    -0.019 A 
HETATM   26  C   UNL     1      43.217 -10.370  12.011  1.00  0.00     0.122 A 
HETATM   27  F   UNL     1      43.499 -11.545  11.427  1.00  0.00    -0.206 F 
HETATM   28  C   UNL     1      42.253 -10.336  13.015  1.00  0.00     0.043 A 
HETATM   29  C   UNL     1      41.942  -9.126  13.631  1.00  0.00     0.003 A 
HETATM   30  C   UNL     1      42.599  -7.959  13.239  1.00  0.00     0.001 A 
HETATM   31  C   UNL     1      43.568  -8.001  12.234  1.00  0.00     0.010 A 
ENDBRANCH  24  25
ENDBRANCH  23  24
ENDBRANCH  20  23
ENDBRANCH   2  19
TORSDOF 7
ENDMDL
MODEL 3
REMARK VINA RESULT:      -8.5      2.991     11.284
REMARK  7 active torsions:
REMARK  status: ('A' for Active; 'I' for Inactive)
REMARK    1  A    between atoms: O_2  and  C_3 
REMARK    2  A    between atoms: C_6  and  C_7 
REMARK    3  A    between atoms: C_11  and  C_12 
REMARK       I    between atoms: C_12  and  N_13 
REMARK    4  A    between atoms: N_13  and  N_14 
REMARK       I    between atoms: N_14  and  C_15 
REMARK    5  A    between atoms: C_15  and  C_16 
REMARK    6  A    between atoms: C_16  and  C_17 
REMARK    7  A    between atoms: C_17  and  C_18 
ROOT
HETATM    1  C   UNL     1      44.380 -11.218   7.882  1.00  0.00     0.288 C 
HETATM    2  N   UNL     1      43.567 -12.327   7.783  1.00  0.00    -0.262 N 
HETATM    3  O   UNL     1      45.320 -11.028   7.111  1.00  0.00    -0.264 OA
HETATM    4  H   UNL     1      42.680 -12.390   8.280  1.00  0.00     0.190 HD
ENDROOT
BRANCH   1   5
HETATM    5  C   UNL     1      44.039 -10.305   8.938  1.00  0.00     0.121 A 
HETATM    6  N   UNL     1      44.127  -8.950   8.785  1.00  0.00    -0.272 N 
HETATM    7  N   UNL     1      43.743  -8.248   9.862  1.00  0.00    -0.174 NA
HETATM    8  H   UNL     1      44.435  -8.448   7.958  1.00  0.00     0.189 HD
HETATM    9  C   UNL     1      43.406  -9.175  10.773  1.00  0.00     0.089 A 
HETATM   10  C   UNL     1      43.582 -10.479  10.229  1.00  0.00     0.071 A 
BRANCH   9  11
HETATM   11  C   UNL     1      42.916  -8.815  12.107  1.00  0.00    -0.005 A 
HETATM   12  C   UNL     1      41.850  -9.517  12.688  1.00  0.00     0.016 A 
HETATM   13  C   UNL     1      41.393  -9.204  13.976  1.00  0.00     0.037 A 
HETATM   14  C   UNL     1      41.997  -8.180  14.703  1.00  0.00     0.068 A 
HETATM   15  C   UNL     1      43.044  -7.463  14.123  1.00  0.00     0.037 A 
HETATM   16  C   UNL     1      43.503  -7.776  12.840  1.00  0.00     0.016 A 
BRANCH  14  17
HETATM   17  O   UNL     1      41.659  -7.779  15.965  1.00  0.00    -0.356 OA
HETATM   18  C   UNL     1      41.656  -6.379  16.213  1.00  0.00     0.210 C 
ENDBRANCH  14  17
ENDBRANCH   9  11
ENDBRANCH   1   5
BRANCH   2  19
HETATM   19  N   UNL     1      43.683 -13.162   6.659  1.00  0.00    -0.267 N 
HETATM   20  C   UNL     1      43.377 -14.496   6.847  1.00  0.00     0.236 C 
HETATM   21  O   UNL     1      43.164 -14.968   7.963  1.00  0.00    -0.272 OA
HETATM   22  H   UNL     1      43.602 -12.708   5.750  1.00  0.00     0.190 HD
BRANCH  20  23
HETATM   23  C   UNL     1      43.387 -15.305   5.569  1.00  0.00     0.109 C 
BRANCH  23  24
HETATM   24  C   UNL     1      43.597 -16.791   5.859  1.00  0.00     0.051 C 
BRANCH  24  25
HETATM   25  C   UNL     1      43.542 -17.642   4.617  1.00  0.00    -0.019 A 
HETATM   26  C   UNL     1      43.868 -19.000   4.659  1.00  0.00     0.122 A 
HETATM   27  F   UNL     1      44.227 -19.564   5.822  1.00  0.00    -0.206 F 
HETATM   28  C   UNL     1      43.829 -19.793   3.515  1.00  0.00     0.043 A 
HETATM   29  C   UNL     1      43.464 -19.225   2.296  1.00  0.00     0.003 A 
HETATM   30  C   UNL     1      43.140 -17.870   2.231  1.00  0.00     0.001 A 
HETATM   31  C   UNL     1      43.177 -17.081   3.384  1.00  0.00     0.010 A 
ENDBRANCH  24  25
ENDBRANCH  23  24
ENDBRANCH  20  23
ENDBRANCH   2  19
TORSDOF 7
ENDMDL
MODEL 4
REMARK VINA RESULT:      -8.3      2.839     10.902
REMARK  7 active torsions:
REMARK  status: ('A' for Active; 'I' for Inactive)
REMARK    1  A    between atoms: O_2  and  C_3 
REMARK    2  A    between atoms: C_6  and  C_7 
REMARK    3  A    between atoms: C_11  and  C_12 
REMARK       I    between atoms: C_12  and  N_13 
REMARK    4  A    between atoms: N_13  and  N_14 
REMARK       I    between atoms: N_14  and  C_15 
REMARK    5  A    between atoms: C_15  and  C_16 
REMARK    6  A    between atoms: C_16  and  C_17 
REMARK    7  A    between atoms: C_17  and  C_18 
ROOT
HETATM    1  C   UNL     1      44.271 -11.941   6.941  1.00  0.00     0.288 C 
HETATM    2  N   UNL     1      43.574 -13.100   7.210  1.00  0.00    -0.262 N 
HETATM    3  O   UNL     1      44.793 -11.733   5.846  1.00  0.00    -0.264 OA
HETATM    4  H   UNL     1      42.978 -13.190   8.030  1.00  0.00     0.190 HD
ENDROOT
BRANCH   1   5
HETATM    5  C   UNL     1      44.327 -10.998   8.025  1.00  0.00     0.121 A 
HETATM    6  N   UNL     1      45.510 -10.601   8.583  1.00  0.00    -0.272 N 
HETATM    7  N   UNL     1      45.378  -9.696   9.564  1.00  0.00    -0.174 NA
HETATM    8  H   UNL     1      46.441 -10.912   8.324  1.00  0.00     0.189 HD
HETATM    9  C   UNL     1      44.055  -9.500   9.675  1.00  0.00     0.089 A 
HETATM   10  C   UNL     1      43.362 -10.304   8.726  1.00  0.00     0.071 A 
BRANCH   9  11
HETATM   11  C   UNL     1      43.484  -8.560  10.645  1.00  0.00    -0.005 A 
HETATM   12  C   UNL     1      43.574  -8.813  12.021  1.00  0.00     0.016 A 
HETATM   13  C   UNL     1      43.062  -7.906  12.960  1.00  0.00     0.037 A 
HETATM   14  C   UNL     1      42.449  -6.730  12.533  1.00  0.00     0.068 A 
HETATM   15  C   UNL     1      42.337  -6.480  11.164  1.00  0.00     0.037 A 
HETATM   16  C   UNL     1      42.850  -7.383  10.227  1.00  0.00     0.016 A 
BRANCH  14  17
HETATM   17  O   UNL     1      41.918  -5.760  13.337  1.00  0.00    -0.356 OA
HETATM   18  C   UNL     1      40.586  -5.353  13.054  1.00  0.00     0.210 C 
ENDBRANCH  14  17
ENDBRANCH   9  11
ENDBRANCH   1   5
BRANCH   2  19
HETATM   19  N   UNL     1      43.279 -13.980   6.156  1.00  0.00    -0.267 N 
HETATM   20  C   UNL     1      41.955 -14.053   5.765  1.00  0.00     0.236 C 
HETATM   21  O   UNL     1      41.055 -13.501   6.396  1.00  0.00    -0.272 OA
HETATM   22  H   UNL     1      44.046 -14.197   5.521  1.00  0.00     0.190 HD
BRANCH  20  23
HETATM   23  C   UNL     1      41.733 -14.910   4.539  1.00  0.00     0.109 C 
BRANCH  23  24
HETATM   24  C   UNL     1      43.048 -15.174   3.805  1.00  0.00     0.051 C 
BRANCH  24  25
HETATM   25  C   UNL     1      43.320 -16.642   3.604  1.00  0.00    -0.019 A 
HETATM   26  C   UNL     1      44.060 -17.373   4.538  1.00  0.00     0.122 A 
HETATM   27  F   UNL     1      44.531 -16.766   5.637  1.00  0.00    -0.206 F 
HETATM   28  C   UNL     1      44.324 -18.727   4.355  1.00  0.00     0.043 A 
HETATM   29  C   UNL     1      43.848 -19.375   3.217  1.00  0.00     0.003 A 
HETATM   30  C   UNL     1      43.111 -18.663   2.271  1.00  0.00     0.001 A 
HETATM   31  C   UNL     1      42.847 -17.305   2.461  1.00  0.00     0.010 A 
ENDBRANCH  24  25
ENDBRANCH  23  24
ENDBRANCH  20  23
ENDBRANCH   2  19
TORSDOF 7
ENDMDL
MODEL 5
REMARK VINA RESULT:      -7.9      3.063     11.293
REMARK  7 active torsions:
REMARK  status: ('A' for Active; 'I' for Inactive)
REMARK    1  A    between atoms: O_2  and  C_3 
REMARK    2  A    between atoms: C_6  and  C_7 
REMARK    3  A    between atoms: C_11  and  C_12 
REMARK       I    between atoms: C_12  and  N_13 
REMARK    4  A    between atoms: N_13  and  N_14 
REMARK       I    between atoms: N_14  and  C_15 
REMARK    5  A    between atoms: C_15  and  C_16 
REMARK    6  A    between atoms: C_16  and  C_17 
REMARK    7  A    between atoms: C_17  and  C_18 
ROOT
HETATM    1  C   UNL     1      42.522  -9.790   8.278  1.00  0.00     0.288 C 
HETATM    2  N   UNL     1      43.145 -10.885   7.718  1.00  0.00    -0.262 N 
HETATM    3  O   UNL     1      41.916  -8.965   7.595  1.00  0.00    -0.264 OA
HETATM    4  H   UNL     1      43.470 -11.667   8.284  1.00  0.00     0.190 HD
ENDROOT
BRANCH   1   5
HETATM    5  C   UNL     1      42.622  -9.698   9.709  1.00  0.00     0.121 A 
HETATM    6  N   UNL     1      43.165 -10.696  10.467  1.00  0.00    -0.272 N 
HETATM    7  N   UNL     1      43.204 -10.431  11.781  1.00  0.00    -0.174 NA
HETATM    8  H   UNL     1      43.537 -11.581  10.134  1.00  0.00     0.189 HD
HETATM    9  C   UNL     1      42.645  -9.216  11.902  1.00  0.00     0.089 A 
HETATM   10  C   UNL     1      42.264  -8.725  10.621  1.00  0.00     0.071 A 
BRANCH   9  11
HETATM   11  C   UNL     1      42.503  -8.549  13.200  1.00  0.00    -0.005 A 
HETATM   12  C   UNL     1      43.322  -7.461  13.536  1.00  0.00     0.016 A 
HETATM   13  C   UNL     1      43.174  -6.794  14.760  1.00  0.00     0.037 A 
HETATM   14  C   UNL     1      42.204  -7.208  15.670  1.00  0.00     0.068 A 
HETATM   15  C   UNL     1      41.399  -8.304  15.352  1.00  0.00     0.037 A 
HETATM   16  C   UNL     1      41.544  -8.968  14.130  1.00  0.00     0.016 A 
BRANCH  14  17
HETATM   17  O   UNL     1      41.948  -6.644  16.888  1.00  0.00    -0.356 OA
HETATM   18  C   UNL     1      41.383  -7.492  17.880  1.00  0.00     0.210 C 
ENDBRANCH  14  17
ENDBRANCH   9  11
ENDBRANCH   1   5
BRANCH   2  19
HETATM   19  N   UNL     1      42.923 -11.180   6.363  1.00  0.00    -0.267 N 
HETATM   20  C   UNL     1      43.935 -11.849   5.703  1.00  0.00     0.236 C 
HETATM   21  O   UNL     1      45.035 -12.044   6.218  1.00  0.00    -0.272 OA
HETATM   22  H   UNL     1      41.949 -11.240   6.068  1.00  0.00     0.190 HD
BRANCH  20  23
HETATM   23  C   UNL     1      43.572 -12.257   4.292  1.00  0.00     0.109 C 
BRANCH  23  24
HETATM   24  C   UNL     1      42.409 -13.250   4.288  1.00  0.00     0.051 C 
BRANCH  24  25
HETATM   25  C   UNL     1      42.749 -14.542   3.592  1.00  0.00    -0.019 A 
HETATM   26  C   UNL     1      42.746 -14.631   2.197  1.00  0.00     0.122 A 
HETATM   27  F   UNL     1      42.446 -13.551   1.460  1.00  0.00    -0.206 F 
HETATM   28  C   UNL     1      43.049 -15.823   1.544  1.00  0.00     0.043 A 
HETATM   29  C   UNL     1      43.357 -16.959   2.291  1.00  0.00     0.003 A 
HETATM   30  C   UNL     1      43.361 -16.892   3.684  1.00  0.00     0.001 A 
HETATM   31  C   UNL     1      43.060 -15.692   4.333  1.00  0.00     0.010 A 
ENDBRANCH  24  25
ENDBRANCH  23  24
ENDBRANCH  20  23
ENDBRANCH   2  19
TORSDOF 7
ENDMDL
MODEL 6
REMARK VINA RESULT:      -7.8      8.130     11.897
REMARK  7 active torsions:
REMARK  status: ('A' for Active; 'I' for Inactive)
REMARK    1  A    between atoms: O_2  and  C_3 
REMARK    2  A    between atoms: C_6  and  C_7 
REMARK    3  A    between atoms: C_11  and  C_12 
REMARK       I    between atoms: C_12  and  N_13 
REMARK    4  A    between atoms: N_13  and  N_14 
REMARK       I    between atoms: N_14  and  C_15 
REMARK    5  A    between atoms: C_15  and  C_16 
REMARK    6  A    between atoms: C_16  and  C_17 
REMARK    7  A    between atoms: C_17  and  C_18 
ROOT
HETATM    1  C   UNL     1      40.568 -13.349   0.129  1.00  0.00     0.288 C 
HETATM    2  N   UNL     1      41.672 -13.950   0.695  1.00  0.00    -0.262 N 
HETATM    3  O   UNL     1      39.421 -13.632   0.474  1.00  0.00    -0.264 OA
HETATM    4  H   UNL     1      42.612 -13.583   0.562  1.00  0.00     0.190 HD
ENDROOT
BRANCH   1   5
HETATM    5  C   UNL     1      40.860 -12.365  -0.878  1.00  0.00     0.121 A 
HETATM    6  N   UNL     1      40.989 -12.692  -2.199  1.00  0.00    -0.272 N 
HETATM    7  N   UNL     1      41.234 -11.646  -3.003  1.00  0.00    -0.174 NA
HETATM    8  H   UNL     1      40.909 -13.617  -2.609  1.00  0.00     0.189 HD
HETATM    9  C   UNL     1      41.290 -10.587  -2.179  1.00  0.00     0.089 A 
HETATM   10  C   UNL     1      41.062 -11.001  -0.836  1.00  0.00     0.071 A 
BRANCH   9  11
HETATM   11  C   UNL     1      41.533  -9.228  -2.674  1.00  0.00    -0.005 A 
HETATM   12  C   UNL     1      42.340  -8.339  -1.949  1.00  0.00     0.016 A 
HETATM   13  C   UNL     1      42.607  -7.049  -2.427  1.00  0.00     0.037 A 
HETATM   14  C   UNL     1      42.066  -6.626  -3.640  1.00  0.00     0.068 A 
HETATM   15  C   UNL     1      41.245  -7.497  -4.357  1.00  0.00     0.037 A 
HETATM   16  C   UNL     1      40.981  -8.786  -3.882  1.00  0.00     0.016 A 
BRANCH  14  17
HETATM   17  O   UNL     1      42.253  -5.404  -4.223  1.00  0.00    -0.356 OA
HETATM   18  C   UNL     1      42.261  -5.369  -5.645  1.00  0.00     0.210 C 
ENDBRANCH  14  17
ENDBRANCH   9  11
ENDBRANCH   1   5
BRANCH   2  19
HETATM   19  N   UNL     1      41.501 -14.760   1.831  1.00  0.00    -0.267 N 
HETATM   20  C   UNL     1      42.589 -15.520   2.215  1.00  0.00     0.236 C 
HETATM   21  O   UNL     1      43.602 -15.610   1.523  1.00  0.00    -0.272 OA
HETATM   22  H   UNL     1      40.783 -14.466   2.491  1.00  0.00     0.190 HD
BRANCH  20  23
HETATM   23  C   UNL     1      42.382 -16.256   3.520  1.00  0.00     0.109 C 
BRANCH  23  24
HETATM   24  C   UNL     1      43.701 -16.817   4.052  1.00  0.00     0.051 C 
BRANCH  24  25
HETATM   25  C   UNL     1      43.766 -18.321   3.983  1.00  0.00    -0.019 A 
HETATM   26  C   UNL     1      43.933 -19.089   5.139  1.00  0.00     0.122 A 
HETATM   27  F   UNL     1      44.028 -18.485   6.333  1.00  0.00    -0.206 F 
HETATM   28  C   UNL     1      44.003 -20.478   5.084  1.00  0.00     0.043 A 
HETATM   29  C   UNL     1      43.912 -21.125   3.853  1.00  0.00     0.003 A 
HETATM   30  C   UNL     1      43.749 -20.377   2.687  1.00  0.00     0.001 A 
HETATM   31  C   UNL     1      43.676 -18.983   2.749  1.00  0.00     0.010 A 
ENDBRANCH  24  25
ENDBRANCH  23  24
ENDBRANCH  20  23
ENDBRANCH   2  19
TORSDOF 7
ENDMDL
MODEL 7
REMARK VINA RESULT:      -7.8      2.826     11.317
REMARK  7 active torsions:
REMARK  status: ('A' for Active; 'I' for Inactive)
REMARK    1  A    between atoms: O_2  and  C_3 
REMARK    2  A    between atoms: C_6  and  C_7 
REMARK    3  A    between atoms: C_11  and  C_12 
REMARK       I    between atoms: C_12  and  N_13 
REMARK    4  A    between atoms: N_13  and  N_14 
REMARK       I    between atoms: N_14  and  C_15 
REMARK    5  A    between atoms: C_15  and  C_16 
REMARK    6  A    between atoms: C_16  and  C_17 
REMARK    7  A    between atoms: C_17  and  C_18 
ROOT
HETATM    1  C   UNL     1      43.344  -9.785   8.589  1.00  0.00     0.288 C 
HETATM    2  N   UNL     1      42.847 -10.908   7.962  1.00  0.00    -0.262 N 
HETATM    3  O   UNL     1      44.216  -9.085   8.077  1.00  0.00    -0.264 OA
HETATM    4  H   UNL     1      41.998 -11.371   8.282  1.00  0.00     0.190 HD
ENDROOT
BRANCH   1   5
HETATM    5  C   UNL     1      42.759  -9.493   9.869  1.00  0.00     0.121 A 
HETATM    6  N   UNL     1      41.519  -9.945  10.224  1.00  0.00    -0.272 N 
HETATM    7  N   UNL     1      41.142  -9.602  11.464  1.00  0.00    -0.174 NA
HETATM    8  H   UNL     1      40.889 -10.505   9.657  1.00  0.00     0.189 HD
HETATM    9  C   UNL     1      42.164  -8.875  11.944  1.00  0.00     0.089 A 
HETATM   10  C   UNL     1      43.197  -8.782  10.969  1.00  0.00     0.071 A 
BRANCH   9  11
HETATM   11  C   UNL     1      42.151  -8.311  13.297  1.00  0.00    -0.005 A 
HETATM   12  C   UNL     1      43.090  -7.340  13.674  1.00  0.00     0.016 A 
HETATM   13  C   UNL     1      43.067  -6.768  14.954  1.00  0.00     0.037 A 
HETATM   14  C   UNL     1      42.103  -7.163  15.879  1.00  0.00     0.068 A 
HETATM   15  C   UNL     1      41.178  -8.144  15.519  1.00  0.00     0.037 A 
HETATM   16  C   UNL     1      41.198  -8.712  14.241  1.00  0.00     0.016 A 
BRANCH  14  17
HETATM   17  O   UNL     1      41.962  -6.683  17.151  1.00  0.00    -0.356 OA
HETATM   18  C   UNL     1      41.931  -7.644  18.198  1.00  0.00     0.210 C 
ENDBRANCH  14  17
ENDBRANCH   9  11
ENDBRANCH   1   5
BRANCH   2  19
HETATM   19  N   UNL     1      43.195 -11.155   6.624  1.00  0.00    -0.267 N 
HETATM   20  C   UNL     1      43.458 -12.468   6.287  1.00  0.00     0.236 C 
HETATM   21  O   UNL     1      43.539 -13.358   7.133  1.00  0.00    -0.272 OA
HETATM   22  H   UNL     1      42.869 -10.473   5.940  1.00  0.00     0.190 HD
BRANCH  20  23
HETATM   23  C   UNL     1      43.687 -12.679   4.806  1.00  0.00     0.109 C 
BRANCH  23  24
HETATM   24  C   UNL     1      42.462 -13.310   4.144  1.00  0.00     0.051 C 
BRANCH  24  25
HETATM   25  C   UNL     1      42.763 -14.645   3.513  1.00  0.00    -0.019 A 
HETATM   26  C   UNL     1      42.753 -15.819   4.271  1.00  0.00     0.122 A 
HETATM   27  F   UNL     1      42.462 -15.765   5.580  1.00  0.00    -0.206 F 
HETATM   28  C   UNL     1      43.038 -17.056   3.699  1.00  0.00     0.043 A 
HETATM   29  C   UNL     1      43.348 -17.133   2.343  1.00  0.00     0.003 A 
HETATM   30  C   UNL     1      43.368 -15.972   1.569  1.00  0.00     0.001 A 
HETATM   31  C   UNL     1      43.077 -14.735   2.149  1.00  0.00     0.010 A 
ENDBRANCH  24  25
ENDBRANCH  23  24
ENDBRANCH  20  23
ENDBRANCH   2  19
TORSDOF 7
ENDMDL
MODEL 8
REMARK VINA RESULT:      -7.6      7.657     11.781
REMARK  7 active torsions:
REMARK  status: ('A' for Active; 'I' for Inactive)
REMARK    1  A    between atoms: O_2  and  C_3 
REMARK    2  A    between atoms: C_6  and  C_7 
REMARK    3  A    between atoms: C_11  and  C_12 
REMARK       I    between atoms: C_12  and  N_13 
REMARK    4  A    between atoms: N_13  and  N_14 
REMARK       I    between atoms: N_14  and  C_15 
REMARK    5  A    between atoms: C_15  and  C_16 
REMARK    6  A    between atoms: C_16  and  C_17 
REMARK    7  A    between atoms: C_17  and  C_18 
ROOT
HETATM    1  C   UNL     1      40.146 -14.317  -0.210  1.00  0.00     0.288 C 
HETATM    2  N   UNL     1      41.380 -13.764   0.059  1.00  0.00    -0.262 N 
HETATM    3  O   UNL     1      39.794 -15.392   0.273  1.00  0.00    -0.264 OA
HETATM    4  H   UNL     1      41.597 -12.796  -0.171  1.00  0.00     0.190 HD
ENDROOT
BRANCH   1   5
HETATM    5  C   UNL     1      39.307 -13.539  -1.081  1.00  0.00     0.121 A 
HETATM    6  N   UNL     1      38.201 -14.066  -1.686  1.00  0.00    -0.272 N 
HETATM    7  N   UNL     1      37.519 -13.192  -2.442  1.00  0.00    -0.174 NA
HETATM    8  H   UNL     1      37.859 -15.019  -1.609  1.00  0.00     0.189 HD
HETATM    9  C   UNL     1      38.212 -12.046  -2.350  1.00  0.00     0.089 A 
HETATM   10  C   UNL     1      39.344 -12.227  -1.506  1.00  0.00     0.071 A 
BRANCH   9  11
HETATM   11  C   UNL     1      37.786 -10.821  -3.035  1.00  0.00    -0.005 A 
HETATM   12  C   UNL     1      36.426 -10.490  -3.123  1.00  0.00     0.016 A 
HETATM   13  C   UNL     1      36.009  -9.305  -3.746  1.00  0.00     0.037 A 
HETATM   14  C   UNL     1      36.948  -8.433  -4.293  1.00  0.00     0.068 A 
HETATM   15  C   UNL     1      38.302  -8.766  -4.228  1.00  0.00     0.037 A 
HETATM   16  C   UNL     1      38.720  -9.946  -3.603  1.00  0.00     0.016 A 
BRANCH  14  17
HETATM   17  O   UNL     1      36.680  -7.247  -4.917  1.00  0.00    -0.356 OA
HETATM   18  C   UNL     1      37.157  -7.102  -6.248  1.00  0.00     0.210 C 
ENDBRANCH  14  17
ENDBRANCH   9  11
ENDBRANCH   1   5
BRANCH   2  19
HETATM   19  N   UNL     1      42.181 -14.334   1.062  1.00  0.00    -0.267 N 
HETATM   20  C   UNL     1      42.340 -13.596   2.219  1.00  0.00     0.236 C 
HETATM   21  O   UNL     1      41.937 -12.438   2.317  1.00  0.00    -0.272 OA
HETATM   22  H   UNL     1      42.265 -15.350   1.049  1.00  0.00     0.190 HD
BRANCH  20  23
HETATM   23  C   UNL     1      43.095 -14.330   3.305  1.00  0.00     0.109 C 
BRANCH  23  24
HETATM   24  C   UNL     1      42.261 -15.477   3.877  1.00  0.00     0.051 C 
BRANCH  24  25
HETATM   25  C   UNL     1      42.860 -16.830   3.596  1.00  0.00    -0.019 A 
HETATM   26  C   UNL     1      43.858 -17.361   4.417  1.00  0.00     0.122 A 
HETATM   27  F   UNL     1      44.288 -16.665   5.480  1.00  0.00    -0.206 F 
HETATM   28  C   UNL     1      44.424 -18.607   4.160  1.00  0.00     0.043 A 
HETATM   29  C   UNL     1      43.996 -19.345   3.058  1.00  0.00     0.003 A 
HETATM   30  C   UNL     1      43.004 -18.831   2.223  1.00  0.00     0.001 A 
HETATM   31  C   UNL     1      42.437 -17.582   2.489  1.00  0.00     0.010 A 
ENDBRANCH  24  25
ENDBRANCH  23  24
ENDBRANCH  20  23
ENDBRANCH   2  19
TORSDOF 7
ENDMDL
MODEL 9
REMARK VINA RESULT:      -7.5     18.524     20.871
REMARK  7 active torsions:
REMARK  status: ('A' for Active; 'I' for Inactive)
REMARK    1  A    between atoms: O_2  and  C_3 
REMARK    2  A    between atoms: C_6  and  C_7 
REMARK    3  A    between atoms: C_11  and  C_12 
REMARK       I    between atoms: C_12  and  N_13 
REMARK    4  A    between atoms: N_13  and  N_14 
REMARK       I    between atoms: N_14  and  C_15 
REMARK    5  A    between atoms: C_15  and  C_16 
REMARK    6  A    between atoms: C_16  and  C_17 
REMARK    7  A    between atoms: C_17  and  C_18 
ROOT
HETATM    1  C   UNL     1      42.223 -29.824   2.342  1.00  0.00     0.288 C 
HETATM    2  N   UNL     1      43.264 -29.474   3.176  1.00  0.00    -0.262 N 
HETATM    3  O   UNL     1      42.116 -29.367   1.205  1.00  0.00    -0.264 OA
HETATM    4  H   UNL     1      43.468 -29.993   4.028  1.00  0.00     0.190 HD
ENDROOT
BRANCH   1   5
HETATM    5  C   UNL     1      41.290 -30.767   2.896  1.00  0.00     0.121 A 
HETATM    6  N   UNL     1      40.769 -31.793   2.159  1.00  0.00    -0.272 N 
HETATM    7  N   UNL     1      39.936 -32.593   2.841  1.00  0.00    -0.174 NA
HETATM    8  H   UNL     1      40.957 -32.000   1.182  1.00  0.00     0.189 HD
HETATM    9  C   UNL     1      39.887 -32.064   4.075  1.00  0.00     0.089 A 
HETATM   10  C   UNL     1      40.723 -30.914   4.145  1.00  0.00     0.071 A 
BRANCH   9  11
HETATM   11  C   UNL     1      39.081 -32.659   5.146  1.00  0.00    -0.005 A 
HETATM   12  C   UNL     1      39.520 -32.613   6.477  1.00  0.00     0.016 A 
HETATM   13  C   UNL     1      38.743 -33.148   7.514  1.00  0.00     0.037 A 
HETATM   14  C   UNL     1      37.513 -33.740   7.234  1.00  0.00     0.068 A 
HETATM   15  C   UNL     1      37.079 -33.808   5.909  1.00  0.00     0.037 A 
HETATM   16  C   UNL     1      37.852 -33.272   4.874  1.00  0.00     0.016 A 
BRANCH  14  17
HETATM   17  O   UNL     1      36.655 -34.289   8.145  1.00  0.00    -0.356 OA
HETATM   18  C   UNL     1      35.458 -34.860   7.635  1.00  0.00     0.210 C 
ENDBRANCH  14  17
ENDBRANCH   9  11
ENDBRANCH   1   5
BRANCH   2  19
HETATM   19  N   UNL     1      44.338 -28.734   2.655  1.00  0.00    -0.267 N 
HETATM   20  C   UNL     1      45.567 -29.364   2.628  1.00  0.00     0.236 C 
HETATM   21  O   UNL     1      45.756 -30.453   3.168  1.00  0.00    -0.272 OA
HETATM   22  H   UNL     1      44.097 -27.984   2.008  1.00  0.00     0.190 HD
BRANCH  20  23
HETATM   23  C   UNL     1      46.642 -28.564   1.928  1.00  0.00     0.109 C 
BRANCH  23  24
HETATM   24  C   UNL     1      47.157 -29.297   0.690  1.00  0.00     0.051 C 
BRANCH  24  25
HETATM   25  C   UNL     1      46.247 -29.144  -0.501  1.00  0.00    -0.019 A 
HETATM   26  C   UNL     1      46.470 -28.148  -1.456  1.00  0.00     0.122 A 
HETATM   27  F   UNL     1      47.516 -27.318  -1.322  1.00  0.00    -0.206 F 
HETATM   28  C   UNL     1      45.629 -27.992  -2.554  1.00  0.00     0.043 A 
HETATM   29  C   UNL     1      44.534 -28.840  -2.709  1.00  0.00     0.003 A 
HETATM   30  C   UNL     1      44.291 -29.838  -1.765  1.00  0.00     0.001 A 
HETATM   31  C   UNL     1      45.141 -29.991  -0.667  1.00  0.00     0.010 A 
ENDBRANCH  24  25
ENDBRANCH  23  24
ENDBRANCH  20  23
ENDBRANCH   2  19
TORSDOF 7
ENDMDL
MODEL 10
REMARK VINA RESULT:      -7.4      3.141     10.825
REMARK  7 active torsions:
REMARK  status: ('A' for Active; 'I' for Inactive)
REMARK    1  A    between atoms: O_2  and  C_3 
REMARK    2  A    between atoms: C_6  and  C_7 
REMARK    3  A    between atoms: C_11  and  C_12 
REMARK       I    between atoms: C_12  and  N_13 
REMARK    4  A    between atoms: N_13  and  N_14 
REMARK       I    between atoms: N_14  and  C_15 
REMARK    5  A    between atoms: C_15  and  C_16 
REMARK    6  A    between atoms: C_16  and  C_17 
REMARK    7  A    between atoms: C_17  and  C_18 
ROOT
HETATM    1  C   UNL     1      43.368 -10.896   6.768  1.00  0.00     0.288 C 
HETATM    2  N   UNL     1      43.211 -12.257   6.928  1.00  0.00    -0.262 N 
HETATM    3  O   UNL     1      43.508 -10.382   5.659  1.00  0.00    -0.264 OA
HETATM    4  H   UNL     1      42.898 -12.662   7.808  1.00  0.00     0.190 HD
ENDROOT
BRANCH   1   5
HETATM    5  C   UNL     1      43.341 -10.132   7.986  1.00  0.00     0.121 A 
HETATM    6  N   UNL     1      43.880  -8.879   8.070  1.00  0.00    -0.272 N 
HETATM    7  N   UNL     1      43.742  -8.301   9.273  1.00  0.00    -0.174 NA
HETATM    8  H   UNL     1      44.346  -8.364   7.329  1.00  0.00     0.189 HD
HETATM    9  C   UNL     1      43.105  -9.216  10.021  1.00  0.00     0.089 A 
HETATM   10  C   UNL     1      42.840 -10.381   9.247  1.00  0.00     0.071 A 
BRANCH   9  11
HETATM   11  C   UNL     1      42.750  -8.966  11.422  1.00  0.00    -0.005 A 
HETATM   12  C   UNL     1      41.681  -9.650  12.019  1.00  0.00     0.016 A 
HETATM   13  C   UNL     1      41.352  -9.445  13.367  1.00  0.00     0.037 A 
HETATM   14  C   UNL     1      42.089  -8.547  14.138  1.00  0.00     0.068 A 
HETATM   15  C   UNL     1      43.141  -7.847  13.545  1.00  0.00     0.037 A 
HETATM   16  C   UNL     1      43.472  -8.054  12.202  1.00  0.00     0.016 A 
BRANCH  14  17
HETATM   17  O   UNL     1      41.883  -8.261  15.458  1.00  0.00    -0.356 OA
HETATM   18  C   UNL     1      42.091  -6.913  15.860  1.00  0.00     0.210 C 
ENDBRANCH  14  17
ENDBRANCH   9  11
ENDBRANCH   1   5
BRANCH   2  19
HETATM   19  N   UNL     1      43.007 -13.059   5.794  1.00  0.00    -0.267 N 
HETATM   20  C   UNL     1      41.704 -13.440   5.534  1.00  0.00     0.236 C 
HETATM   21  O   UNL     1      40.789 -13.224   6.326  1.00  0.00    -0.272 OA
HETATM   22  H   UNL     1      43.710 -12.990   5.059  1.00  0.00     0.190 HD
BRANCH  20  23
HETATM   23  C   UNL     1      41.540 -14.181   4.225  1.00  0.00     0.109 C 
BRANCH  23  24
HETATM   24  C   UNL     1      41.093 -15.623   4.462  1.00  0.00     0.051 C 
BRANCH  24  25
HETATM   25  C   UNL     1      42.125 -16.633   4.032  1.00  0.00    -0.019 A 
HETATM   26  C   UNL     1      42.129 -17.153   2.735  1.00  0.00     0.122 A 
HETATM   27  F   UNL     1      41.207 -16.744   1.850  1.00  0.00    -0.206 F 
HETATM   28  C   UNL     1      43.073 -18.093   2.331  1.00  0.00     0.043 A 
HETATM   29  C   UNL     1      44.036 -18.535   3.236  1.00  0.00     0.003 A 
HETATM   30  C   UNL     1      44.047 -18.031   4.537  1.00  0.00     0.001 A 
HETATM   31  C   UNL     1      43.099 -17.085   4.934  1.00  0.00     0.010 A 
ENDBRANCH  24  25
ENDBRANCH  23  24
ENDBRANCH  20  23
ENDBRANCH   2  19
TORSDOF 7
ENDMDL
