MODEL 1
REMARK VINA RESULT:      -8.9      0.000      0.000
REMARK  7 active torsions:
REMARK  status: ('A' for Active; 'I' for Inactive)
REMARK    1  A    between atoms: C_2  and  O_3 
REMARK    2  A    between atoms: O_3  and  C_4 
REMARK    3  A    between atoms: C_5  and  N_6 
REMARK    4  A    between atoms: N_9  and  C_11 
REMARK    5  A    between atoms: C_11  and  C_12 
REMARK       I    between atoms: C_12  and  N_13 
REMARK    6  A    between atoms: N_13  and  C_14 
REMARK    7  A    between atoms: C_15  and  C_16 
ROOT
HETATM    1  C   UNL     1      41.446 -12.478   2.601  1.00  0.00     0.275 C 
HETATM    2  C   UNL     1      41.893 -12.024   3.990  1.00  0.00     0.050 C 
ENDROOT
BRANCH   1   3
HETATM    3  N   UNL     1      41.717 -14.003   2.475  1.00  0.00    -0.056 N 
HETATM    4  C   UNL     1      43.151 -14.383   2.061  1.00  0.00     0.255 C 
HETATM    5  C   UNL     1      43.254 -15.916   1.860  1.00  0.00     0.150 C 
HETATM    6  N   UNL     1      42.811 -16.619   3.086  1.00  0.00    -0.375 N 
HETATM    7  C   UNL     1      41.457 -16.273   3.542  1.00  0.00     0.150 C 
HETATM    8  C   UNL     1      41.346 -14.753   3.754  1.00  0.00     0.255 C 
HETATM    9  H   UNL     1      41.099 -14.355   1.737  1.00  0.00     0.281 HD
BRANCH   6  10
HETATM   10  C   UNL     1      43.218 -17.967   3.184  1.00  0.00     0.064 A 
HETATM   11  C   UNL     1      43.862 -18.466   4.351  1.00  0.00     0.095 A 
HETATM   12  C   UNL     1      44.218 -19.822   4.437  1.00  0.00     0.039 A 
HETATM   13  C   UNL     1      43.947 -20.699   3.388  1.00  0.00     0.003 A 
HETATM   14  C   UNL     1      43.317 -20.232   2.245  1.00  0.00     0.002 A 
HETATM   15  C   UNL     1      42.958 -18.886   2.147  1.00  0.00     0.032 A 
BRANCH  11  16
HETATM   16  O   UNL     1      44.056 -17.570   5.380  1.00  0.00    -0.349 OA
BRANCH  16  17
HETATM   17  C   UNL     1      43.377 -17.828   6.611  1.00  0.00     0.171 C 
HETATM   18  C   UNL     1      42.646 -16.562   7.023  1.00  0.00     0.034 C 
ENDBRANCH  16  17
ENDBRANCH  11  16
ENDBRANCH   6  10
ENDBRANCH   1   3
BRANCH   1  19
HETATM   19  C   UNL     1      39.969 -12.105   2.345  1.00  0.00     0.253 C 
HETATM   20  N   UNL     1      39.587 -11.473   1.192  1.00  0.00    -0.325 N 
HETATM   21  H   UNL     1      38.601 -11.612   0.989  1.00  0.00     0.169 HD
HETATM   22  O   UNL     1      39.083 -12.550   3.082  1.00  0.00    -0.271 OA
BRANCH  20  23
HETATM   23  C   UNL     1      40.364 -10.876   0.181  1.00  0.00     0.045 A 
HETATM   24  C   UNL     1      40.426 -11.322  -1.161  1.00  0.00     0.001 A 
HETATM   25  C   UNL     1      41.173 -10.540  -2.069  1.00  0.00     0.014 A 
HETATM   26  C   UNL     1      41.864  -9.398  -1.663  1.00  0.00     0.001 A 
HETATM   27  C   UNL     1      41.861  -9.028  -0.325  1.00  0.00     0.002 A 
HETATM   28  C   UNL     1      41.132  -9.776   0.596  1.00  0.00     0.030 A 
BRANCH  24  29
HETATM   29  C   UNL     1      39.881 -12.617  -1.634  1.00  0.00    -0.024 A 
HETATM   30  C   UNL     1      40.047 -13.800  -0.887  1.00  0.00     0.012 A 
HETATM   31  C   UNL     1      39.489 -15.010  -1.310  1.00  0.00     0.001 A 
HETATM   32  C   UNL     1      38.751 -15.061  -2.489  1.00  0.00     0.000 A 
HETATM   33  C   UNL     1      38.567 -13.905  -3.241  1.00  0.00     0.001 A 
HETATM   34  C   UNL     1      39.124 -12.696  -2.815  1.00  0.00     0.012 A 
ENDBRANCH  24  29
ENDBRANCH  20  23
ENDBRANCH   1  19
TORSDOF 7
ENDMDL
MODEL 2
REMARK VINA RESULT:      -8.9      0.968      2.980
REMARK  7 active torsions:
REMARK  status: ('A' for Active; 'I' for Inactive)
REMARK    1  A    between atoms: C_2  and  O_3 
REMARK    2  A    between atoms: O_3  and  C_4 
REMARK    3  A    between atoms: C_5  and  N_6 
REMARK    4  A    between atoms: N_9  and  C_11 
REMARK    5  A    between atoms: C_11  and  C_12 
REMARK       I    between atoms: C_12  and  N_13 
REMARK    6  A    between atoms: N_13  and  C_14 
REMARK    7  A    between atoms: C_15  and  C_16 
ROOT
HETATM    1  C   UNL     1      41.291 -12.713   2.071  1.00  0.00     0.275 C 
HETATM    2  C   UNL     1      41.861 -12.089   3.345  1.00  0.00     0.050 C 
ENDROOT
BRANCH   1   3
HETATM    3  N   UNL     1      41.655 -14.223   2.062  1.00  0.00    -0.056 N 
HETATM    4  C   UNL     1      43.151 -14.537   1.872  1.00  0.00     0.255 C 
HETATM    5  C   UNL     1      43.358 -16.069   1.766  1.00  0.00     0.150 C 
HETATM    6  N   UNL     1      42.782 -16.743   2.952  1.00  0.00    -0.375 N 
HETATM    7  C   UNL     1      41.360 -16.456   3.196  1.00  0.00     0.150 C 
HETATM    8  C   UNL     1      41.143 -14.938   3.312  1.00  0.00     0.255 C 
HETATM    9  H   UNL     1      41.167 -14.642   1.263  1.00  0.00     0.281 HD
BRANCH   6  10
HETATM   10  C   UNL     1      43.239 -18.060   3.175  1.00  0.00     0.064 A 
HETATM   11  C   UNL     1      43.852 -18.437   4.402  1.00  0.00     0.095 A 
HETATM   12  C   UNL     1      44.259 -19.764   4.611  1.00  0.00     0.039 A 
HETATM   13  C   UNL     1      44.069 -20.733   3.627  1.00  0.00     0.003 A 
HETATM   14  C   UNL     1      43.470 -20.386   2.426  1.00  0.00     0.002 A 
HETATM   15  C   UNL     1      43.061 -19.069   2.206  1.00  0.00     0.032 A 
BRANCH  11  16
HETATM   16  O   UNL     1      43.965 -17.455   5.363  1.00  0.00    -0.349 OA
BRANCH  16  17
HETATM   17  C   UNL     1      43.248 -17.645   6.584  1.00  0.00     0.171 C 
HETATM   18  C   UNL     1      42.398 -16.410   6.831  1.00  0.00     0.034 C 
ENDBRANCH  16  17
ENDBRANCH  11  16
ENDBRANCH   6  10
ENDBRANCH   1   3
BRANCH   1  19
HETATM   19  C   UNL     1      39.772 -12.457   1.961  1.00  0.00     0.253 C 
HETATM   20  N   UNL     1      39.112 -12.607   0.771  1.00  0.00    -0.325 N 
HETATM   21  H   UNL     1      38.116 -12.767   0.903  1.00  0.00     0.169 HD
HETATM   22  O   UNL     1      39.094 -12.312   2.984  1.00  0.00    -0.271 OA
BRANCH  20  23
HETATM   23  C   UNL     1      39.614 -12.785  -0.532  1.00  0.00     0.045 A 
HETATM   24  C   UNL     1      40.306 -11.798  -1.274  1.00  0.00     0.001 A 
HETATM   25  C   UNL     1      40.835 -12.181  -2.526  1.00  0.00     0.014 A 
HETATM   26  C   UNL     1      40.651 -13.465  -3.042  1.00  0.00     0.001 A 
HETATM   27  C   UNL     1      39.895 -14.390  -2.337  1.00  0.00     0.002 A 
HETATM   28  C   UNL     1      39.361 -14.045  -1.099  1.00  0.00     0.030 A 
BRANCH  24  29
HETATM   29  C   UNL     1      40.384 -10.368  -0.887  1.00  0.00    -0.024 A 
HETATM   30  C   UNL     1      41.605  -9.776  -0.510  1.00  0.00     0.012 A 
HETATM   31  C   UNL     1      41.684  -8.416  -0.194  1.00  0.00     0.001 A 
HETATM   32  C   UNL     1      40.544  -7.620  -0.253  1.00  0.00     0.000 A 
HETATM   33  C   UNL     1      39.327  -8.182  -0.630  1.00  0.00     0.001 A 
HETATM   34  C   UNL     1      39.251  -9.540  -0.947  1.00  0.00     0.012 A 
ENDBRANCH  24  29
ENDBRANCH  20  23
ENDBRANCH   1  19
TORSDOF 7
ENDMDL
MODEL 3
REMARK VINA RESULT:      -8.8      4.326      7.177
REMARK  7 active torsions:
REMARK  status: ('A' for Active; 'I' for Inactive)
REMARK    1  A    between atoms: C_2  and  O_3 
REMARK    2  A    between atoms: O_3  and  C_4 
REMARK    3  A    between atoms: C_5  and  N_6 
REMARK    4  A    between atoms: N_9  and  C_11 
REMARK    5  A    between atoms: C_11  and  C_12 
REMARK       I    between atoms: C_12  and  N_13 
REMARK    6  A    between atoms: N_13  and  C_14 
REMARK    7  A    between atoms: C_15  and  C_16 
ROOT
HETATM    1  C   UNL     1      40.630 -11.769   5.937  1.00  0.00     0.275 C 
HETATM    2  C   UNL     1      39.105 -11.841   6.001  1.00  0.00     0.050 C 
ENDROOT
BRANCH   1   3
HETATM    3  N   UNL     1      41.141 -12.972   5.096  1.00  0.00    -0.056 N 
HETATM    4  C   UNL     1      42.672 -13.107   5.004  1.00  0.00     0.255 C 
HETATM    5  C   UNL     1      43.043 -14.269   4.049  1.00  0.00     0.150 C 
HETATM    6  N   UNL     1      42.388 -15.520   4.493  1.00  0.00    -0.375 N 
HETATM    7  C   UNL     1      40.925 -15.439   4.624  1.00  0.00     0.150 C 
HETATM    8  C   UNL     1      40.545 -14.294   5.578  1.00  0.00     0.255 C 
HETATM    9  H   UNL     1      40.804 -12.829   4.138  1.00  0.00     0.281 HD
BRANCH   6  10
HETATM   10  C   UNL     1      42.941 -16.707   3.965  1.00  0.00     0.064 A 
HETATM   11  C   UNL     1      43.932 -17.444   4.671  1.00  0.00     0.095 A 
HETATM   12  C   UNL     1      44.434 -18.643   4.140  1.00  0.00     0.039 A 
HETATM   13  C   UNL     1      43.970 -19.133   2.921  1.00  0.00     0.003 A 
HETATM   14  C   UNL     1      43.002 -18.431   2.220  1.00  0.00     0.002 A 
HETATM   15  C   UNL     1      42.495 -17.236   2.737  1.00  0.00     0.032 A 
BRANCH  11  16
HETATM   16  O   UNL     1      44.314 -16.946   5.899  1.00  0.00    -0.349 OA
BRANCH  16  17
HETATM   17  C   UNL     1      43.512 -17.296   7.027  1.00  0.00     0.171 C 
HETATM   18  C   UNL     1      43.223 -16.029   7.814  1.00  0.00     0.034 C 
ENDBRANCH  16  17
ENDBRANCH  11  16
ENDBRANCH   6  10
ENDBRANCH   1   3
BRANCH   1  19
HETATM   19  C   UNL     1      41.098 -10.405   5.385  1.00  0.00     0.253 C 
HETATM   20  N   UNL     1      41.499  -9.400   6.224  1.00  0.00    -0.325 N 
HETATM   21  H   UNL     1      42.103  -8.729   5.755  1.00  0.00     0.169 HD
HETATM   22  O   UNL     1      41.311 -10.268   4.175  1.00  0.00    -0.271 OA
BRANCH  20  23
HETATM   23  C   UNL     1      41.388  -9.283   7.622  1.00  0.00     0.045 A 
HETATM   24  C   UNL     1      42.478  -9.312   8.526  1.00  0.00     0.001 A 
HETATM   25  C   UNL     1      42.196  -9.074   9.889  1.00  0.00     0.014 A 
HETATM   26  C   UNL     1      40.894  -8.861  10.345  1.00  0.00     0.001 A 
HETATM   27  C   UNL     1      39.831  -8.923   9.455  1.00  0.00     0.002 A 
HETATM   28  C   UNL     1      40.075  -9.155   8.104  1.00  0.00     0.030 A 
BRANCH  24  29
HETATM   29  C   UNL     1      43.856  -9.714   8.155  1.00  0.00    -0.024 A 
HETATM   30  C   UNL     1      44.959  -8.879   8.414  1.00  0.00     0.012 A 
HETATM   31  C   UNL     1      46.263  -9.283   8.109  1.00  0.00     0.001 A 
HETATM   32  C   UNL     1      46.489 -10.532   7.540  1.00  0.00     0.000 A 
HETATM   33  C   UNL     1      45.415 -11.378   7.280  1.00  0.00     0.001 A 
HETATM   34  C   UNL     1      44.114 -10.974   7.587  1.00  0.00     0.012 A 
ENDBRANCH  24  29
ENDBRANCH  20  23
ENDBRANCH   1  19
TORSDOF 7
ENDMDL
MODEL 4
REMARK VINA RESULT:      -8.8      3.190      8.136
REMARK  7 active torsions:
REMARK  status: ('A' for Active; 'I' for Inactive)
REMARK    1  A    between atoms: C_2  and  O_3 
REMARK    2  A    between atoms: O_3  and  C_4 
REMARK    3  A    between atoms: C_5  and  N_6 
REMARK    4  A    between atoms: N_9  and  C_11 
REMARK    5  A    between atoms: C_11  and  C_12 
REMARK       I    between atoms: C_12  and  N_13 
REMARK    6  A    between atoms: N_13  and  C_14 
REMARK    7  A    between atoms: C_15  and  C_16 
ROOT
HETATM    1  C   UNL     1      41.830 -14.860   2.458  1.00  0.00     0.275 C 
HETATM    2  C   UNL     1      41.531 -14.834   0.959  1.00  0.00     0.050 C 
ENDROOT
BRANCH   1   3
HETATM    3  N   UNL     1      41.738 -13.407   3.001  1.00  0.00    -0.056 N 
HETATM    4  C   UNL     1      40.660 -13.175   4.076  1.00  0.00     0.255 C 
HETATM    5  C   UNL     1      40.597 -11.671   4.443  1.00  0.00     0.150 C 
HETATM    6  N   UNL     1      41.934 -11.195   4.866  1.00  0.00    -0.375 N 
HETATM    7  C   UNL     1      43.007 -11.416   3.885  1.00  0.00     0.150 C 
HETATM    8  C   UNL     1      43.086 -12.909   3.520  1.00  0.00     0.255 C 
HETATM    9  H   UNL     1      41.489 -12.809   2.206  1.00  0.00     0.281 HD
BRANCH   6  10
HETATM   10  C   UNL     1      41.938  -9.982   5.589  1.00  0.00     0.064 A 
HETATM   11  C   UNL     1      42.538  -9.886   6.875  1.00  0.00     0.095 A 
HETATM   12  C   UNL     1      42.563  -8.656   7.553  1.00  0.00     0.039 A 
HETATM   13  C   UNL     1      42.007  -7.513   6.980  1.00  0.00     0.003 A 
HETATM   14  C   UNL     1      41.422  -7.587   5.726  1.00  0.00     0.002 A 
HETATM   15  C   UNL     1      41.389  -8.804   5.041  1.00  0.00     0.032 A 
BRANCH  11  16
HETATM   16  O   UNL     1      43.123 -11.031   7.371  1.00  0.00    -0.349 OA
BRANCH  16  17
HETATM   17  C   UNL     1      44.471 -10.932   7.832  1.00  0.00     0.171 C 
HETATM   18  C   UNL     1      45.388 -11.409   6.719  1.00  0.00     0.034 C 
ENDBRANCH  16  17
ENDBRANCH  11  16
ENDBRANCH   6  10
ENDBRANCH   1   3
BRANCH   1  19
HETATM   19  C   UNL     1      40.890 -15.840   3.194  1.00  0.00     0.253 C 
HETATM   20  N   UNL     1      41.194 -16.313   4.443  1.00  0.00    -0.325 N 
HETATM   21  H   UNL     1      40.367 -16.631   4.942  1.00  0.00     0.169 HD
HETATM   22  O   UNL     1      39.755 -16.054   2.754  1.00  0.00    -0.271 OA
BRANCH  20  23
HETATM   23  C   UNL     1      42.387 -16.222   5.184  1.00  0.00     0.045 A 
HETATM   24  C   UNL     1      43.523 -17.044   4.991  1.00  0.00     0.001 A 
HETATM   25  C   UNL     1      44.675 -16.745   5.753  1.00  0.00     0.014 A 
HETATM   26  C   UNL     1      44.690 -15.713   6.692  1.00  0.00     0.001 A 
HETATM   27  C   UNL     1      43.537 -14.976   6.927  1.00  0.00     0.002 A 
HETATM   28  C   UNL     1      42.386 -15.244   6.192  1.00  0.00     0.030 A 
BRANCH  24  29
HETATM   29  C   UNL     1      43.532 -18.270   4.157  1.00  0.00    -0.024 A 
HETATM   30  C   UNL     1      43.256 -18.221   2.777  1.00  0.00     0.012 A 
HETATM   31  C   UNL     1      43.315 -19.371   1.985  1.00  0.00     0.001 A 
HETATM   32  C   UNL     1      43.654 -20.594   2.556  1.00  0.00     0.000 A 
HETATM   33  C   UNL     1      43.937 -20.666   3.916  1.00  0.00     0.001 A 
HETATM   34  C   UNL     1      43.880 -19.516   4.706  1.00  0.00     0.012 A 
ENDBRANCH  24  29
ENDBRANCH  20  23
ENDBRANCH   1  19
TORSDOF 7
ENDMDL
MODEL 5
REMARK VINA RESULT:      -8.6      1.955      8.859
REMARK  7 active torsions:
REMARK  status: ('A' for Active; 'I' for Inactive)
REMARK    1  A    between atoms: C_2  and  O_3 
REMARK    2  A    between atoms: O_3  and  C_4 
REMARK    3  A    between atoms: C_5  and  N_6 
REMARK    4  A    between atoms: N_9  and  C_11 
REMARK    5  A    between atoms: C_11  and  C_12 
REMARK       I    between atoms: C_12  and  N_13 
REMARK    6  A    between atoms: N_13  and  C_14 
REMARK    7  A    between atoms: C_15  and  C_16 
ROOT
HETATM    1  C   UNL     1      41.570 -14.576   2.641  1.00  0.00     0.275 C 
HETATM    2  C   UNL     1      42.855 -14.992   1.925  1.00  0.00     0.050 C 
ENDROOT
BRANCH   1   3
HETATM    3  N   UNL     1      40.715 -13.730   1.658  1.00  0.00    -0.056 N 
HETATM    4  C   UNL     1      40.874 -12.204   1.796  1.00  0.00     0.255 C 
HETATM    5  C   UNL     1      39.887 -11.484   0.844  1.00  0.00     0.150 C 
HETATM    6  N   UNL     1      40.087 -11.953  -0.546  1.00  0.00    -0.375 N 
HETATM    7  C   UNL     1      39.973 -13.407  -0.730  1.00  0.00     0.150 C 
HETATM    8  C   UNL     1      40.956 -14.134   0.204  1.00  0.00     0.255 C 
HETATM    9  H   UNL     1      39.733 -13.939   1.863  1.00  0.00     0.281 HD
BRANCH   6  10
HETATM   10  C   UNL     1      39.547 -11.115  -1.546  1.00  0.00     0.064 A 
HETATM   11  C   UNL     1      40.339 -10.126  -2.194  1.00  0.00     0.095 A 
HETATM   12  C   UNL     1      39.786  -9.335  -3.214  1.00  0.00     0.039 A 
HETATM   13  C   UNL     1      38.461  -9.505  -3.611  1.00  0.00     0.003 A 
HETATM   14  C   UNL     1      37.675 -10.467  -2.994  1.00  0.00     0.002 A 
HETATM   15  C   UNL     1      38.213 -11.260  -1.977  1.00  0.00     0.032 A 
BRANCH  11  16
HETATM   16  O   UNL     1      41.658 -10.037  -1.804  1.00  0.00    -0.349 OA
BRANCH  16  17
HETATM   17  C   UNL     1      42.008  -8.976  -0.914  1.00  0.00     0.171 C 
HETATM   18  C   UNL     1      43.002  -8.072  -1.624  1.00  0.00     0.034 C 
ENDBRANCH  16  17
ENDBRANCH  11  16
ENDBRANCH   6  10
ENDBRANCH   1   3
BRANCH   1  19
HETATM   19  C   UNL     1      40.818 -15.809   3.189  1.00  0.00     0.253 C 
HETATM   20  N   UNL     1      41.185 -16.397   4.370  1.00  0.00    -0.325 N 
HETATM   21  H   UNL     1      40.425 -16.931   4.783  1.00  0.00     0.169 HD
HETATM   22  O   UNL     1      39.750 -16.159   2.675  1.00  0.00    -0.271 OA
BRANCH  20  23
HETATM   23  C   UNL     1      42.328 -16.201   5.167  1.00  0.00     0.045 A 
HETATM   24  C   UNL     1      43.494 -17.004   5.121  1.00  0.00     0.001 A 
HETATM   25  C   UNL     1      44.590 -16.600   5.915  1.00  0.00     0.014 A 
HETATM   26  C   UNL     1      44.523 -15.483   6.750  1.00  0.00     0.001 A 
HETATM   27  C   UNL     1      43.341 -14.761   6.845  1.00  0.00     0.002 A 
HETATM   28  C   UNL     1      42.243 -15.132   6.074  1.00  0.00     0.030 A 
BRANCH  24  29
HETATM   29  C   UNL     1      43.583 -18.303   4.412  1.00  0.00    -0.024 A 
HETATM   30  C   UNL     1      43.439 -18.386   3.013  1.00  0.00     0.012 A 
HETATM   31  C   UNL     1      43.573 -19.606   2.342  1.00  0.00     0.001 A 
HETATM   32  C   UNL     1      43.856 -20.766   3.056  1.00  0.00     0.000 A 
HETATM   33  C   UNL     1      44.009 -20.707   4.438  1.00  0.00     0.001 A 
HETATM   34  C   UNL     1      43.877 -19.488   5.107  1.00  0.00     0.012 A 
ENDBRANCH  24  29
ENDBRANCH  20  23
ENDBRANCH   1  19
TORSDOF 7
ENDMDL
MODEL 6
REMARK VINA RESULT:      -8.3      2.015      8.814
REMARK  7 active torsions:
REMARK  status: ('A' for Active; 'I' for Inactive)
REMARK    1  A    between atoms: C_2  and  O_3 
REMARK    2  A    between atoms: O_3  and  C_4 
REMARK    3  A    between atoms: C_5  and  N_6 
REMARK    4  A    between atoms: N_9  and  C_11 
REMARK    5  A    between atoms: C_11  and  C_12 
REMARK       I    between atoms: C_12  and  N_13 
REMARK    6  A    between atoms: N_13  and  C_14 
REMARK    7  A    between atoms: C_15  and  C_16 
ROOT
HETATM    1  C   UNL     1      41.923 -14.485   2.803  1.00  0.00     0.275 C 
HETATM    2  C   UNL     1      43.185 -14.830   2.014  1.00  0.00     0.050 C 
ENDROOT
BRANCH   1   3
HETATM    3  N   UNL     1      41.154 -13.375   2.035  1.00  0.00    -0.056 N 
HETATM    4  C   UNL     1      41.218 -13.475   0.499  1.00  0.00     0.255 C 
HETATM    5  C   UNL     1      40.514 -12.251  -0.138  1.00  0.00     0.150 C 
HETATM    6  N   UNL     1      39.126 -12.145   0.366  1.00  0.00    -0.375 N 
HETATM    7  C   UNL     1      39.004 -12.074   1.830  1.00  0.00     0.150 C 
HETATM    8  C   UNL     1      39.693 -13.289   2.474  1.00  0.00     0.255 C 
HETATM    9  H   UNL     1      41.590 -12.483   2.287  1.00  0.00     0.281 HD
BRANCH   6  10
HETATM   10  C   UNL     1      38.265 -11.337  -0.410  1.00  0.00     0.064 A 
HETATM   11  C   UNL     1      37.575 -11.858  -1.539  1.00  0.00     0.095 A 
HETATM   12  C   UNL     1      36.694 -11.042  -2.267  1.00  0.00     0.039 A 
HETATM   13  C   UNL     1      36.478  -9.716  -1.897  1.00  0.00     0.003 A 
HETATM   14  C   UNL     1      37.139  -9.192  -0.797  1.00  0.00     0.002 A 
HETATM   15  C   UNL     1      38.018  -9.993  -0.064  1.00  0.00     0.032 A 
BRANCH  11  16
HETATM   16  O   UNL     1      37.781 -13.190  -1.829  1.00  0.00    -0.349 OA
BRANCH  16  17
HETATM   17  C   UNL     1      38.560 -13.497  -2.986  1.00  0.00     0.171 C 
HETATM   18  C   UNL     1      38.327 -14.956  -3.341  1.00  0.00     0.034 C 
ENDBRANCH  16  17
ENDBRANCH  11  16
ENDBRANCH   6  10
ENDBRANCH   1   3
BRANCH   1  19
HETATM   19  C   UNL     1      41.068 -15.746   3.059  1.00  0.00     0.253 C 
HETATM   20  N   UNL     1      41.189 -16.462   4.220  1.00  0.00    -0.325 N 
HETATM   21  H   UNL     1      40.358 -17.014   4.417  1.00  0.00     0.169 HD
HETATM   22  O   UNL     1      40.120 -16.011   2.312  1.00  0.00    -0.271 OA
BRANCH  20  23
HETATM   23  C   UNL     1      42.153 -16.381   5.243  1.00  0.00     0.045 A 
HETATM   24  C   UNL     1      43.322 -17.176   5.316  1.00  0.00     0.001 A 
HETATM   25  C   UNL     1      44.236 -16.888   6.354  1.00  0.00     0.014 A 
HETATM   26  C   UNL     1      43.986 -15.894   7.301  1.00  0.00     0.001 A 
HETATM   27  C   UNL     1      42.793 -15.186   7.261  1.00  0.00     0.002 A 
HETATM   28  C   UNL     1      41.872 -15.444   6.250  1.00  0.00     0.030 A 
BRANCH  24  29
HETATM   29  C   UNL     1      43.574 -18.367   4.471  1.00  0.00    -0.024 A 
HETATM   30  C   UNL     1      43.828 -19.630   5.039  1.00  0.00     0.012 A 
HETATM   31  C   UNL     1      44.015 -20.762   4.239  1.00  0.00     0.001 A 
HETATM   32  C   UNL     1      43.948 -20.653   2.854  1.00  0.00     0.000 A 
HETATM   33  C   UNL     1      43.691 -19.417   2.268  1.00  0.00     0.001 A 
HETATM   34  C   UNL     1      43.503 -18.288   3.069  1.00  0.00     0.012 A 
ENDBRANCH  24  29
ENDBRANCH  20  23
ENDBRANCH   1  19
TORSDOF 7
ENDMDL
MODEL 7
REMARK VINA RESULT:      -8.3      5.482      8.807
REMARK  7 active torsions:
REMARK  status: ('A' for Active; 'I' for Inactive)
REMARK    1  A    between atoms: C_2  and  O_3 
REMARK    2  A    between atoms: O_3  and  C_4 
REMARK    3  A    between atoms: C_5  and  N_6 
REMARK    4  A    between atoms: N_9  and  C_11 
REMARK    5  A    between atoms: C_11  and  C_12 
REMARK       I    between atoms: C_12  and  N_13 
REMARK    6  A    between atoms: N_13  and  C_14 
REMARK    7  A    between atoms: C_15  and  C_16 
ROOT
HETATM    1  C   UNL     1      41.208 -10.004   7.210  1.00  0.00     0.275 C 
HETATM    2  C   UNL     1      39.689 -10.099   7.349  1.00  0.00     0.050 C 
ENDROOT
BRANCH   1   3
HETATM    3  N   UNL     1      41.659 -10.984   6.092  1.00  0.00    -0.056 N 
HETATM    4  C   UNL     1      42.942 -11.780   6.394  1.00  0.00     0.255 C 
HETATM    5  C   UNL     1      43.340 -12.626   5.159  1.00  0.00     0.150 C 
HETATM    6  N   UNL     1      42.213 -13.498   4.756  1.00  0.00    -0.375 N 
HETATM    7  C   UNL     1      40.953 -12.791   4.481  1.00  0.00     0.150 C 
HETATM    8  C   UNL     1      40.543 -11.954   5.705  1.00  0.00     0.255 C 
HETATM    9  H   UNL     1      41.857 -10.417   5.262  1.00  0.00     0.281 HD
BRANCH   6  10
HETATM   10  C   UNL     1      42.561 -14.580   3.918  1.00  0.00     0.064 A 
HETATM   11  C   UNL     1      42.366 -15.929   4.327  1.00  0.00     0.095 A 
HETATM   12  C   UNL     1      42.683 -16.984   3.457  1.00  0.00     0.039 A 
HETATM   13  C   UNL     1      43.188 -16.732   2.183  1.00  0.00     0.003 A 
HETATM   14  C   UNL     1      43.382 -15.424   1.766  1.00  0.00     0.002 A 
HETATM   15  C   UNL     1      43.071 -14.365   2.622  1.00  0.00     0.032 A 
BRANCH  11  16
HETATM   16  O   UNL     1      41.810 -16.122   5.574  1.00  0.00    -0.349 OA
BRANCH  16  17
HETATM   17  C   UNL     1      42.648 -16.688   6.584  1.00  0.00     0.171 C 
HETATM   18  C   UNL     1      42.940 -15.612   7.615  1.00  0.00     0.034 C 
ENDBRANCH  16  17
ENDBRANCH  11  16
ENDBRANCH   6  10
ENDBRANCH   1   3
BRANCH   1  19
HETATM   19  C   UNL     1      41.650  -8.547   6.950  1.00  0.00     0.253 C 
HETATM   20  N   UNL     1      42.763  -8.025   7.554  1.00  0.00    -0.325 N 
HETATM   21  H   UNL     1      43.138  -7.230   7.043  1.00  0.00     0.169 HD
HETATM   22  O   UNL     1      41.126  -7.896   6.040  1.00  0.00    -0.271 OA
BRANCH  20  23
HETATM   23  C   UNL     1      43.554  -8.535   8.601  1.00  0.00     0.045 A 
HETATM   24  C   UNL     1      43.195  -8.512   9.971  1.00  0.00     0.001 A 
HETATM   25  C   UNL     1      44.059  -9.164  10.877  1.00  0.00     0.014 A 
HETATM   26  C   UNL     1      45.244  -9.772  10.459  1.00  0.00     0.001 A 
HETATM   27  C   UNL     1      45.619  -9.707   9.124  1.00  0.00     0.002 A 
HETATM   28  C   UNL     1      44.789  -9.072   8.204  1.00  0.00     0.030 A 
BRANCH  24  29
HETATM   29  C   UNL     1      42.060  -7.733  10.521  1.00  0.00    -0.024 A 
HETATM   30  C   UNL     1      42.194  -6.369  10.845  1.00  0.00     0.012 A 
HETATM   31  C   UNL     1      41.108  -5.626  11.317  1.00  0.00     0.001 A 
HETATM   32  C   UNL     1      39.864  -6.230  11.470  1.00  0.00     0.000 A 
HETATM   33  C   UNL     1      39.705  -7.575  11.150  1.00  0.00     0.001 A 
HETATM   34  C   UNL     1      40.790  -8.316  10.677  1.00  0.00     0.012 A 
ENDBRANCH  24  29
ENDBRANCH  20  23
ENDBRANCH   1  19
TORSDOF 7
ENDMDL
MODEL 8
REMARK VINA RESULT:      -8.2      5.378      8.826
REMARK  7 active torsions:
REMARK  status: ('A' for Active; 'I' for Inactive)
REMARK    1  A    between atoms: C_2  and  O_3 
REMARK    2  A    between atoms: O_3  and  C_4 
REMARK    3  A    between atoms: C_5  and  N_6 
REMARK    4  A    between atoms: N_9  and  C_11 
REMARK    5  A    between atoms: C_11  and  C_12 
REMARK       I    between atoms: C_12  and  N_13 
REMARK    6  A    between atoms: N_13  and  C_14 
REMARK    7  A    between atoms: C_15  and  C_16 
ROOT
HETATM    1  C   UNL     1      40.885  -9.504   7.734  1.00  0.00     0.275 C 
HETATM    2  C   UNL     1      39.528  -9.451   8.436  1.00  0.00     0.050 C 
ENDROOT
BRANCH   1   3
HETATM    3  N   UNL     1      40.726 -10.326   6.425  1.00  0.00    -0.056 N 
HETATM    4  C   UNL     1      42.005 -11.026   5.930  1.00  0.00     0.255 C 
HETATM    5  C   UNL     1      41.737 -11.709   4.565  1.00  0.00     0.150 C 
HETATM    6  N   UNL     1      40.589 -12.637   4.678  1.00  0.00    -0.375 N 
HETATM    7  C   UNL     1      39.347 -12.025   5.174  1.00  0.00     0.150 C 
HETATM    8  C   UNL     1      39.598 -11.352   6.534  1.00  0.00     0.255 C 
HETATM    9  H   UNL     1      40.453  -9.665   5.691  1.00  0.00     0.281 HD
BRANCH   6  10
HETATM   10  C   UNL     1      40.489 -13.596   3.647  1.00  0.00     0.064 A 
HETATM   11  C   UNL     1      40.663 -14.985   3.905  1.00  0.00     0.095 A 
HETATM   12  C   UNL     1      40.517 -15.920   2.868  1.00  0.00     0.039 A 
HETATM   13  C   UNL     1      40.197 -15.509   1.575  1.00  0.00     0.003 A 
HETATM   14  C   UNL     1      40.020 -14.160   1.306  1.00  0.00     0.002 A 
HETATM   15  C   UNL     1      40.163 -13.220   2.329  1.00  0.00     0.032 A 
BRANCH  11  16
HETATM   16  O   UNL     1      40.923 -15.343   5.211  1.00  0.00    -0.349 OA
BRANCH  16  17
HETATM   17  C   UNL     1      42.152 -16.023   5.473  1.00  0.00     0.171 C 
HETATM   18  C   UNL     1      42.230 -16.303   6.963  1.00  0.00     0.034 C 
ENDBRANCH  16  17
ENDBRANCH  11  16
ENDBRANCH   6  10
ENDBRANCH   1   3
BRANCH   1  19
HETATM   19  C   UNL     1      41.440  -8.083   7.492  1.00  0.00     0.253 C 
HETATM   20  N   UNL     1      42.235  -7.464   8.418  1.00  0.00    -0.325 N 
HETATM   21  H   UNL     1      42.808  -6.733   8.003  1.00  0.00     0.169 HD
HETATM   22  O   UNL     1      41.342  -7.565   6.374  1.00  0.00    -0.271 OA
BRANCH  20  23
HETATM   23  C   UNL     1      42.528  -7.819   9.749  1.00  0.00     0.045 A 
HETATM   24  C   UNL     1      43.638  -8.600  10.152  1.00  0.00     0.001 A 
HETATM   25  C   UNL     1      43.839  -8.770  11.540  1.00  0.00     0.014 A 
HETATM   26  C   UNL     1      42.961  -8.234  12.483  1.00  0.00     0.001 A 
HETATM   27  C   UNL     1      41.832  -7.546  12.062  1.00  0.00     0.002 A 
HETATM   28  C   UNL     1      41.605  -7.358  10.702  1.00  0.00     0.030 A 
BRANCH  24  29
HETATM   29  C   UNL     1      44.506  -9.357   9.219  1.00  0.00    -0.024 A 
HETATM   30  C   UNL     1      44.175 -10.662   8.805  1.00  0.00     0.012 A 
HETATM   31  C   UNL     1      44.970 -11.355   7.886  1.00  0.00     0.001 A 
HETATM   32  C   UNL     1      46.110 -10.755   7.361  1.00  0.00     0.000 A 
HETATM   33  C   UNL     1      46.454  -9.464   7.750  1.00  0.00     0.001 A 
HETATM   34  C   UNL     1      45.658  -8.773   8.666  1.00  0.00     0.012 A 
ENDBRANCH  24  29
ENDBRANCH  20  23
ENDBRANCH   1  19
TORSDOF 7
ENDMDL
MODEL 9
REMARK VINA RESULT:      -8.2      5.266      8.595
REMARK  7 active torsions:
REMARK  status: ('A' for Active; 'I' for Inactive)
REMARK    1  A    between atoms: C_2  and  O_3 
REMARK    2  A    between atoms: O_3  and  C_4 
REMARK    3  A    between atoms: C_5  and  N_6 
REMARK    4  A    between atoms: N_9  and  C_11 
REMARK    5  A    between atoms: C_11  and  C_12 
REMARK       I    between atoms: C_12  and  N_13 
REMARK    6  A    between atoms: N_13  and  C_14 
REMARK    7  A    between atoms: C_15  and  C_16 
ROOT
HETATM    1  C   UNL     1      43.069 -11.923   5.455  1.00  0.00     0.275 C 
HETATM    2  C   UNL     1      43.846 -12.965   6.260  1.00  0.00     0.050 C 
ENDROOT
BRANCH   1   3
HETATM    3  N   UNL     1      43.006 -10.612   6.286  1.00  0.00    -0.056 N 
HETATM    4  C   UNL     1      41.595 -10.187   6.736  1.00  0.00     0.255 C 
HETATM    5  C   UNL     1      41.661  -8.813   7.450  1.00  0.00     0.150 C 
HETATM    6  N   UNL     1      42.624  -8.870   8.574  1.00  0.00    -0.375 N 
HETATM    7  C   UNL     1      43.982  -9.297   8.203  1.00  0.00     0.150 C 
HETATM    8  C   UNL     1      43.930 -10.665   7.502  1.00  0.00     0.255 C 
HETATM    9  H   UNL     1      43.356  -9.861   5.682  1.00  0.00     0.281 HD
BRANCH   6  10
HETATM   10  C   UNL     1      42.491  -7.840   9.530  1.00  0.00     0.064 A 
HETATM   11  C   UNL     1      42.066  -8.111  10.860  1.00  0.00     0.095 A 
HETATM   12  C   UNL     1      41.983  -7.072  11.801  1.00  0.00     0.039 A 
HETATM   13  C   UNL     1      42.318  -5.765  11.453  1.00  0.00     0.003 A 
HETATM   14  C   UNL     1      42.739  -5.482  10.163  1.00  0.00     0.002 A 
HETATM   15  C   UNL     1      42.825  -6.506   9.217  1.00  0.00     0.032 A 
BRANCH  11  16
HETATM   16  O   UNL     1      41.801  -9.429  11.168  1.00  0.00    -0.349 OA
BRANCH  16  17
HETATM   17  C   UNL     1      42.570 -10.025  12.214  1.00  0.00     0.171 C 
HETATM   18  C   UNL     1      43.717 -10.793  11.580  1.00  0.00     0.034 C 
ENDBRANCH  16  17
ENDBRANCH  11  16
ENDBRANCH   6  10
ENDBRANCH   1   3
BRANCH   1  19
HETATM   19  C   UNL     1      43.694 -11.723   4.058  1.00  0.00     0.253 C 
HETATM   20  N   UNL     1      42.916 -11.675   2.932  1.00  0.00    -0.325 N 
HETATM   21  H   UNL     1      43.380 -11.192   2.167  1.00  0.00     0.169 HD
HETATM   22  O   UNL     1      44.883 -11.402   3.953  1.00  0.00    -0.271 OA
BRANCH  20  23
HETATM   23  C   UNL     1      41.553 -11.982   2.754  1.00  0.00     0.045 A 
HETATM   24  C   UNL     1      41.009 -13.288   2.779  1.00  0.00     0.001 A 
HETATM   25  C   UNL     1      39.604 -13.406   2.690  1.00  0.00     0.014 A 
HETATM   26  C   UNL     1      38.780 -12.290   2.539  1.00  0.00     0.001 A 
HETATM   27  C   UNL     1      39.341 -11.026   2.430  1.00  0.00     0.002 A 
HETATM   28  C   UNL     1      40.723 -10.875   2.515  1.00  0.00     0.030 A 
BRANCH  24  29
HETATM   29  C   UNL     1      41.820 -14.529   2.747  1.00  0.00    -0.024 A 
HETATM   30  C   UNL     1      42.425 -14.980   1.558  1.00  0.00     0.012 A 
HETATM   31  C   UNL     1      43.230 -16.123   1.543  1.00  0.00     0.001 A 
HETATM   32  C   UNL     1      43.449 -16.837   2.717  1.00  0.00     0.000 A 
HETATM   33  C   UNL     1      42.868 -16.406   3.906  1.00  0.00     0.001 A 
HETATM   34  C   UNL     1      42.065 -15.263   3.920  1.00  0.00     0.012 A 
ENDBRANCH  24  29
ENDBRANCH  20  23
ENDBRANCH   1  19
TORSDOF 7
ENDMDL
MODEL 10
REMARK VINA RESULT:      -8.1      3.677      8.836
REMARK  7 active torsions:
REMARK  status: ('A' for Active; 'I' for Inactive)
REMARK    1  A    between atoms: C_2  and  O_3 
REMARK    2  A    between atoms: O_3  and  C_4 
REMARK    3  A    between atoms: C_5  and  N_6 
REMARK    4  A    between atoms: N_9  and  C_11 
REMARK    5  A    between atoms: C_11  and  C_12 
REMARK       I    between atoms: C_12  and  N_13 
REMARK    6  A    between atoms: N_13  and  C_14 
REMARK    7  A    between atoms: C_15  and  C_16 
ROOT
HETATM    1  C   UNL     1      41.298 -14.748   6.042  1.00  0.00     0.275 C 
HETATM    2  C   UNL     1      40.055 -15.344   6.702  1.00  0.00     0.050 C 
ENDROOT
BRANCH   1   3
HETATM    3  N   UNL     1      41.377 -13.242   6.418  1.00  0.00    -0.056 N 
HETATM    4  C   UNL     1      42.708 -12.548   6.075  1.00  0.00     0.255 C 
HETATM    5  C   UNL     1      42.695 -11.092   6.604  1.00  0.00     0.150 C 
HETATM    6  N   UNL     1      41.521 -10.367   6.067  1.00  0.00    -0.375 N 
HETATM    7  C   UNL     1      40.224 -11.001   6.344  1.00  0.00     0.150 C 
HETATM    8  C   UNL     1      40.221 -12.446   5.814  1.00  0.00     0.255 C 
HETATM    9  H   UNL     1      41.273 -13.185   7.436  1.00  0.00     0.281 HD
BRANCH   6  10
HETATM   10  C   UNL     1      41.599  -8.959   6.143  1.00  0.00     0.064 A 
HETATM   11  C   UNL     1      41.415  -8.142   4.993  1.00  0.00     0.095 A 
HETATM   12  C   UNL     1      41.457  -6.743   5.106  1.00  0.00     0.039 A 
HETATM   13  C   UNL     1      41.675  -6.132   6.340  1.00  0.00     0.003 A 
HETATM   14  C   UNL     1      41.853  -6.912   7.472  1.00  0.00     0.002 A 
HETATM   15  C   UNL     1      41.814  -8.305   7.373  1.00  0.00     0.032 A 
BRANCH  11  16
HETATM   16  O   UNL     1      41.146  -8.793   3.808  1.00  0.00    -0.349 OA
BRANCH  16  17
HETATM   17  C   UNL     1      40.024  -8.339   3.050  1.00  0.00     0.171 C 
HETATM   18  C   UNL     1      38.769  -8.949   3.650  1.00  0.00     0.034 C 
ENDBRANCH  16  17
ENDBRANCH  11  16
ENDBRANCH   6  10
ENDBRANCH   1   3
BRANCH   1  19
HETATM   19  C   UNL     1      42.567 -15.536   6.436  1.00  0.00     0.253 C 
HETATM   20  N   UNL     1      43.463 -15.957   5.490  1.00  0.00    -0.325 N 
HETATM   21  H   UNL     1      44.385 -16.123   5.885  1.00  0.00     0.169 HD
HETATM   22  O   UNL     1      42.896 -15.621   7.624  1.00  0.00    -0.271 OA
BRANCH  20  23
HETATM   23  C   UNL     1      43.361 -15.980   4.087  1.00  0.00     0.045 A 
HETATM   24  C   UNL     1      43.268 -17.154   3.301  1.00  0.00     0.001 A 
HETATM   25  C   UNL     1      43.064 -16.991   1.914  1.00  0.00     0.014 A 
HETATM   26  C   UNL     1      43.000 -15.728   1.322  1.00  0.00     0.001 A 
HETATM   27  C   UNL     1      43.180 -14.592   2.098  1.00  0.00     0.002 A 
HETATM   28  C   UNL     1      43.382 -14.718   3.470  1.00  0.00     0.030 A 
BRANCH  24  29
HETATM   29  C   UNL     1      43.512 -18.522   3.818  1.00  0.00    -0.024 A 
HETATM   30  C   UNL     1      43.629 -19.625   2.949  1.00  0.00     0.012 A 
HETATM   31  C   UNL     1      43.909 -20.905   3.436  1.00  0.00     0.001 A 
HETATM   32  C   UNL     1      44.080 -21.109   4.802  1.00  0.00     0.000 A 
HETATM   33  C   UNL     1      43.976 -20.034   5.680  1.00  0.00     0.001 A 
HETATM   34  C   UNL     1      43.698 -18.755   5.191  1.00  0.00     0.012 A 
ENDBRANCH  24  29
ENDBRANCH  20  23
ENDBRANCH   1  19
TORSDOF 7
ENDMDL
