MODEL 1
REMARK VINA RESULT:      -9.6      0.000      0.000
REMARK  8 active torsions:
REMARK  status: ('A' for Active; 'I' for Inactive)
REMARK    1  A    between atoms: N_9  and  N_10 
REMARK    2  A    between atoms: C_11  and  C_12 
REMARK    3  A    between atoms: C_14  and  O_15 
REMARK    4  A    between atoms: C_19  and  N_20 
REMARK    5  A    between atoms: C_21  and  C_22 
REMARK       I    between atoms: C_22  and  N_23 
REMARK    6  A    between atoms: N_23  and  C_24 
REMARK    7  A    between atoms: C_24  and  C_25 
REMARK    8  A    between atoms: C_25  and  C_26 
ROOT
HETATM    1  C   UNL     1      43.876 -10.410   7.153  1.00  0.00     0.002 A 
HETATM    2  C   UNL     1      42.917 -10.407   6.139  1.00  0.00     0.034 A 
HETATM    3  C   UNL     1      42.450 -11.588   5.574  1.00  0.00     0.086 A 
HETATM    4  C   UNL     1      42.971 -12.822   6.049  1.00  0.00     0.088 A 
HETATM    5  N   UNL     1      42.577 -14.009   5.572  1.00  0.00    -0.225 NA
HETATM    6  C   UNL     1      41.625 -13.907   4.615  1.00  0.00     0.183 A 
HETATM    7  C   UNL     1      41.092 -12.719   4.139  1.00  0.00     0.125 A 
HETATM    8  N   UNL     1      41.518 -11.513   4.605  1.00  0.00    -0.242 NA
HETATM    9  N   UNL     1      41.018 -14.946   3.938  1.00  0.00    -0.197 N 
HETATM   10  C   UNL     1      40.079 -14.411   3.057  1.00  0.00     0.143 A 
HETATM   11  C   UNL     1      40.140 -13.024   3.131  1.00  0.00     0.110 A 
HETATM   12  C   UNL     1      43.928 -12.810   7.055  1.00  0.00     0.034 A 
HETATM   13  C   UNL     1      44.385 -11.616   7.612  1.00  0.00     0.002 A 
ENDROOT
BRANCH  11  14
HETATM   14  C   UNL     1      39.427 -12.113   2.246  1.00  0.00     0.257 C 
HETATM   15  N   UNL     1      40.228 -11.214   1.576  1.00  0.00    -0.356 N 
HETATM   16  H   UNL     1      41.227 -11.226   1.773  1.00  0.00     0.162 HD
HETATM   17  O   UNL     1      38.221 -12.211   2.028  1.00  0.00    -0.267 OA
BRANCH  15  18
HETATM   18  C   UNL     1      39.763 -10.582   0.359  1.00  0.00     0.127 C 
BRANCH  18  19
HETATM   19  C   UNL     1      40.306 -11.241  -0.917  1.00  0.00     0.053 C 
BRANCH  19  20
HETATM   20  C   UNL     1      39.590 -12.469  -1.468  1.00  0.00    -0.082 C 
HETATM   21  C   UNL     1      38.487 -12.146  -2.459  1.00  0.00     0.034 C 
HETATM   22  C   UNL     1      37.563 -13.328  -2.767  1.00  0.00     0.005 C 
HETATM   23  C   UNL     1      38.366 -14.602  -2.994  1.00  0.00     0.004 C 
HETATM   24  C   UNL     1      39.196 -14.942  -1.758  1.00  0.00     0.027 C 
HETATM   25  C   UNL     1      39.866 -13.747  -1.142  1.00  0.00    -0.024 C 
ENDBRANCH  19  20
ENDBRANCH  18  19
ENDBRANCH  15  18
ENDBRANCH  11  14
BRANCH  10  26
HETATM   26  N   UNL     1      39.333 -15.196   2.228  1.00  0.00    -0.383 N 
HETATM   27  H   UNL     1      39.752 -16.034   1.828  1.00  0.00     0.157 HD
HETATM   28  H   UNL     1      38.715 -14.716   1.563  1.00  0.00     0.157 HD
ENDBRANCH  10  26
BRANCH   9  29
HETATM   29  N   UNL     1      41.431 -16.250   4.012  1.00  0.00    -0.176 NA
HETATM   30  C   UNL     1      42.451 -16.542   3.274  1.00  0.00     0.150 C 
BRANCH  30  31
HETATM   31  C   UNL     1      43.035 -17.899   3.314  1.00  0.00    -0.014 A 
HETATM   32  C   UNL     1      42.914 -18.748   2.207  1.00  0.00     0.049 A 
HETATM   33  C   UNL     1      43.456 -20.026   2.271  1.00  0.00     0.066 A 
HETATM   34  C   UNL     1      44.119 -20.463   3.412  1.00  0.00     0.036 A 
HETATM   35  C   UNL     1      44.240 -19.611   4.514  1.00  0.00     0.004 A 
HETATM   36  C   UNL     1      43.694 -18.327   4.469  1.00  0.00     0.013 A 
BRANCH  33  37
HETATM   37  O   UNL     1      43.356 -20.891   1.222  1.00  0.00    -0.361 OA
HETATM   38  H   UNL     1      42.870 -20.451   0.503  1.00  0.00     0.217 HD
ENDBRANCH  33  37
ENDBRANCH  30  31
ENDBRANCH   9  29
TORSDOF 8
ENDMDL
MODEL 2
REMARK VINA RESULT:      -9.6      2.172      8.228
REMARK  8 active torsions:
REMARK  status: ('A' for Active; 'I' for Inactive)
REMARK    1  A    between atoms: N_9  and  N_10 
REMARK    2  A    between atoms: C_11  and  C_12 
REMARK    3  A    between atoms: C_14  and  O_15 
REMARK    4  A    between atoms: C_19  and  N_20 
REMARK    5  A    between atoms: C_21  and  C_22 
REMARK       I    between atoms: C_22  and  N_23 
REMARK    6  A    between atoms: N_23  and  C_24 
REMARK    7  A    between atoms: C_24  and  C_25 
REMARK    8  A    between atoms: C_25  and  C_26 
ROOT
HETATM    1  C   UNL     1      44.633 -18.798   4.346  1.00  0.00     0.002 A 
HETATM    2  C   UNL     1      44.362 -17.534   4.873  1.00  0.00     0.034 A 
HETATM    3  C   UNL     1      43.415 -16.693   4.300  1.00  0.00     0.086 A 
HETATM    4  C   UNL     1      42.715 -17.142   3.149  1.00  0.00     0.088 A 
HETATM    5  N   UNL     1      41.781 -16.406   2.533  1.00  0.00    -0.225 NA
HETATM    6  C   UNL     1      41.566 -15.211   3.133  1.00  0.00     0.183 A 
HETATM    7  C   UNL     1      42.227 -14.751   4.261  1.00  0.00     0.125 A 
HETATM    8  N   UNL     1      43.198 -15.490   4.866  1.00  0.00    -0.242 NA
HETATM    9  N   UNL     1      40.669 -14.238   2.739  1.00  0.00    -0.197 N 
HETATM   10  C   UNL     1      40.744 -13.178   3.642  1.00  0.00     0.143 A 
HETATM   11  C   UNL     1      41.741 -13.454   4.571  1.00  0.00     0.110 A 
HETATM   12  C   UNL     1      42.997 -18.400   2.632  1.00  0.00     0.034 A 
HETATM   13  C   UNL     1      43.949 -19.232   3.220  1.00  0.00     0.002 A 
ENDROOT
BRANCH  11  14
HETATM   14  C   UNL     1      42.225 -12.515   5.573  1.00  0.00     0.257 C 
HETATM   15  N   UNL     1      43.596 -12.462   5.699  1.00  0.00    -0.356 N 
HETATM   16  H   UNL     1      44.153 -13.093   5.126  1.00  0.00     0.162 HD
HETATM   17  O   UNL     1      41.477 -11.750   6.179  1.00  0.00    -0.267 OA
BRANCH  15  18
HETATM   18  C   UNL     1      44.235 -11.299   6.281  1.00  0.00     0.127 C 
BRANCH  18  19
HETATM   19  C   UNL     1      44.656 -11.501   7.743  1.00  0.00     0.053 C 
BRANCH  19  20
HETATM   20  C   UNL     1      44.418 -10.369   8.736  1.00  0.00    -0.082 C 
HETATM   21  C   UNL     1      43.887  -9.096   8.103  1.00  0.00     0.034 C 
HETATM   22  C   UNL     1      43.949  -7.873   9.021  1.00  0.00     0.005 C 
HETATM   23  C   UNL     1      43.466  -8.219  10.423  1.00  0.00     0.004 C 
HETATM   24  C   UNL     1      44.323  -9.327  11.029  1.00  0.00     0.027 C 
HETATM   25  C   UNL     1      44.640 -10.433  10.063  1.00  0.00    -0.024 C 
ENDBRANCH  19  20
ENDBRANCH  18  19
ENDBRANCH  15  18
ENDBRANCH  11  14
BRANCH  10  26
HETATM   26  N   UNL     1      39.988 -12.051   3.501  1.00  0.00    -0.383 N 
HETATM   27  H   UNL     1      39.057 -12.126   3.095  1.00  0.00     0.157 HD
HETATM   28  H   UNL     1      40.475 -11.199   3.201  1.00  0.00     0.157 HD
ENDBRANCH  10  26
BRANCH   9  29
HETATM   29  N   UNL     1      39.980 -14.268   1.556  1.00  0.00    -0.176 NA
HETATM   30  C   UNL     1      40.617 -13.782   0.542  1.00  0.00     0.150 C 
BRANCH  30  31
HETATM   31  C   UNL     1      40.010 -13.816  -0.805  1.00  0.00    -0.014 A 
HETATM   32  C   UNL     1      39.317 -14.955  -1.233  1.00  0.00     0.049 A 
HETATM   33  C   UNL     1      38.766 -14.973  -2.509  1.00  0.00     0.066 A 
HETATM   34  C   UNL     1      38.890 -13.877  -3.354  1.00  0.00     0.036 A 
HETATM   35  C   UNL     1      39.579 -12.740  -2.922  1.00  0.00     0.004 A 
HETATM   36  C   UNL     1      40.145 -12.709  -1.645  1.00  0.00     0.013 A 
BRANCH  33  37
HETATM   37  O   UNL     1      38.091 -16.063  -2.974  1.00  0.00    -0.361 OA
HETATM   38  H   UNL     1      38.709 -16.618  -3.479  1.00  0.00     0.217 HD
ENDBRANCH  33  37
ENDBRANCH  30  31
ENDBRANCH   9  29
TORSDOF 8
ENDMDL
MODEL 3
REMARK VINA RESULT:      -9.4      2.254      6.268
REMARK  8 active torsions:
REMARK  status: ('A' for Active; 'I' for Inactive)
REMARK    1  A    between atoms: N_9  and  N_10 
REMARK    2  A    between atoms: C_11  and  C_12 
REMARK    3  A    between atoms: C_14  and  O_15 
REMARK    4  A    between atoms: C_19  and  N_20 
REMARK    5  A    between atoms: C_21  and  C_22 
REMARK       I    between atoms: C_22  and  N_23 
REMARK    6  A    between atoms: N_23  and  C_24 
REMARK    7  A    between atoms: C_24  and  C_25 
REMARK    8  A    between atoms: C_25  and  C_26 
ROOT
HETATM    1  C   UNL     1      43.572 -19.520   2.793  1.00  0.00     0.002 A 
HETATM    2  C   UNL     1      42.846 -18.515   2.151  1.00  0.00     0.034 A 
HETATM    3  C   UNL     1      42.764 -17.229   2.672  1.00  0.00     0.086 A 
HETATM    4  C   UNL     1      43.439 -16.944   3.889  1.00  0.00     0.088 A 
HETATM    5  N   UNL     1      43.424 -15.734   4.463  1.00  0.00    -0.225 NA
HETATM    6  C   UNL     1      42.721 -14.819   3.754  1.00  0.00     0.183 A 
HETATM    7  C   UNL     1      42.060 -15.066   2.561  1.00  0.00     0.125 A 
HETATM    8  N   UNL     1      42.053 -16.306   1.997  1.00  0.00    -0.242 NA
HETATM    9  N   UNL     1      42.526 -13.492   4.081  1.00  0.00    -0.197 N 
HETATM   10  C   UNL     1      41.768 -12.896   3.074  1.00  0.00     0.143 A 
HETATM   11  C   UNL     1      41.426 -13.868   2.140  1.00  0.00     0.110 A 
HETATM   12  C   UNL     1      44.154 -17.954   4.520  1.00  0.00     0.034 A 
HETATM   13  C   UNL     1      44.228 -19.239   3.983  1.00  0.00     0.002 A 
ENDROOT
BRANCH  11  14
HETATM   14  C   UNL     1      40.506 -13.666   1.030  1.00  0.00     0.257 C 
HETATM   15  N   UNL     1      40.735 -14.472  -0.064  1.00  0.00    -0.356 N 
HETATM   16  H   UNL     1      41.532 -15.105  -0.032  1.00  0.00     0.162 HD
HETATM   17  O   UNL     1      39.534 -12.918   1.105  1.00  0.00    -0.267 OA
BRANCH  15  18
HETATM   18  C   UNL     1      39.679 -14.728  -1.022  1.00  0.00     0.127 C 
BRANCH  18  19
HETATM   19  C   UNL     1      39.968 -14.159  -2.417  1.00  0.00     0.053 C 
BRANCH  19  20
HETATM   20  C   UNL     1      39.797 -12.663  -2.648  1.00  0.00    -0.082 C 
HETATM   21  C   UNL     1      41.106 -11.905  -2.773  1.00  0.00     0.034 C 
HETATM   22  C   UNL     1      40.955 -10.384  -2.682  1.00  0.00     0.005 C 
HETATM   23  C   UNL     1      39.778  -9.903  -3.520  1.00  0.00     0.004 C 
HETATM   24  C   UNL     1      38.479 -10.551  -3.046  1.00  0.00     0.027 C 
HETATM   25  C   UNL     1      38.619 -12.015  -2.741  1.00  0.00    -0.024 C 
ENDBRANCH  19  20
ENDBRANCH  18  19
ENDBRANCH  15  18
ENDBRANCH  11  14
BRANCH  10  26
HETATM   26  N   UNL     1      41.390 -11.587   3.129  1.00  0.00    -0.383 N 
HETATM   27  H   UNL     1      40.742 -11.228   2.430  1.00  0.00     0.157 HD
HETATM   28  H   UNL     1      42.115 -10.903   3.373  1.00  0.00     0.157 HD
ENDBRANCH  10  26
BRANCH   9  29
HETATM   29  N   UNL     1      42.873 -12.944   5.287  1.00  0.00    -0.176 NA
HETATM   30  C   UNL     1      43.998 -12.309   5.295  1.00  0.00     0.150 C 
BRANCH  30  31
HETATM   31  C   UNL     1      44.454 -11.616   6.518  1.00  0.00    -0.014 A 
HETATM   32  C   UNL     1      43.559 -11.392   7.572  1.00  0.00     0.049 A 
HETATM   33  C   UNL     1      44.002 -10.724   8.707  1.00  0.00     0.066 A 
HETATM   34  C   UNL     1      45.318 -10.288   8.808  1.00  0.00     0.036 A 
HETATM   35  C   UNL     1      46.209 -10.517   7.756  1.00  0.00     0.004 A 
HETATM   36  C   UNL     1      45.777 -11.179   6.605  1.00  0.00     0.013 A 
BRANCH  33  37
HETATM   37  O   UNL     1      43.166 -10.475   9.754  1.00  0.00    -0.361 OA
HETATM   38  H   UNL     1      43.680 -10.063  10.470  1.00  0.00     0.217 HD
ENDBRANCH  33  37
ENDBRANCH  30  31
ENDBRANCH   9  29
TORSDOF 8
ENDMDL
MODEL 4
REMARK VINA RESULT:      -8.9      1.853      7.149
REMARK  8 active torsions:
REMARK  status: ('A' for Active; 'I' for Inactive)
REMARK    1  A    between atoms: N_9  and  N_10 
REMARK    2  A    between atoms: C_11  and  C_12 
REMARK    3  A    between atoms: C_14  and  O_15 
REMARK    4  A    between atoms: C_19  and  N_20 
REMARK    5  A    between atoms: C_21  and  C_22 
REMARK       I    between atoms: C_22  and  N_23 
REMARK    6  A    between atoms: N_23  and  C_24 
REMARK    7  A    between atoms: C_24  and  C_25 
REMARK    8  A    between atoms: C_25  and  C_26 
ROOT
HETATM    1  C   UNL     1      38.822 -12.022  -0.657  1.00  0.00     0.002 A 
HETATM    2  C   UNL     1      38.986 -11.733   0.699  1.00  0.00     0.034 A 
HETATM    3  C   UNL     1      39.550 -12.650   1.577  1.00  0.00     0.086 A 
HETATM    4  C   UNL     1      39.966 -13.910   1.070  1.00  0.00     0.088 A 
HETATM    5  N   UNL     1      40.527 -14.853   1.838  1.00  0.00    -0.225 NA
HETATM    6  C   UNL     1      40.672 -14.471   3.129  1.00  0.00     0.183 A 
HETATM    7  C   UNL     1      40.284 -13.246   3.649  1.00  0.00     0.125 A 
HETATM    8  N   UNL     1      39.686 -12.301   2.872  1.00  0.00    -0.242 NA
HETATM    9  N   UNL     1      41.216 -15.216   4.156  1.00  0.00    -0.197 N 
HETATM   10  C   UNL     1      41.200 -14.444   5.317  1.00  0.00     0.143 A 
HETATM   11  C   UNL     1      40.581 -13.231   5.037  1.00  0.00     0.110 A 
HETATM   12  C   UNL     1      39.794 -14.187  -0.279  1.00  0.00     0.034 A 
HETATM   13  C   UNL     1      39.227 -13.255  -1.148  1.00  0.00     0.002 A 
ENDROOT
BRANCH  11  14
HETATM   14  C   UNL     1      40.232 -12.228   6.032  1.00  0.00     0.257 C 
HETATM   15  N   UNL     1      41.277 -11.422   6.431  1.00  0.00    -0.356 N 
HETATM   16  H   UNL     1      42.199 -11.608   6.039  1.00  0.00     0.162 HD
HETATM   17  O   UNL     1      39.076 -12.039   6.405  1.00  0.00    -0.267 OA
BRANCH  15  18
HETATM   18  C   UNL     1      41.020 -10.128   7.029  1.00  0.00     0.127 C 
BRANCH  18  19
HETATM   19  C   UNL     1      42.281  -9.269   7.193  1.00  0.00     0.053 C 
BRANCH  19  20
HETATM   20  C   UNL     1      43.064  -9.359   8.497  1.00  0.00    -0.082 C 
HETATM   21  C   UNL     1      42.192  -9.360   9.739  1.00  0.00     0.034 C 
HETATM   22  C   UNL     1      42.965  -9.128  11.041  1.00  0.00     0.005 C 
HETATM   23  C   UNL     1      44.240  -9.958  11.073  1.00  0.00     0.004 C 
HETATM   24  C   UNL     1      45.146  -9.598   9.898  1.00  0.00     0.027 C 
HETATM   25  C   UNL     1      44.405  -9.433   8.601  1.00  0.00    -0.024 C 
ENDBRANCH  19  20
ENDBRANCH  18  19
ENDBRANCH  15  18
ENDBRANCH  11  14
BRANCH  10  26
HETATM   26  N   UNL     1      41.654 -14.922   6.511  1.00  0.00    -0.383 N 
HETATM   27  H   UNL     1      41.931 -15.900   6.581  1.00  0.00     0.157 HD
HETATM   28  H   UNL     1      41.174 -14.594   7.357  1.00  0.00     0.157 HD
ENDBRANCH  10  26
BRANCH   9  29
HETATM   29  N   UNL     1      41.531 -16.544   4.051  1.00  0.00    -0.176 NA
HETATM   30  C   UNL     1      42.736 -16.790   3.655  1.00  0.00     0.150 C 
BRANCH  30  31
HETATM   31  C   UNL     1      43.220 -18.183   3.565  1.00  0.00    -0.014 A 
HETATM   32  C   UNL     1      43.102 -18.891   2.363  1.00  0.00     0.049 A 
HETATM   33  C   UNL     1      43.548 -20.206   2.303  1.00  0.00     0.066 A 
HETATM   34  C   UNL     1      44.115 -20.817   3.415  1.00  0.00     0.036 A 
HETATM   35  C   UNL     1      44.235 -20.106   4.613  1.00  0.00     0.004 A 
HETATM   36  C   UNL     1      43.783 -18.787   4.692  1.00  0.00     0.013 A 
BRANCH  33  37
HETATM   37  O   UNL     1      43.445 -20.938   1.157  1.00  0.00    -0.361 OA
HETATM   38  H   UNL     1      44.244 -20.790   0.622  1.00  0.00     0.217 HD
ENDBRANCH  33  37
ENDBRANCH  30  31
ENDBRANCH   9  29
TORSDOF 8
ENDMDL
MODEL 5
REMARK VINA RESULT:      -8.8      3.234      9.487
REMARK  8 active torsions:
REMARK  status: ('A' for Active; 'I' for Inactive)
REMARK    1  A    between atoms: N_9  and  N_10 
REMARK    2  A    between atoms: C_11  and  C_12 
REMARK    3  A    between atoms: C_14  and  O_15 
REMARK    4  A    between atoms: C_19  and  N_20 
REMARK    5  A    between atoms: C_21  and  C_22 
REMARK       I    between atoms: C_22  and  N_23 
REMARK    6  A    between atoms: N_23  and  C_24 
REMARK    7  A    between atoms: C_24  and  C_25 
REMARK    8  A    between atoms: C_25  and  C_26 
ROOT
HETATM    1  C   UNL     1      38.524 -15.341  -2.745  1.00  0.00     0.002 A 
HETATM    2  C   UNL     1      39.208 -15.314  -1.528  1.00  0.00     0.034 A 
HETATM    3  C   UNL     1      39.722 -14.132  -1.007  1.00  0.00     0.086 A 
HETATM    4  C   UNL     1      39.541 -12.930  -1.742  1.00  0.00     0.088 A 
HETATM    5  N   UNL     1      39.994 -11.743  -1.316  1.00  0.00    -0.225 NA
HETATM    6  C   UNL     1      40.616 -11.811  -0.116  1.00  0.00     0.183 A 
HETATM    7  C   UNL     1      40.799 -12.968   0.627  1.00  0.00     0.125 A 
HETATM    8  N   UNL     1      40.364 -14.177   0.176  1.00  0.00    -0.242 NA
HETATM    9  N   UNL     1      41.182 -10.764   0.583  1.00  0.00    -0.197 N 
HETATM   10  C   UNL     1      41.694 -11.258   1.782  1.00  0.00     0.143 A 
HETATM   11  C   UNL     1      41.508 -12.636   1.810  1.00  0.00     0.110 A 
HETATM   12  C   UNL     1      38.863 -12.971  -2.953  1.00  0.00     0.034 A 
HETATM   13  C   UNL     1      38.352 -14.165  -3.461  1.00  0.00     0.002 A 
ENDROOT
BRANCH  11  14
HETATM   14  C   UNL     1      42.054 -13.526   2.825  1.00  0.00     0.257 C 
HETATM   15  N   UNL     1      42.508 -14.737   2.347  1.00  0.00    -0.356 N 
HETATM   16  H   UNL     1      42.397 -14.929   1.354  1.00  0.00     0.162 HD
HETATM   17  O   UNL     1      42.202 -13.183   3.996  1.00  0.00    -0.267 OA
BRANCH  15  18
HETATM   18  C   UNL     1      43.468 -15.511   3.106  1.00  0.00     0.127 C 
BRANCH  18  19
HETATM   19  C   UNL     1      42.827 -16.620   3.952  1.00  0.00     0.053 C 
BRANCH  19  20
HETATM   20  C   UNL     1      43.188 -18.070   3.654  1.00  0.00    -0.082 C 
HETATM   21  C   UNL     1      42.905 -18.493   2.225  1.00  0.00     0.034 C 
HETATM   22  C   UNL     1      42.959 -20.008   2.003  1.00  0.00     0.005 C 
HETATM   23  C   UNL     1      44.172 -20.616   2.692  1.00  0.00     0.004 C 
HETATM   24  C   UNL     1      44.130 -20.345   4.194  1.00  0.00     0.027 C 
HETATM   25  C   UNL     1      43.712 -18.943   4.536  1.00  0.00    -0.024 C 
ENDBRANCH  19  20
ENDBRANCH  18  19
ENDBRANCH  15  18
ENDBRANCH  11  14
BRANCH  10  26
HETATM   26  N   UNL     1      42.339 -10.459   2.679  1.00  0.00    -0.383 N 
HETATM   27  H   UNL     1      43.172  -9.953   2.382  1.00  0.00     0.157 HD
HETATM   28  H   UNL     1      42.420 -10.808   3.640  1.00  0.00     0.157 HD
ENDBRANCH  10  26
BRANCH   9  29
HETATM   29  N   UNL     1      41.358  -9.508   0.066  1.00  0.00    -0.176 NA
HETATM   30  C   UNL     1      42.133  -9.446  -0.966  1.00  0.00     0.150 C 
BRANCH  30  31
HETATM   31  C   UNL     1      42.351  -8.158  -1.657  1.00  0.00    -0.014 A 
HETATM   32  C   UNL     1      43.501  -7.405  -1.391  1.00  0.00     0.049 A 
HETATM   33  C   UNL     1      43.680  -6.188  -2.039  1.00  0.00     0.066 A 
HETATM   34  C   UNL     1      42.739  -5.721  -2.948  1.00  0.00     0.036 A 
HETATM   35  C   UNL     1      41.594  -6.477  -3.214  1.00  0.00     0.004 A 
HETATM   36  C   UNL     1      41.395  -7.697  -2.565  1.00  0.00     0.013 A 
BRANCH  33  37
HETATM   37  O   UNL     1      44.779  -5.416  -1.805  1.00  0.00    -0.361 OA
HETATM   38  H   UNL     1      45.562  -5.992  -1.777  1.00  0.00     0.217 HD
ENDBRANCH  33  37
ENDBRANCH  30  31
ENDBRANCH   9  29
TORSDOF 8
ENDMDL
MODEL 6
REMARK VINA RESULT:      -8.8      3.813      7.382
REMARK  8 active torsions:
REMARK  status: ('A' for Active; 'I' for Inactive)
REMARK    1  A    between atoms: N_9  and  N_10 
REMARK    2  A    between atoms: C_11  and  C_12 
REMARK    3  A    between atoms: C_14  and  O_15 
REMARK    4  A    between atoms: C_19  and  N_20 
REMARK    5  A    between atoms: C_21  and  C_22 
REMARK       I    between atoms: C_22  and  N_23 
REMARK    6  A    between atoms: N_23  and  C_24 
REMARK    7  A    between atoms: C_24  and  C_25 
REMARK    8  A    between atoms: C_25  and  C_26 
ROOT
HETATM    1  C   UNL     1      46.240  -9.296   8.253  1.00  0.00     0.002 A 
HETATM    2  C   UNL     1      44.845  -9.260   8.251  1.00  0.00     0.034 A 
HETATM    3  C   UNL     1      44.092 -10.183   7.535  1.00  0.00     0.086 A 
HETATM    4  C   UNL     1      44.773 -11.182   6.789  1.00  0.00     0.088 A 
HETATM    5  N   UNL     1      44.133 -12.118   6.076  1.00  0.00    -0.225 NA
HETATM    6  C   UNL     1      42.786 -12.021   6.159  1.00  0.00     0.183 A 
HETATM    7  C   UNL     1      42.095 -11.063   6.886  1.00  0.00     0.125 A 
HETATM    8  N   UNL     1      42.749 -10.095   7.585  1.00  0.00    -0.242 NA
HETATM    9  N   UNL     1      41.858 -12.838   5.543  1.00  0.00    -0.197 N 
HETATM   10  C   UNL     1      40.582 -12.411   5.910  1.00  0.00     0.143 A 
HETATM   11  C   UNL     1      40.704 -11.279   6.708  1.00  0.00     0.110 A 
HETATM   12  C   UNL     1      46.161 -11.205   6.796  1.00  0.00     0.034 A 
HETATM   13  C   UNL     1      46.901 -10.272   7.521  1.00  0.00     0.002 A 
ENDROOT
BRANCH  11  14
HETATM   14  C   UNL     1      39.590 -10.453   7.152  1.00  0.00     0.257 C 
HETATM   15  N   UNL     1      39.685 -10.007   8.453  1.00  0.00    -0.356 N 
HETATM   16  H   UNL     1      40.485 -10.311   9.004  1.00  0.00     0.162 HD
HETATM   17  O   UNL     1      38.693 -10.088   6.394  1.00  0.00    -0.267 OA
BRANCH  15  18
HETATM   18  C   UNL     1      38.940  -8.843   8.886  1.00  0.00     0.127 C 
BRANCH  18  19
HETATM   19  C   UNL     1      39.219  -8.445  10.342  1.00  0.00     0.053 C 
BRANCH  19  20
HETATM   20  C   UNL     1      40.646  -8.546  10.867  1.00  0.00    -0.082 C 
HETATM   21  C   UNL     1      40.871  -9.705  11.820  1.00  0.00     0.034 C 
HETATM   22  C   UNL     1      42.191  -9.627  12.593  1.00  0.00     0.005 C 
HETATM   23  C   UNL     1      43.339  -9.238  11.672  1.00  0.00     0.004 C 
HETATM   24  C   UNL     1      43.073  -7.881  11.024  1.00  0.00     0.027 C 
HETATM   25  C   UNL     1      41.657  -7.713  10.551  1.00  0.00    -0.024 C 
ENDBRANCH  19  20
ENDBRANCH  18  19
ENDBRANCH  15  18
ENDBRANCH  11  14
BRANCH  10  26
HETATM   26  N   UNL     1      39.453 -13.012   5.437  1.00  0.00    -0.383 N 
HETATM   27  H   UNL     1      38.811 -13.449   6.096  1.00  0.00     0.157 HD
HETATM   28  H   UNL     1      39.541 -13.548   4.567  1.00  0.00     0.157 HD
ENDBRANCH  10  26
BRANCH   9  29
HETATM   29  N   UNL     1      42.175 -13.773   4.595  1.00  0.00    -0.176 NA
HETATM   30  C   UNL     1      42.638 -14.886   5.059  1.00  0.00     0.150 C 
BRANCH  30  31
HETATM   31  C   UNL     1      42.956 -16.001   4.143  1.00  0.00    -0.014 A 
HETATM   32  C   UNL     1      43.420 -17.219   4.654  1.00  0.00     0.049 A 
HETATM   33  C   UNL     1      43.728 -18.250   3.774  1.00  0.00     0.066 A 
HETATM   34  C   UNL     1      43.574 -18.086   2.402  1.00  0.00     0.036 A 
HETATM   35  C   UNL     1      43.108 -16.869   1.896  1.00  0.00     0.004 A 
HETATM   36  C   UNL     1      42.801 -15.821   2.766  1.00  0.00     0.013 A 
BRANCH  33  37
HETATM   37  O   UNL     1      44.191 -19.451   4.224  1.00  0.00    -0.361 OA
HETATM   38  H   UNL     1      44.076 -19.485   5.189  1.00  0.00     0.217 HD
ENDBRANCH  33  37
ENDBRANCH  30  31
ENDBRANCH   9  29
TORSDOF 8
ENDMDL
MODEL 7
REMARK VINA RESULT:      -8.8      2.330      3.354
REMARK  8 active torsions:
REMARK  status: ('A' for Active; 'I' for Inactive)
REMARK    1  A    between atoms: N_9  and  N_10 
REMARK    2  A    between atoms: C_11  and  C_12 
REMARK    3  A    between atoms: C_14  and  O_15 
REMARK    4  A    between atoms: C_19  and  N_20 
REMARK    5  A    between atoms: C_21  and  C_22 
REMARK       I    between atoms: C_22  and  N_23 
REMARK    6  A    between atoms: N_23  and  C_24 
REMARK    7  A    between atoms: C_24  and  C_25 
REMARK    8  A    between atoms: C_25  and  C_26 
ROOT
HETATM    1  C   UNL     1      43.989 -10.897   6.700  1.00  0.00     0.002 A 
HETATM    2  C   UNL     1      43.219 -10.832   5.537  1.00  0.00     0.034 A 
HETATM    3  C   UNL     1      42.743 -11.979   4.914  1.00  0.00     0.086 A 
HETATM    4  C   UNL     1      43.057 -13.243   5.482  1.00  0.00     0.088 A 
HETATM    5  N   UNL     1      42.637 -14.401   4.957  1.00  0.00    -0.225 NA
HETATM    6  C   UNL     1      41.873 -14.237   3.852  1.00  0.00     0.183 A 
HETATM    7  C   UNL     1      41.543 -13.017   3.280  1.00  0.00     0.125 A 
HETATM    8  N   UNL     1      41.998 -11.843   3.799  1.00  0.00    -0.242 NA
HETATM    9  N   UNL     1      41.292 -15.233   3.092  1.00  0.00    -0.197 N 
HETATM   10  C   UNL     1      40.570 -14.636   2.059  1.00  0.00     0.143 A 
HETATM   11  C   UNL     1      40.750 -13.259   2.128  1.00  0.00     0.110 A 
HETATM   12  C   UNL     1      43.828 -13.293   6.636  1.00  0.00     0.034 A 
HETATM   13  C   UNL     1      44.296 -12.133   7.251  1.00  0.00     0.002 A 
ENDROOT
BRANCH  11  14
HETATM   14  C   UNL     1      40.286 -12.310   1.127  1.00  0.00     0.257 C 
HETATM   15  N   UNL     1      41.178 -11.303   0.828  1.00  0.00    -0.356 N 
HETATM   16  H   UNL     1      42.056 -11.275   1.343  1.00  0.00     0.162 HD
HETATM   17  O   UNL     1      39.230 -12.457   0.514  1.00  0.00    -0.267 OA
BRANCH  15  18
HETATM   18  C   UNL     1      41.081 -10.584  -0.425  1.00  0.00     0.127 C 
BRANCH  18  19
HETATM   19  C   UNL     1      41.822  -9.239  -0.418  1.00  0.00     0.053 C 
BRANCH  19  20
HETATM   20  C   UNL     1      42.007  -8.499  -1.737  1.00  0.00    -0.082 C 
HETATM   21  C   UNL     1      43.156  -7.507  -1.730  1.00  0.00     0.034 C 
HETATM   22  C   UNL     1      43.151  -6.541  -2.918  1.00  0.00     0.005 C 
HETATM   23  C   UNL     1      42.863  -7.279  -4.218  1.00  0.00     0.004 C 
HETATM   24  C   UNL     1      41.507  -7.977  -4.152  1.00  0.00     0.027 C 
HETATM   25  C   UNL     1      41.253  -8.665  -2.841  1.00  0.00    -0.024 C 
ENDBRANCH  19  20
ENDBRANCH  18  19
ENDBRANCH  15  18
ENDBRANCH  11  14
BRANCH  10  26
HETATM   26  N   UNL     1      39.902 -15.370   1.124  1.00  0.00    -0.383 N 
HETATM   27  H   UNL     1      40.357 -15.572   0.235  1.00  0.00     0.157 HD
HETATM   28  H   UNL     1      38.900 -15.181   1.012  1.00  0.00     0.157 HD
ENDBRANCH  10  26
BRANCH   9  29
HETATM   29  N   UNL     1      41.561 -16.566   3.248  1.00  0.00    -0.176 NA
HETATM   30  C   UNL     1      42.725 -16.941   2.831  1.00  0.00     0.150 C 
BRANCH  30  31
HETATM   31  C   UNL     1      43.162 -18.342   3.003  1.00  0.00    -0.014 A 
HETATM   32  C   UNL     1      43.653 -18.777   4.240  1.00  0.00     0.049 A 
HETATM   33  C   UNL     1      44.074 -20.095   4.377  1.00  0.00     0.066 A 
HETATM   34  C   UNL     1      44.004 -20.980   3.308  1.00  0.00     0.036 A 
HETATM   35  C   UNL     1      43.509 -20.543   2.076  1.00  0.00     0.004 A 
HETATM   36  C   UNL     1      43.090 -19.220   1.919  1.00  0.00     0.013 A 
BRANCH  33  37
HETATM   37  O   UNL     1      44.568 -20.561   5.559  1.00  0.00    -0.361 OA
HETATM   38  H   UNL     1      43.930 -21.191   5.935  1.00  0.00     0.217 HD
ENDBRANCH  33  37
ENDBRANCH  30  31
ENDBRANCH   9  29
TORSDOF 8
ENDMDL
MODEL 8
REMARK VINA RESULT:      -8.8      2.584      6.352
REMARK  8 active torsions:
REMARK  status: ('A' for Active; 'I' for Inactive)
REMARK    1  A    between atoms: N_9  and  N_10 
REMARK    2  A    between atoms: C_11  and  C_12 
REMARK    3  A    between atoms: C_14  and  O_15 
REMARK    4  A    between atoms: C_19  and  N_20 
REMARK    5  A    between atoms: C_21  and  C_22 
REMARK       I    between atoms: C_22  and  N_23 
REMARK    6  A    between atoms: N_23  and  C_24 
REMARK    7  A    between atoms: C_24  and  C_25 
REMARK    8  A    between atoms: C_25  and  C_26 
ROOT
HETATM    1  C   UNL     1      43.240 -17.736   2.836  1.00  0.00     0.002 A 
HETATM    2  C   UNL     1      42.864 -16.524   2.253  1.00  0.00     0.034 A 
HETATM    3  C   UNL     1      42.864 -15.337   2.975  1.00  0.00     0.086 A 
HETATM    4  C   UNL     1      43.255 -15.371   4.340  1.00  0.00     0.088 A 
HETATM    5  N   UNL     1      43.293 -14.278   5.112  1.00  0.00    -0.225 NA
HETATM    6  C   UNL     1      42.942 -13.149   4.453  1.00  0.00     0.183 A 
HETATM    7  C   UNL     1      42.565 -13.084   3.120  1.00  0.00     0.125 A 
HETATM    8  N   UNL     1      42.498 -14.203   2.347  1.00  0.00    -0.242 NA
HETATM    9  N   UNL     1      42.888 -11.871   4.972  1.00  0.00    -0.197 N 
HETATM   10  C   UNL     1      42.506 -10.997   3.955  1.00  0.00     0.143 A 
HETATM   11  C   UNL     1      42.254 -11.736   2.804  1.00  0.00     0.110 A 
HETATM   12  C   UNL     1      43.622 -16.583   4.909  1.00  0.00     0.034 A 
HETATM   13  C   UNL     1      43.619 -17.766   4.171  1.00  0.00     0.002 A 
ENDROOT
BRANCH  11  14
HETATM   14  C   UNL     1      41.680 -11.197   1.580  1.00  0.00     0.257 C 
HETATM   15  N   UNL     1      40.556 -11.856   1.130  1.00  0.00    -0.356 N 
HETATM   16  H   UNL     1      40.242 -12.673   1.651  1.00  0.00     0.162 HD
HETATM   17  O   UNL     1      42.095 -10.168   1.051  1.00  0.00    -0.267 OA
BRANCH  15  18
HETATM   18  C   UNL     1      39.626 -11.196   0.238  1.00  0.00     0.127 C 
BRANCH  18  19
HETATM   19  C   UNL     1      39.894 -11.484  -1.246  1.00  0.00     0.053 C 
BRANCH  19  20
HETATM   20  C   UNL     1      39.224 -12.691  -1.891  1.00  0.00    -0.082 C 
HETATM   21  C   UNL     1      37.908 -12.372  -2.576  1.00  0.00     0.034 C 
HETATM   22  C   UNL     1      37.080 -13.608  -2.939  1.00  0.00     0.005 C 
HETATM   23  C   UNL     1      37.956 -14.686  -3.562  1.00  0.00     0.004 C 
HETATM   24  C   UNL     1      39.061 -15.106  -2.594  1.00  0.00     0.027 C 
HETATM   25  C   UNL     1      39.705 -13.950  -1.885  1.00  0.00    -0.024 C 
ENDBRANCH  19  20
ENDBRANCH  18  19
ENDBRANCH  15  18
ENDBRANCH  11  14
BRANCH  10  26
HETATM   26  N   UNL     1      42.342  -9.660   4.171  1.00  0.00    -0.383 N 
HETATM   27  H   UNL     1      43.106  -9.024   3.949  1.00  0.00     0.157 HD
HETATM   28  H   UNL     1      41.843  -9.385   5.024  1.00  0.00     0.157 HD
ENDBRANCH  10  26
BRANCH   9  29
HETATM   29  N   UNL     1      43.010 -11.583   6.305  1.00  0.00    -0.176 NA
HETATM   30  C   UNL     1      44.113 -10.997   6.638  1.00  0.00     0.150 C 
BRANCH  30  31
HETATM   31  C   UNL     1      44.339 -10.574   8.036  1.00  0.00    -0.014 A 
HETATM   32  C   UNL     1      43.372 -10.838   9.014  1.00  0.00     0.049 A 
HETATM   33  C   UNL     1      43.596 -10.417  10.319  1.00  0.00     0.066 A 
HETATM   34  C   UNL     1      44.766  -9.749  10.662  1.00  0.00     0.036 A 
HETATM   35  C   UNL     1      45.730  -9.490   9.684  1.00  0.00     0.004 A 
HETATM   36  C   UNL     1      45.517  -9.899   8.365  1.00  0.00     0.013 A 
BRANCH  33  37
HETATM   37  O   UNL     1      42.680 -10.643  11.303  1.00  0.00    -0.361 OA
HETATM   38  H   UNL     1      42.966 -11.415  11.822  1.00  0.00     0.217 HD
ENDBRANCH  33  37
ENDBRANCH  30  31
ENDBRANCH   9  29
TORSDOF 8
ENDMDL
MODEL 9
REMARK VINA RESULT:      -8.5      2.631      3.846
REMARK  8 active torsions:
REMARK  status: ('A' for Active; 'I' for Inactive)
REMARK    1  A    between atoms: N_9  and  N_10 
REMARK    2  A    between atoms: C_11  and  C_12 
REMARK    3  A    between atoms: C_14  and  O_15 
REMARK    4  A    between atoms: C_19  and  N_20 
REMARK    5  A    between atoms: C_21  and  C_22 
REMARK       I    between atoms: C_22  and  N_23 
REMARK    6  A    between atoms: N_23  and  C_24 
REMARK    7  A    between atoms: C_24  and  C_25 
REMARK    8  A    between atoms: C_25  and  C_26 
ROOT
HETATM    1  C   UNL     1      45.383  -8.941   8.517  1.00  0.00     0.002 A 
HETATM    2  C   UNL     1      44.020  -9.011   8.224  1.00  0.00     0.034 A 
HETATM    3  C   UNL     1      43.488 -10.050   7.470  1.00  0.00     0.086 A 
HETATM    4  C   UNL     1      44.365 -11.059   6.989  1.00  0.00     0.088 A 
HETATM    5  N   UNL     1      43.944 -12.101   6.262  1.00  0.00    -0.225 NA
HETATM    6  C   UNL     1      42.606 -12.099   6.055  1.00  0.00     0.183 A 
HETATM    7  C   UNL     1      41.726 -11.133   6.518  1.00  0.00     0.125 A 
HETATM    8  N   UNL     1      42.162 -10.059   7.232  1.00  0.00    -0.242 NA
HETATM    9  N   UNL     1      41.877 -13.036   5.350  1.00  0.00    -0.197 N 
HETATM   10  C   UNL     1      40.531 -12.675   5.399  1.00  0.00     0.143 A 
HETATM   11  C   UNL     1      40.418 -11.469   6.082  1.00  0.00     0.110 A 
HETATM   12  C   UNL     1      45.720 -10.976   7.284  1.00  0.00     0.034 A 
HETATM   13  C   UNL     1      46.237  -9.927   8.044  1.00  0.00     0.002 A 
ENDROOT
BRANCH  11  14
HETATM   14  C   UNL     1      39.192 -10.692   6.197  1.00  0.00     0.257 C 
HETATM   15  N   UNL     1      39.291  -9.389   5.760  1.00  0.00    -0.356 N 
HETATM   16  H   UNL     1      40.199  -9.063   5.433  1.00  0.00     0.162 HD
HETATM   17  O   UNL     1      38.124 -11.189   6.550  1.00  0.00    -0.267 OA
BRANCH  15  18
HETATM   18  C   UNL     1      38.105  -8.651   5.378  1.00  0.00     0.127 C 
BRANCH  18  19
HETATM   19  C   UNL     1      38.101  -8.220   3.905  1.00  0.00     0.053 C 
BRANCH  19  20
HETATM   20  C   UNL     1      38.877  -9.058   2.895  1.00  0.00    -0.082 C 
HETATM   21  C   UNL     1      38.233 -10.395   2.580  1.00  0.00     0.034 C 
HETATM   22  C   UNL     1      39.150 -11.365   1.829  1.00  0.00     0.005 C 
HETATM   23  C   UNL     1      39.889 -10.655   0.704  1.00  0.00     0.004 C 
HETATM   24  C   UNL     1      40.737  -9.511   1.256  1.00  0.00     0.027 C 
HETATM   25  C   UNL     1      40.033  -8.698   2.305  1.00  0.00    -0.024 C 
ENDBRANCH  19  20
ENDBRANCH  18  19
ENDBRANCH  15  18
ENDBRANCH  11  14
BRANCH  10  26
HETATM   26  N   UNL     1      39.563 -13.400   4.769  1.00  0.00    -0.383 N 
HETATM   27  H   UNL     1      38.759 -12.915   4.372  1.00  0.00     0.157 HD
HETATM   28  H   UNL     1      39.303 -14.298   5.193  1.00  0.00     0.157 HD
ENDBRANCH  10  26
BRANCH   9  29
HETATM   29  N   UNL     1      42.439 -14.028   4.591  1.00  0.00    -0.176 NA
HETATM   30  C   UNL     1      42.422 -15.203   5.129  1.00  0.00     0.150 C 
BRANCH  30  31
HETATM   31  C   UNL     1      42.938 -16.369   4.384  1.00  0.00    -0.014 A 
HETATM   32  C   UNL     1      43.457 -17.471   5.076  1.00  0.00     0.049 A 
HETATM   33  C   UNL     1      43.952 -18.552   4.357  1.00  0.00     0.066 A 
HETATM   34  C   UNL     1      43.930 -18.553   2.967  1.00  0.00     0.036 A 
HETATM   35  C   UNL     1      43.409 -17.453   2.279  1.00  0.00     0.004 A 
HETATM   36  C   UNL     1      42.915 -16.355   2.987  1.00  0.00     0.013 A 
BRANCH  33  37
HETATM   37  O   UNL     1      44.474 -19.642   4.987  1.00  0.00    -0.361 OA
HETATM   38  H   UNL     1      44.522 -19.456   5.940  1.00  0.00     0.217 HD
ENDBRANCH  33  37
ENDBRANCH  30  31
ENDBRANCH   9  29
TORSDOF 8
ENDMDL
MODEL 10
REMARK VINA RESULT:      -8.4      3.827      6.457
REMARK  8 active torsions:
REMARK  status: ('A' for Active; 'I' for Inactive)
REMARK    1  A    between atoms: N_9  and  N_10 
REMARK    2  A    between atoms: C_11  and  C_12 
REMARK    3  A    between atoms: C_14  and  O_15 
REMARK    4  A    between atoms: C_19  and  N_20 
REMARK    5  A    between atoms: C_21  and  C_22 
REMARK       I    between atoms: C_22  and  N_23 
REMARK    6  A    between atoms: N_23  and  C_24 
REMARK    7  A    between atoms: C_24  and  C_25 
REMARK    8  A    between atoms: C_25  and  C_26 
ROOT
HETATM    1  C   UNL     1      45.747  -9.118   8.344  1.00  0.00     0.002 A 
HETATM    2  C   UNL     1      44.365  -9.123   8.142  1.00  0.00     0.034 A 
HETATM    3  C   UNL     1      43.741 -10.121   7.404  1.00  0.00     0.086 A 
HETATM    4  C   UNL     1      44.539 -11.156   6.846  1.00  0.00     0.088 A 
HETATM    5  N   UNL     1      44.026 -12.163   6.129  1.00  0.00    -0.225 NA
HETATM    6  C   UNL     1      42.679 -12.100   6.012  1.00  0.00     0.183 A 
HETATM    7  C   UNL     1      41.874 -11.108   6.552  1.00  0.00     0.125 A 
HETATM    8  N   UNL     1      42.403 -10.069   7.255  1.00  0.00    -0.242 NA
HETATM    9  N   UNL     1      41.864 -12.989   5.340  1.00  0.00    -0.197 N 
HETATM   10  C   UNL     1      40.541 -12.573   5.485  1.00  0.00     0.143 A 
HETATM   11  C   UNL     1      40.527 -11.378   6.197  1.00  0.00     0.110 A 
HETATM   12  C   UNL     1      45.913 -11.136   7.052  1.00  0.00     0.034 A 
HETATM   13  C   UNL     1      46.524 -10.128   7.796  1.00  0.00     0.002 A 
ENDROOT
BRANCH  11  14
HETATM   14  C   UNL     1      39.346 -10.553   6.409  1.00  0.00     0.257 C 
HETATM   15  N   UNL     1      39.529  -9.209   6.165  1.00  0.00    -0.356 N 
HETATM   16  H   UNL     1      40.461  -8.895   5.899  1.00  0.00     0.162 HD
HETATM   17  O   UNL     1      38.245 -11.030   6.675  1.00  0.00    -0.267 OA
BRANCH  15  18
HETATM   18  C   UNL     1      38.396  -8.353   5.880  1.00  0.00     0.127 C 
BRANCH  18  19
HETATM   19  C   UNL     1      38.515  -6.955   6.500  1.00  0.00     0.053 C 
BRANCH  19  20
HETATM   20  C   UNL     1      39.424  -6.765   7.709  1.00  0.00    -0.082 C 
HETATM   21  C   UNL     1      40.793  -6.206   7.369  1.00  0.00     0.034 C 
HETATM   22  C   UNL     1      41.809  -6.313   8.509  1.00  0.00     0.005 C 
HETATM   23  C   UNL     1      41.186  -5.897   9.834  1.00  0.00     0.004 C 
HETATM   24  C   UNL     1      39.986  -6.781  10.167  1.00  0.00     0.027 C 
HETATM   25  C   UNL     1      39.098  -7.049   8.985  1.00  0.00    -0.024 C 
ENDBRANCH  19  20
ENDBRANCH  18  19
ENDBRANCH  15  18
ENDBRANCH  11  14
BRANCH  10  26
HETATM   26  N   UNL     1      39.503 -13.242   4.907  1.00  0.00    -0.383 N 
HETATM   27  H   UNL     1      38.598 -12.781   4.830  1.00  0.00     0.157 HD
HETATM   28  H   UNL     1      39.413 -14.240   5.127  1.00  0.00     0.157 HD
ENDBRANCH  10  26
BRANCH   9  29
HETATM   29  N   UNL     1      42.331 -13.986   4.525  1.00  0.00    -0.176 NA
HETATM   30  C   UNL     1      42.426 -15.148   5.084  1.00  0.00     0.150 C 
BRANCH  30  31
HETATM   31  C   UNL     1      42.855 -16.321   4.295  1.00  0.00    -0.014 A 
HETATM   32  C   UNL     1      43.536 -17.374   4.917  1.00  0.00     0.049 A 
HETATM   33  C   UNL     1      43.945 -18.462   4.154  1.00  0.00     0.066 A 
HETATM   34  C   UNL     1      43.677 -18.516   2.790  1.00  0.00     0.036 A 
HETATM   35  C   UNL     1      42.994 -17.464   2.174  1.00  0.00     0.004 A 
HETATM   36  C   UNL     1      42.584 -16.360   2.925  1.00  0.00     0.013 A 
BRANCH  33  37
HETATM   37  O   UNL     1      44.619 -19.506   4.713  1.00  0.00    -0.361 OA
HETATM   38  H   UNL     1      44.693 -20.216   4.052  1.00  0.00     0.217 HD
ENDBRANCH  33  37
ENDBRANCH  30  31
ENDBRANCH   9  29
TORSDOF 8
ENDMDL
