MODEL 1
REMARK VINA RESULT:      -9.5      0.000      0.000
REMARK  3 active torsions:
REMARK  status: ('A' for Active; 'I' for Inactive)
REMARK    1  A    between atoms: C_10  and  C_11 
REMARK    2  A    between atoms: C_13  and  C_14 
REMARK    3  A    between atoms: C_22  and  O_23 
ROOT
HETATM    1  C   UNL     1      43.951 -20.861   3.947  1.00  0.00     0.001 A 
HETATM    2  C   UNL     1      43.829 -19.900   4.956  1.00  0.00     0.015 A 
HETATM    3  C   UNL     1      43.602 -18.561   4.626  1.00  0.00     0.013 A 
HETATM    4  C   UNL     1      43.500 -18.198   3.275  1.00  0.00     0.046 A 
HETATM    5  C   UNL     1      43.236 -16.775   2.922  1.00  0.00     0.271 A 
HETATM    6  O   UNL     1      43.027 -16.436   1.763  1.00  0.00    -0.266 OA
HETATM    7  N   UNL     1      43.223 -15.844   3.936  1.00  0.00    -0.257 N 
HETATM    8  N   UNL     1      43.325 -16.210   5.233  1.00  0.00    -0.229 N 
HETATM    9  C   UNL     1      43.470 -17.512   5.619  1.00  0.00     0.122 A 
HETATM   10  C   UNL     1      43.280 -15.389   6.338  1.00  0.00     0.162 A 
HETATM   11  N   UNL     1      43.301 -16.140   7.431  1.00  0.00    -0.202 NA
HETATM   12  C   UNL     1      43.436 -17.424   6.990  1.00  0.00     0.194 A 
HETATM   13  C   UNL     1      43.618 -19.159   2.266  1.00  0.00     0.018 A 
HETATM   14  C   UNL     1      43.846 -20.492   2.605  1.00  0.00     0.001 A 
HETATM   15  H   UNL     1      42.863 -14.924   3.726  1.00  0.00     0.191 HD
ENDROOT
BRANCH  10  16
HETATM   16  C   UNL     1      43.188 -13.925   6.335  1.00  0.00     0.013 A 
HETATM   17  C   UNL     1      44.283 -13.172   6.788  1.00  0.00     0.031 A 
HETATM   18  C   UNL     1      44.253 -11.768   6.784  1.00  0.00     0.048 A 
HETATM   19  C   UNL     1      43.100 -11.117   6.321  1.00  0.00     0.016 A 
HETATM   20  C   UNL     1      42.014 -11.854   5.850  1.00  0.00     0.002 A 
HETATM   21  C   UNL     1      42.062 -13.250   5.848  1.00  0.00     0.015 A 
BRANCH  18  22
HETATM   22  C   UNL     1      45.428 -10.962   7.280  1.00  0.00     0.417 C 
HETATM   23  F   UNL     1      45.737 -11.195   8.586  1.00  0.00    -0.166 F 
HETATM   24  F   UNL     1      46.569 -11.211   6.578  1.00  0.00    -0.166 F 
HETATM   25  F   UNL     1      45.213  -9.622   7.181  1.00  0.00    -0.166 F 
ENDBRANCH  18  22
ENDBRANCH  10  16
BRANCH  12  26
HETATM   26  O   UNL     1      43.520 -18.464   7.821  1.00  0.00    -0.343 OA
HETATM   27  H   UNL     1      43.662 -19.245   7.258  1.00  0.00     0.219 HD
ENDBRANCH  12  26
TORSDOF 3
ENDMDL
MODEL 2
REMARK VINA RESULT:      -9.4      4.945      8.060
REMARK  3 active torsions:
REMARK  status: ('A' for Active; 'I' for Inactive)
REMARK    1  A    between atoms: C_10  and  C_11 
REMARK    2  A    between atoms: C_13  and  C_14 
REMARK    3  A    between atoms: C_22  and  O_23 
ROOT
HETATM    1  C   UNL     1      39.021 -10.382   2.634  1.00  0.00     0.001 A 
HETATM    2  C   UNL     1      39.776 -11.435   2.106  1.00  0.00     0.015 A 
HETATM    3  C   UNL     1      40.200 -12.478   2.933  1.00  0.00     0.013 A 
HETATM    4  C   UNL     1      39.860 -12.453   4.294  1.00  0.00     0.046 A 
HETATM    5  C   UNL     1      40.293 -13.575   5.172  1.00  0.00     0.271 A 
HETATM    6  O   UNL     1      39.921 -13.649   6.339  1.00  0.00    -0.266 OA
HETATM    7  N   UNL     1      41.118 -14.539   4.639  1.00  0.00    -0.257 N 
HETATM    8  N   UNL     1      41.438 -14.549   3.326  1.00  0.00    -0.229 N 
HETATM    9  C   UNL     1      40.989 -13.597   2.455  1.00  0.00     0.122 A 
HETATM   10  C   UNL     1      42.211 -15.475   2.662  1.00  0.00     0.162 A 
HETATM   11  N   UNL     1      42.195 -15.195   1.366  1.00  0.00    -0.202 NA
HETATM   12  C   UNL     1      41.470 -14.046   1.248  1.00  0.00     0.194 A 
HETATM   13  C   UNL     1      39.102 -11.403   4.822  1.00  0.00     0.018 A 
HETATM   14  C   UNL     1      38.686 -10.365   3.989  1.00  0.00     0.001 A 
HETATM   15  H   UNL     1      41.256 -15.387   5.170  1.00  0.00     0.191 HD
ENDROOT
BRANCH  10  16
HETATM   16  C   UNL     1      42.916 -16.613   3.260  1.00  0.00     0.013 A 
HETATM   17  C   UNL     1      42.886 -17.855   2.606  1.00  0.00     0.031 A 
HETATM   18  C   UNL     1      43.564 -18.969   3.126  1.00  0.00     0.048 A 
HETATM   19  C   UNL     1      44.277 -18.828   4.326  1.00  0.00     0.016 A 
HETATM   20  C   UNL     1      44.331 -17.596   4.974  1.00  0.00     0.002 A 
HETATM   21  C   UNL     1      43.663 -16.492   4.439  1.00  0.00     0.015 A 
BRANCH  18  22
HETATM   22  C   UNL     1      43.521 -20.305   2.425  1.00  0.00     0.417 C 
HETATM   23  F   UNL     1      42.322 -20.575   1.838  1.00  0.00    -0.166 F 
HETATM   24  F   UNL     1      44.451 -20.407   1.434  1.00  0.00    -0.166 F 
HETATM   25  F   UNL     1      43.764 -21.341   3.273  1.00  0.00    -0.166 F 
ENDBRANCH  18  22
ENDBRANCH  10  16
BRANCH  12  26
HETATM   26  O   UNL     1      41.261 -13.444   0.075  1.00  0.00    -0.343 OA
HETATM   27  H   UNL     1      41.802 -13.929  -0.573  1.00  0.00     0.219 HD
ENDBRANCH  12  26
TORSDOF 3
ENDMDL
MODEL 3
REMARK VINA RESULT:      -9.2      1.012      2.893
REMARK  3 active torsions:
REMARK  status: ('A' for Active; 'I' for Inactive)
REMARK    1  A    between atoms: C_10  and  C_11 
REMARK    2  A    between atoms: C_13  and  C_14 
REMARK    3  A    between atoms: C_22  and  O_23 
ROOT
HETATM    1  C   UNL     1      43.825 -20.147   2.902  1.00  0.00     0.001 A 
HETATM    2  C   UNL     1      43.617 -18.792   2.623  1.00  0.00     0.015 A 
HETATM    3  C   UNL     1      43.532 -17.866   3.666  1.00  0.00     0.013 A 
HETATM    4  C   UNL     1      43.655 -18.313   4.990  1.00  0.00     0.046 A 
HETATM    5  C   UNL     1      43.586 -17.324   6.101  1.00  0.00     0.271 A 
HETATM    6  O   UNL     1      43.802 -17.656   7.262  1.00  0.00    -0.266 OA
HETATM    7  N   UNL     1      43.281 -16.018   5.793  1.00  0.00    -0.257 N 
HETATM    8  N   UNL     1      43.162 -15.602   4.512  1.00  0.00    -0.229 N 
HETATM    9  C   UNL     1      43.313 -16.448   3.450  1.00  0.00     0.122 A 
HETATM   10  C   UNL     1      42.907 -14.323   4.069  1.00  0.00     0.162 A 
HETATM   11  N   UNL     1      42.980 -14.306   2.745  1.00  0.00    -0.202 NA
HETATM   12  C   UNL     1      43.206 -15.600   2.374  1.00  0.00     0.194 A 
HETATM   13  C   UNL     1      43.866 -19.667   5.270  1.00  0.00     0.018 A 
HETATM   14  C   UNL     1      43.948 -20.584   4.222  1.00  0.00     0.001 A 
HETATM   15  H   UNL     1      43.417 -15.320   6.510  1.00  0.00     0.191 HD
ENDROOT
BRANCH  10  16
HETATM   16  C   UNL     1      42.632 -13.149   4.903  1.00  0.00     0.013 A 
HETATM   17  C   UNL     1      43.690 -12.543   5.599  1.00  0.00     0.031 A 
HETATM   18  C   UNL     1      43.482 -11.404   6.393  1.00  0.00     0.048 A 
HETATM   19  C   UNL     1      42.187 -10.873   6.489  1.00  0.00     0.016 A 
HETATM   20  C   UNL     1      41.132 -11.454   5.787  1.00  0.00     0.002 A 
HETATM   21  C   UNL     1      41.355 -12.580   4.991  1.00  0.00     0.015 A 
BRANCH  18  22
HETATM   22  C   UNL     1      44.620 -10.762   7.147  1.00  0.00     0.417 C 
HETATM   23  F   UNL     1      44.345  -9.501   7.581  1.00  0.00    -0.166 F 
HETATM   24  F   UNL     1      44.978 -11.466   8.257  1.00  0.00    -0.166 F 
HETATM   25  F   UNL     1      45.747 -10.659   6.391  1.00  0.00    -0.166 F 
ENDBRANCH  18  22
ENDBRANCH  10  16
BRANCH  12  26
HETATM   26  O   UNL     1      43.313 -15.973   1.097  1.00  0.00    -0.343 OA
HETATM   27  H   UNL     1      42.505 -15.655   0.658  1.00  0.00     0.219 HD
ENDBRANCH  12  26
TORSDOF 3
ENDMDL
MODEL 4
REMARK VINA RESULT:      -8.9      2.010      2.597
REMARK  3 active torsions:
REMARK  status: ('A' for Active; 'I' for Inactive)
REMARK    1  A    between atoms: C_10  and  C_11 
REMARK    2  A    between atoms: C_13  and  C_14 
REMARK    3  A    between atoms: C_22  and  O_23 
ROOT
HETATM    1  C   UNL     1      43.958 -20.867   4.046  1.00  0.00     0.001 A 
HETATM    2  C   UNL     1      43.849 -19.888   5.039  1.00  0.00     0.015 A 
HETATM    3  C   UNL     1      43.628 -18.554   4.687  1.00  0.00     0.013 A 
HETATM    4  C   UNL     1      43.519 -18.213   3.331  1.00  0.00     0.046 A 
HETATM    5  C   UNL     1      43.262 -16.795   2.955  1.00  0.00     0.271 A 
HETATM    6  O   UNL     1      43.047 -16.475   1.791  1.00  0.00    -0.266 OA
HETATM    7  N   UNL     1      43.262 -15.847   3.952  1.00  0.00    -0.257 N 
HETATM    8  N   UNL     1      43.371 -16.190   5.255  1.00  0.00    -0.229 N 
HETATM    9  C   UNL     1      43.511 -17.486   5.662  1.00  0.00     0.122 A 
HETATM   10  C   UNL     1      43.339 -15.349   6.345  1.00  0.00     0.162 A 
HETATM   11  N   UNL     1      43.363 -16.082   7.451  1.00  0.00    -0.202 NA
HETATM   12  C   UNL     1      43.487 -17.374   7.032  1.00  0.00     0.194 A 
HETATM   13  C   UNL     1      43.624 -19.193   2.338  1.00  0.00     0.018 A 
HETATM   14  C   UNL     1      43.846 -20.521   2.699  1.00  0.00     0.001 A 
HETATM   15  H   UNL     1      42.906 -14.928   3.729  1.00  0.00     0.191 HD
ENDROOT
BRANCH  10  16
HETATM   16  C   UNL     1      43.257 -13.886   6.317  1.00  0.00     0.013 A 
HETATM   17  C   UNL     1      42.027 -13.277   6.022  1.00  0.00     0.031 A 
HETATM   18  C   UNL     1      41.891 -11.880   6.005  1.00  0.00     0.048 A 
HETATM   19  C   UNL     1      43.014 -11.087   6.284  1.00  0.00     0.016 A 
HETATM   20  C   UNL     1      44.236 -11.680   6.598  1.00  0.00     0.002 A 
HETATM   21  C   UNL     1      44.354 -13.071   6.624  1.00  0.00     0.015 A 
BRANCH  18  22
HETATM   22  C   UNL     1      40.569 -11.229   5.678  1.00  0.00     0.417 C 
HETATM   23  F   UNL     1      40.636  -9.872   5.587  1.00  0.00    -0.166 F 
HETATM   24  F   UNL     1      40.055 -11.656   4.490  1.00  0.00    -0.166 F 
HETATM   25  F   UNL     1      39.618 -11.495   6.614  1.00  0.00    -0.166 F 
ENDBRANCH  18  22
ENDBRANCH  10  16
BRANCH  12  26
HETATM   26  O   UNL     1      43.571 -18.400   7.881  1.00  0.00    -0.343 OA
HETATM   27  H   UNL     1      43.451 -18.021   8.770  1.00  0.00     0.219 HD
ENDBRANCH  12  26
TORSDOF 3
ENDMDL
MODEL 5
REMARK VINA RESULT:      -8.7      4.099      7.235
REMARK  3 active torsions:
REMARK  status: ('A' for Active; 'I' for Inactive)
REMARK    1  A    between atoms: C_10  and  C_11 
REMARK    2  A    between atoms: C_13  and  C_14 
REMARK    3  A    between atoms: C_22  and  O_23 
ROOT
HETATM    1  C   UNL     1      39.843 -10.476   6.132  1.00  0.00     0.001 A 
HETATM    2  C   UNL     1      40.827 -11.455   6.303  1.00  0.00     0.015 A 
HETATM    3  C   UNL     1      40.953 -12.493   5.375  1.00  0.00     0.013 A 
HETATM    4  C   UNL     1      40.082 -12.538   4.277  1.00  0.00     0.046 A 
HETATM    5  C   UNL     1      40.229 -13.631   3.276  1.00  0.00     0.271 A 
HETATM    6  O   UNL     1      39.564 -13.643   2.246  1.00  0.00    -0.266 OA
HETATM    7  N   UNL     1      41.140 -14.630   3.532  1.00  0.00    -0.257 N 
HETATM    8  N   UNL     1      41.972 -14.574   4.596  1.00  0.00    -0.229 N 
HETATM    9  C   UNL     1      41.946 -13.544   5.492  1.00  0.00     0.122 A 
HETATM   10  C   UNL     1      42.953 -15.478   4.937  1.00  0.00     0.162 A 
HETATM   11  N   UNL     1      43.623 -15.008   5.982  1.00  0.00    -0.202 NA
HETATM   12  C   UNL     1      42.996 -13.846   6.327  1.00  0.00     0.194 A 
HETATM   13  C   UNL     1      39.100 -11.557   4.103  1.00  0.00     0.018 A 
HETATM   14  C   UNL     1      38.981 -10.527   5.035  1.00  0.00     0.001 A 
HETATM   15  H   UNL     1      41.373 -15.260   2.777  1.00  0.00     0.191 HD
ENDROOT
BRANCH  10  16
HETATM   16  C   UNL     1      43.253 -16.740   4.255  1.00  0.00     0.013 A 
HETATM   17  C   UNL     1      43.478 -17.894   5.022  1.00  0.00     0.031 A 
HETATM   18  C   UNL     1      43.746 -19.132   4.416  1.00  0.00     0.048 A 
HETATM   19  C   UNL     1      43.794 -19.203   3.015  1.00  0.00     0.016 A 
HETATM   20  C   UNL     1      43.552 -18.068   2.242  1.00  0.00     0.002 A 
HETATM   21  C   UNL     1      43.274 -16.846   2.858  1.00  0.00     0.015 A 
BRANCH  18  22
HETATM   22  C   UNL     1      43.997 -20.368   5.244  1.00  0.00     0.417 C 
HETATM   23  F   UNL     1      43.275 -21.449   4.844  1.00  0.00    -0.166 F 
HETATM   24  F   UNL     1      45.302 -20.761   5.217  1.00  0.00    -0.166 F 
HETATM   25  F   UNL     1      43.692 -20.179   6.557  1.00  0.00    -0.166 F 
ENDBRANCH  18  22
ENDBRANCH  10  16
BRANCH  12  26
HETATM   26  O   UNL     1      43.384 -13.101   7.363  1.00  0.00    -0.343 OA
HETATM   27  H   UNL     1      42.601 -13.011   7.934  1.00  0.00     0.219 HD
ENDBRANCH  12  26
TORSDOF 3
ENDMDL
MODEL 6
REMARK VINA RESULT:      -8.6      4.787      7.268
REMARK  3 active torsions:
REMARK  status: ('A' for Active; 'I' for Inactive)
REMARK    1  A    between atoms: C_10  and  C_11 
REMARK    2  A    between atoms: C_13  and  C_14 
REMARK    3  A    between atoms: C_22  and  O_23 
ROOT
HETATM    1  C   UNL     1      39.293 -10.250  -0.464  1.00  0.00     0.001 A 
HETATM    2  C   UNL     1      40.276 -10.710   0.418  1.00  0.00     0.015 A 
HETATM    3  C   UNL     1      40.505 -12.082   0.559  1.00  0.00     0.013 A 
HETATM    4  C   UNL     1      39.737 -12.985  -0.191  1.00  0.00     0.046 A 
HETATM    5  C   UNL     1      39.994 -14.445  -0.058  1.00  0.00     0.271 A 
HETATM    6  O   UNL     1      39.425 -15.259  -0.777  1.00  0.00    -0.266 OA
HETATM    7  N   UNL     1      40.898 -14.863   0.892  1.00  0.00    -0.257 N 
HETATM    8  N   UNL     1      41.630 -13.982   1.609  1.00  0.00    -0.229 N 
HETATM    9  C   UNL     1      41.504 -12.630   1.457  1.00  0.00     0.122 A 
HETATM   10  C   UNL     1      42.594 -14.267   2.550  1.00  0.00     0.162 A 
HETATM   11  N   UNL     1      43.157 -13.132   2.943  1.00  0.00    -0.202 NA
HETATM   12  C   UNL     1      42.480 -12.142   2.293  1.00  0.00     0.194 A 
HETATM   13  C   UNL     1      38.756 -12.524  -1.076  1.00  0.00     0.018 A 
HETATM   14  C   UNL     1      38.534 -11.154  -1.208  1.00  0.00     0.001 A 
HETATM   15  H   UNL     1      41.210 -15.824   0.856  1.00  0.00     0.191 HD
ENDROOT
BRANCH  10  16
HETATM   16  C   UNL     1      42.978 -15.598   3.031  1.00  0.00     0.013 A 
HETATM   17  C   UNL     1      43.020 -15.839   4.413  1.00  0.00     0.031 A 
HETATM   18  C   UNL     1      43.360 -17.102   4.923  1.00  0.00     0.048 A 
HETATM   19  C   UNL     1      43.666 -18.134   4.024  1.00  0.00     0.016 A 
HETATM   20  C   UNL     1      43.608 -17.913   2.649  1.00  0.00     0.002 A 
HETATM   21  C   UNL     1      43.257 -16.655   2.155  1.00  0.00     0.015 A 
BRANCH  18  22
HETATM   22  C   UNL     1      43.414 -17.353   6.410  1.00  0.00     0.417 C 
HETATM   23  F   UNL     1      44.500 -16.801   7.018  1.00  0.00    -0.166 F 
HETATM   24  F   UNL     1      42.328 -16.856   7.066  1.00  0.00    -0.166 F 
HETATM   25  F   UNL     1      43.454 -18.681   6.707  1.00  0.00    -0.166 F 
ENDBRANCH  18  22
ENDBRANCH  10  16
BRANCH  12  26
HETATM   26  O   UNL     1      42.758 -10.849   2.464  1.00  0.00    -0.343 OA
HETATM   27  H   UNL     1      43.730 -10.784   2.479  1.00  0.00     0.219 HD
ENDBRANCH  12  26
TORSDOF 3
ENDMDL
MODEL 7
REMARK VINA RESULT:      -8.6      2.559      4.063
REMARK  3 active torsions:
REMARK  status: ('A' for Active; 'I' for Inactive)
REMARK    1  A    between atoms: C_10  and  C_11 
REMARK    2  A    between atoms: C_13  and  C_14 
REMARK    3  A    between atoms: C_22  and  O_23 
ROOT
HETATM    1  C   UNL     1      43.811 -19.935   2.943  1.00  0.00     0.001 A 
HETATM    2  C   UNL     1      43.580 -18.587   2.647  1.00  0.00     0.015 A 
HETATM    3  C   UNL     1      43.530 -17.641   3.674  1.00  0.00     0.013 A 
HETATM    4  C   UNL     1      43.713 -18.061   5.000  1.00  0.00     0.046 A 
HETATM    5  C   UNL     1      43.681 -17.051   6.094  1.00  0.00     0.271 A 
HETATM    6  O   UNL     1      43.949 -17.358   7.250  1.00  0.00    -0.266 OA
HETATM    7  N   UNL     1      43.352 -15.754   5.773  1.00  0.00    -0.257 N 
HETATM    8  N   UNL     1      43.176 -15.364   4.491  1.00  0.00    -0.229 N 
HETATM    9  C   UNL     1      43.289 -16.230   3.440  1.00  0.00     0.122 A 
HETATM   10  C   UNL     1      42.891 -14.097   4.035  1.00  0.00     0.162 A 
HETATM   11  N   UNL     1      42.908 -14.105   2.708  1.00  0.00    -0.202 NA
HETATM   12  C   UNL     1      43.130 -15.403   2.353  1.00  0.00     0.194 A 
HETATM   13  C   UNL     1      43.948 -19.408   5.297  1.00  0.00     0.018 A 
HETATM   14  C   UNL     1      43.994 -20.344   4.265  1.00  0.00     0.001 A 
HETATM   15  H   UNL     1      43.512 -15.041   6.471  1.00  0.00     0.191 HD
ENDROOT
BRANCH  10  16
HETATM   16  C   UNL     1      42.640 -12.909   4.857  1.00  0.00     0.013 A 
HETATM   17  C   UNL     1      41.315 -12.540   5.138  1.00  0.00     0.031 A 
HETATM   18  C   UNL     1      41.024 -11.425   5.939  1.00  0.00     0.048 A 
HETATM   19  C   UNL     1      42.085 -10.668   6.458  1.00  0.00     0.016 A 
HETATM   20  C   UNL     1      43.405 -11.035   6.202  1.00  0.00     0.002 A 
HETATM   21  C   UNL     1      43.681 -12.155   5.414  1.00  0.00     0.015 A 
BRANCH  18  22
HETATM   22  C   UNL     1      39.598 -11.026   6.231  1.00  0.00     0.417 C 
HETATM   23  F   UNL     1      39.325  -9.724   5.942  1.00  0.00    -0.166 F 
HETATM   24  F   UNL     1      38.693 -11.761   5.525  1.00  0.00    -0.166 F 
HETATM   25  F   UNL     1      39.273 -11.195   7.542  1.00  0.00    -0.166 F 
ENDBRANCH  18  22
ENDBRANCH  10  16
BRANCH  12  26
HETATM   26  O   UNL     1      43.187 -15.801   1.081  1.00  0.00    -0.343 OA
HETATM   27  H   UNL     1      43.998 -16.333   1.003  1.00  0.00     0.219 HD
ENDBRANCH  12  26
TORSDOF 3
ENDMDL
MODEL 8
REMARK VINA RESULT:      -8.4     15.801     17.513
REMARK  3 active torsions:
REMARK  status: ('A' for Active; 'I' for Inactive)
REMARK    1  A    between atoms: C_10  and  C_11 
REMARK    2  A    between atoms: C_13  and  C_14 
REMARK    3  A    between atoms: C_22  and  O_23 
ROOT
HETATM    1  C   UNL     1      50.926 -30.372   3.467  1.00  0.00     0.001 A 
HETATM    2  C   UNL     1      50.731 -30.361   2.082  1.00  0.00     0.015 A 
HETATM    3  C   UNL     1      49.527 -29.896   1.546  1.00  0.00     0.013 A 
HETATM    4  C   UNL     1      48.522 -29.444   2.414  1.00  0.00     0.046 A 
HETATM    5  C   UNL     1      47.247 -28.928   1.844  1.00  0.00     0.271 A 
HETATM    6  O   UNL     1      46.390 -28.420   2.560  1.00  0.00    -0.266 OA
HETATM    7  N   UNL     1      47.054 -29.027   0.485  1.00  0.00    -0.257 N 
HETATM    8  N   UNL     1      48.031 -29.467  -0.338  1.00  0.00    -0.229 N 
HETATM    9  C   UNL     1      49.255 -29.861   0.122  1.00  0.00     0.122 A 
HETATM   10  C   UNL     1      47.983 -29.570  -1.711  1.00  0.00     0.162 A 
HETATM   11  N   UNL     1      49.179 -29.935  -2.154  1.00  0.00    -0.202 NA
HETATM   12  C   UNL     1      49.940 -30.129  -1.039  1.00  0.00     0.194 A 
HETATM   13  C   UNL     1      48.718 -29.451   3.799  1.00  0.00     0.018 A 
HETATM   14  C   UNL     1      49.922 -29.920   4.324  1.00  0.00     0.001 A 
HETATM   15  H   UNL     1      46.283 -28.514   0.080  1.00  0.00     0.191 HD
ENDROOT
BRANCH  10  16
HETATM   16  C   UNL     1      46.825 -29.294  -2.567  1.00  0.00     0.013 A 
HETATM   17  C   UNL     1      46.255 -30.344  -3.304  1.00  0.00     0.031 A 
HETATM   18  C   UNL     1      45.132 -30.137  -4.120  1.00  0.00     0.048 A 
HETATM   19  C   UNL     1      44.581 -28.849  -4.198  1.00  0.00     0.016 A 
HETATM   20  C   UNL     1      45.126 -27.802  -3.456  1.00  0.00     0.002 A 
HETATM   21  C   UNL     1      46.235 -28.026  -2.637  1.00  0.00     0.015 A 
BRANCH  18  22
HETATM   22  C   UNL     1      44.529 -31.266  -4.918  1.00  0.00     0.417 C 
HETATM   23  F   UNL     1      43.936 -32.222  -4.150  1.00  0.00    -0.166 F 
HETATM   24  F   UNL     1      43.570 -30.841  -5.787  1.00  0.00    -0.166 F 
HETATM   25  F   UNL     1      45.456 -31.916  -5.674  1.00  0.00    -0.166 F 
ENDBRANCH  18  22
ENDBRANCH  10  16
BRANCH  12  26
HETATM   26  O   UNL     1      51.211 -30.532  -1.097  1.00  0.00    -0.343 OA
HETATM   27  H   UNL     1      51.750 -29.736  -0.943  1.00  0.00     0.219 HD
ENDBRANCH  12  26
TORSDOF 3
ENDMDL
MODEL 9
REMARK VINA RESULT:      -8.4      4.103      7.187
REMARK  3 active torsions:
REMARK  status: ('A' for Active; 'I' for Inactive)
REMARK    1  A    between atoms: C_10  and  C_11 
REMARK    2  A    between atoms: C_13  and  C_14 
REMARK    3  A    between atoms: C_22  and  O_23 
ROOT
HETATM    1  C   UNL     1      40.308 -10.553   0.011  1.00  0.00     0.001 A 
HETATM    2  C   UNL     1      40.283 -11.943   0.163  1.00  0.00     0.015 A 
HETATM    3  C   UNL     1      41.081 -12.558   1.132  1.00  0.00     0.013 A 
HETATM    4  C   UNL     1      41.903 -11.764   1.945  1.00  0.00     0.046 A 
HETATM    5  C   UNL     1      42.737 -12.415   2.993  1.00  0.00     0.271 A 
HETATM    6  O   UNL     1      43.381 -11.750   3.797  1.00  0.00    -0.266 OA
HETATM    7  N   UNL     1      42.762 -13.790   3.044  1.00  0.00    -0.257 N 
HETATM    8  N   UNL     1      41.966 -14.542   2.252  1.00  0.00    -0.229 N 
HETATM    9  C   UNL     1      41.110 -13.993   1.340  1.00  0.00     0.122 A 
HETATM   10  C   UNL     1      41.862 -15.915   2.235  1.00  0.00     0.162 A 
HETATM   11  N   UNL     1      40.892 -16.261   1.400  1.00  0.00    -0.202 NA
HETATM   12  C   UNL     1      40.453 -15.094   0.845  1.00  0.00     0.194 A 
HETATM   13  C   UNL     1      41.925 -10.373   1.797  1.00  0.00     0.018 A 
HETATM   14  C   UNL     1      41.127  -9.770   0.826  1.00  0.00     0.001 A 
HETATM   15  H   UNL     1      43.171 -14.224   3.859  1.00  0.00     0.191 HD
ENDROOT
BRANCH  10  16
HETATM   16  C   UNL     1      42.655 -16.861   3.027  1.00  0.00     0.013 A 
HETATM   17  C   UNL     1      42.653 -16.749   4.427  1.00  0.00     0.031 A 
HETATM   18  C   UNL     1      43.377 -17.643   5.231  1.00  0.00     0.048 A 
HETATM   19  C   UNL     1      44.120 -18.660   4.612  1.00  0.00     0.016 A 
HETATM   20  C   UNL     1      44.115 -18.793   3.224  1.00  0.00     0.002 A 
HETATM   21  C   UNL     1      43.379 -17.905   2.437  1.00  0.00     0.015 A 
BRANCH  18  22
HETATM   22  C   UNL     1      43.379 -17.514   6.734  1.00  0.00     0.417 C 
HETATM   23  F   UNL     1      42.340 -16.782   7.220  1.00  0.00    -0.166 F 
HETATM   24  F   UNL     1      43.311 -18.720   7.364  1.00  0.00    -0.166 F 
HETATM   25  F   UNL     1      44.509 -16.914   7.198  1.00  0.00    -0.166 F 
ENDBRANCH  18  22
ENDBRANCH  10  16
BRANCH  12  26
HETATM   26  O   UNL     1      39.486 -15.054  -0.074  1.00  0.00    -0.343 OA
HETATM   27  H   UNL     1      38.762 -15.602   0.277  1.00  0.00     0.219 HD
ENDBRANCH  12  26
TORSDOF 3
ENDMDL
MODEL 10
REMARK VINA RESULT:      -8.3      4.115      7.200
REMARK  3 active torsions:
REMARK  status: ('A' for Active; 'I' for Inactive)
REMARK    1  A    between atoms: C_10  and  C_11 
REMARK    2  A    between atoms: C_13  and  C_14 
REMARK    3  A    between atoms: C_22  and  O_23 
ROOT
HETATM    1  C   UNL     1      40.270 -10.901   5.504  1.00  0.00     0.001 A 
HETATM    2  C   UNL     1      41.177 -11.863   5.962  1.00  0.00     0.015 A 
HETATM    3  C   UNL     1      41.265 -13.104   5.326  1.00  0.00     0.013 A 
HETATM    4  C   UNL     1      40.433 -13.371   4.228  1.00  0.00     0.046 A 
HETATM    5  C   UNL     1      40.541 -14.685   3.536  1.00  0.00     0.271 A 
HETATM    6  O   UNL     1      39.915 -14.914   2.506  1.00  0.00    -0.266 OA
HETATM    7  N   UNL     1      41.372 -15.639   4.076  1.00  0.00    -0.257 N 
HETATM    8  N   UNL     1      42.166 -15.369   5.136  1.00  0.00    -0.229 N 
HETATM    9  C   UNL     1      42.178 -14.148   5.749  1.00  0.00     0.122 A 
HETATM   10  C   UNL     1      43.069 -16.214   5.740  1.00  0.00     0.162 A 
HETATM   11  N   UNL     1      43.731 -15.539   6.670  1.00  0.00    -0.202 NA
HETATM   12  C   UNL     1      43.174 -14.294   6.686  1.00  0.00     0.194 A 
HETATM   13  C   UNL     1      39.528 -12.408   3.767  1.00  0.00     0.018 A 
HETATM   14  C   UNL     1      39.447 -11.174   4.410  1.00  0.00     0.001 A 
HETATM   15  H   UNL     1      41.587 -16.450   3.513  1.00  0.00     0.191 HD
ENDROOT
BRANCH  10  16
HETATM   16  C   UNL     1      43.306 -17.622   5.405  1.00  0.00     0.013 A 
HETATM   17  C   UNL     1      43.314 -18.011   4.056  1.00  0.00     0.031 A 
HETATM   18  C   UNL     1      43.558 -19.342   3.683  1.00  0.00     0.048 A 
HETATM   19  C   UNL     1      43.792 -20.295   4.687  1.00  0.00     0.016 A 
HETATM   20  C   UNL     1      43.806 -19.917   6.029  1.00  0.00     0.002 A 
HETATM   21  C   UNL     1      43.574 -18.587   6.385  1.00  0.00     0.015 A 
BRANCH  18  22
HETATM   22  C   UNL     1      43.557 -19.758   2.233  1.00  0.00     0.417 C 
HETATM   23  F   UNL     1      44.625 -20.527   1.884  1.00  0.00    -0.166 F 
HETATM   24  F   UNL     1      42.452 -20.482   1.896  1.00  0.00    -0.166 F 
HETATM   25  F   UNL     1      43.574 -18.689   1.390  1.00  0.00    -0.166 F 
ENDBRANCH  18  22
ENDBRANCH  10  16
BRANCH  12  26
HETATM   26  O   UNL     1      43.574 -13.338   7.526  1.00  0.00    -0.343 OA
HETATM   27  H   UNL     1      43.651 -13.764   8.398  1.00  0.00     0.219 HD
ENDBRANCH  12  26
TORSDOF 3
ENDMDL
