MODEL 1
REMARK VINA RESULT:      -8.8      0.000      0.000
REMARK  7 active torsions:
REMARK  status: ('A' for Active; 'I' for Inactive)
REMARK    1  A    between atoms: C_2  and  O_3 
REMARK    2  A    between atoms: O_3  and  C_4 
REMARK    3  A    between atoms: C_4  and  C_5 
REMARK    4  A    between atoms: C_6  and  C_7 
REMARK    5  A    between atoms: C_18  and  S_19 
REMARK    6  A    between atoms: S_19  and  C_20 
REMARK    7  A    between atoms: C_20  and  C_21 
ROOT
HETATM    1  C   UNL     1      41.421 -11.412   5.712  1.00  0.00     0.070 A 
HETATM    2  C   UNL     1      42.701 -12.238   5.662  1.00  0.00     0.203 A 
HETATM    3  N   UNL     1      42.456 -13.631   6.052  1.00  0.00    -0.082 N 
HETATM    4  C   UNL     1      41.230 -14.131   6.386  1.00  0.00     0.726 A 
HETATM    5  N   UNL     1      40.161 -13.314   6.378  1.00  0.00    -0.192 N 
HETATM    6  N   UNL     1      43.398 -14.597   6.060  1.00  0.00    -0.128 NA
HETATM    7  C   UNL     1      42.677 -15.645   6.480  1.00  0.00     0.226 A 
HETATM    8  N   UNL     1      41.339 -15.402   6.667  1.00  0.00    -0.035 NA
HETATM    9  C   UNL     1      40.229 -11.964   6.053  1.00  0.00     0.037 A 
HETATM   10  C   UNL     1      38.915 -11.221   6.082  1.00  0.00     0.070 C 
HETATM   11  H   UNL     1      39.252 -13.695   6.631  1.00  0.00     0.184 HD
ENDROOT
BRANCH   7  12
HETATM   12  S   UNL     1      43.378 -17.218   6.735  1.00  0.00    -0.083 SA
BRANCH  12  13
HETATM   13  C   UNL     1      44.517 -17.290   5.323  1.00  0.00     0.123 C 
BRANCH  13  14
HETATM   14  C   UNL     1      44.083 -18.322   4.309  1.00  0.00    -0.027 A 
HETATM   15  C   UNL     1      43.538 -17.985   3.060  1.00  0.00     0.041 A 
HETATM   16 CL   UNL     1      43.298 -16.343   2.577  1.00  0.00    -0.084 Cl
HETATM   17  C   UNL     1      43.164 -18.984   2.154  1.00  0.00     0.024 A 
HETATM   18  C   UNL     1      43.335 -20.329   2.480  1.00  0.00     0.002 A 
HETATM   19  C   UNL     1      43.882 -20.680   3.710  1.00  0.00     0.001 A 
HETATM   20  C   UNL     1      44.256 -19.685   4.616  1.00  0.00     0.009 A 
ENDBRANCH  13  14
ENDBRANCH  12  13
ENDBRANCH   7  12
BRANCH   2  21
HETATM   21  C   UNL     1      43.839 -11.660   6.500  1.00  0.00    -0.026 A 
HETATM   22  C   UNL     1      43.604 -11.312   7.843  1.00  0.00     0.033 A 
HETATM   23  C   UNL     1      44.631 -10.789   8.626  1.00  0.00     0.034 A 
HETATM   24 CL   UNL     1      44.325 -10.382  10.270  1.00  0.00    -0.084 Cl
HETATM   25  C   UNL     1      45.901 -10.600   8.091  1.00  0.00     0.024 A 
HETATM   26  C   UNL     1      46.147 -10.931   6.759  1.00  0.00     0.002 A 
HETATM   27  C   UNL     1      45.123 -11.456   5.965  1.00  0.00     0.010 A 
ENDBRANCH   2  21
BRANCH   1  28
HETATM   28  C   UNL     1      41.553  -9.968   5.428  1.00  0.00     0.293 C 
HETATM   29  O   UNL     1      41.889  -9.509   4.348  1.00  0.00    -0.259 OA
BRANCH  28  30
HETATM   30  O   UNL     1      41.219  -9.255   6.532  1.00  0.00    -0.318 OA
BRANCH  30  31
HETATM   31  C   UNL     1      41.711  -7.905   6.565  1.00  0.00     0.174 C 
HETATM   32  C   UNL     1      42.646  -7.718   7.746  1.00  0.00     0.034 C 
ENDBRANCH  30  31
ENDBRANCH  28  30
ENDBRANCH   1  28
TORSDOF 7
ENDMDL
MODEL 2
REMARK VINA RESULT:      -8.5      5.883      7.093
REMARK  7 active torsions:
REMARK  status: ('A' for Active; 'I' for Inactive)
REMARK    1  A    between atoms: C_2  and  O_3 
REMARK    2  A    between atoms: O_3  and  C_4 
REMARK    3  A    between atoms: C_4  and  C_5 
REMARK    4  A    between atoms: C_6  and  C_7 
REMARK    5  A    between atoms: C_18  and  S_19 
REMARK    6  A    between atoms: S_19  and  C_20 
REMARK    7  A    between atoms: C_20  and  C_21 
ROOT
HETATM    1  C   UNL     1      39.919 -13.173  -1.896  1.00  0.00     0.070 A 
HETATM    2  C   UNL     1      40.810 -12.905  -0.689  1.00  0.00     0.203 A 
HETATM    3  N   UNL     1      40.669 -13.955   0.327  1.00  0.00    -0.082 N 
HETATM    4  C   UNL     1      39.864 -15.050   0.193  1.00  0.00     0.726 A 
HETATM    5  N   UNL     1      39.132 -15.196  -0.927  1.00  0.00    -0.192 N 
HETATM    6  N   UNL     1      41.367 -13.997   1.481  1.00  0.00    -0.128 NA
HETATM    7  C   UNL     1      40.876 -15.117   2.028  1.00  0.00     0.226 A 
HETATM    8  N   UNL     1      39.970 -15.802   1.256  1.00  0.00    -0.035 NA
HETATM    9  C   UNL     1      39.138 -14.280  -1.973  1.00  0.00     0.037 A 
HETATM   10  C   UNL     1      38.264 -14.635  -3.152  1.00  0.00     0.070 C 
HETATM   11  H   UNL     1      38.534 -16.014  -1.016  1.00  0.00     0.184 HD
ENDROOT
BRANCH   7  12
HETATM   12  S   UNL     1      41.379 -15.690   3.593  1.00  0.00    -0.083 SA
BRANCH  12  13
HETATM   13  C   UNL     1      43.123 -16.059   3.250  1.00  0.00     0.123 C 
BRANCH  13  14
HETATM   14  C   UNL     1      43.411 -17.539   3.355  1.00  0.00    -0.027 A 
HETATM   15  C   UNL     1      43.952 -18.131   4.507  1.00  0.00     0.041 A 
HETATM   16 CL   UNL     1      44.353 -17.209   5.912  1.00  0.00    -0.084 Cl
HETATM   17  C   UNL     1      44.187 -19.510   4.553  1.00  0.00     0.024 A 
HETATM   18  C   UNL     1      43.882 -20.313   3.454  1.00  0.00     0.002 A 
HETATM   19  C   UNL     1      43.338 -19.742   2.309  1.00  0.00     0.001 A 
HETATM   20  C   UNL     1      43.101 -18.366   2.260  1.00  0.00     0.009 A 
ENDBRANCH  13  14
ENDBRANCH  12  13
ENDBRANCH   7  12
BRANCH   2  21
HETATM   21  C   UNL     1      40.586 -11.536  -0.050  1.00  0.00    -0.026 A 
HETATM   22  C   UNL     1      39.376 -11.272   0.617  1.00  0.00     0.033 A 
HETATM   23  C   UNL     1      39.154 -10.031   1.211  1.00  0.00     0.034 A 
HETATM   24 CL   UNL     1      37.672  -9.734   2.033  1.00  0.00    -0.084 Cl
HETATM   25  C   UNL     1      40.124  -9.035   1.150  1.00  0.00     0.024 A 
HETATM   26  C   UNL     1      41.325  -9.279   0.484  1.00  0.00     0.002 A 
HETATM   27  C   UNL     1      41.556 -10.520  -0.115  1.00  0.00     0.010 A 
ENDBRANCH   2  21
BRANCH   1  28
HETATM   28  C   UNL     1      39.903 -12.139  -2.950  1.00  0.00     0.293 C 
HETATM   29  O   UNL     1      40.810 -11.956  -3.747  1.00  0.00    -0.259 OA
BRANCH  28  30
HETATM   30  O   UNL     1      38.729 -11.461  -2.905  1.00  0.00    -0.318 OA
BRANCH  30  31
HETATM   31  C   UNL     1      38.749 -10.154  -3.501  1.00  0.00     0.174 C 
HETATM   32  C   UNL     1      38.829  -9.087  -2.423  1.00  0.00     0.034 C 
ENDBRANCH  30  31
ENDBRANCH  28  30
ENDBRANCH   1  28
TORSDOF 7
ENDMDL
MODEL 3
REMARK VINA RESULT:      -8.3      1.829      2.529
REMARK  7 active torsions:
REMARK  status: ('A' for Active; 'I' for Inactive)
REMARK    1  A    between atoms: C_2  and  O_3 
REMARK    2  A    between atoms: O_3  and  C_4 
REMARK    3  A    between atoms: C_4  and  C_5 
REMARK    4  A    between atoms: C_6  and  C_7 
REMARK    5  A    between atoms: C_18  and  S_19 
REMARK    6  A    between atoms: S_19  and  C_20 
REMARK    7  A    between atoms: C_20  and  C_21 
ROOT
HETATM    1  C   UNL     1      41.673 -11.822   4.254  1.00  0.00     0.070 A 
HETATM    2  C   UNL     1      42.861 -12.702   4.624  1.00  0.00     0.203 A 
HETATM    3  N   UNL     1      42.424 -13.992   5.171  1.00  0.00    -0.082 N 
HETATM    4  C   UNL     1      41.118 -14.368   5.301  1.00  0.00     0.726 A 
HETATM    5  N   UNL     1      40.146 -13.517   4.923  1.00  0.00    -0.192 N 
HETATM    6  N   UNL     1      43.259 -14.984   5.545  1.00  0.00    -0.128 NA
HETATM    7  C   UNL     1      42.381 -15.906   5.958  1.00  0.00     0.226 A 
HETATM    8  N   UNL     1      41.059 -15.573   5.801  1.00  0.00    -0.035 NA
HETATM    9  C   UNL     1      40.394 -12.250   4.407  1.00  0.00     0.037 A 
HETATM   10  C   UNL     1      39.171 -11.454   4.022  1.00  0.00     0.070 C 
HETATM   11  H   UNL     1      39.176 -13.805   5.026  1.00  0.00     0.184 HD
ENDROOT
BRANCH   7  12
HETATM   12  S   UNL     1      42.878 -17.441   6.614  1.00  0.00    -0.083 SA
BRANCH  12  13
HETATM   13  C   UNL     1      44.328 -17.775   5.573  1.00  0.00     0.123 C 
BRANCH  13  14
HETATM   14  C   UNL     1      43.955 -18.544   4.327  1.00  0.00    -0.027 A 
HETATM   15  C   UNL     1      44.001 -19.945   4.251  1.00  0.00     0.041 A 
HETATM   16 CL   UNL     1      44.509 -20.920   5.584  1.00  0.00    -0.084 Cl
HETATM   17  C   UNL     1      43.632 -20.605   3.073  1.00  0.00     0.024 A 
HETATM   18  C   UNL     1      43.208 -19.877   1.961  1.00  0.00     0.002 A 
HETATM   19  C   UNL     1      43.149 -18.489   2.024  1.00  0.00     0.001 A 
HETATM   20  C   UNL     1      43.516 -17.827   3.198  1.00  0.00     0.009 A 
ENDBRANCH  13  14
ENDBRANCH  12  13
ENDBRANCH   7  12
BRANCH   2  21
HETATM   21  C   UNL     1      43.842 -12.039   5.589  1.00  0.00    -0.026 A 
HETATM   22  C   UNL     1      43.412 -11.691   6.883  1.00  0.00     0.033 A 
HETATM   23  C   UNL     1      44.292 -11.090   7.781  1.00  0.00     0.034 A 
HETATM   24 CL   UNL     1      43.750 -10.684   9.362  1.00  0.00    -0.084 Cl
HETATM   25  C   UNL     1      45.606 -10.823   7.410  1.00  0.00     0.024 A 
HETATM   26  C   UNL     1      46.044 -11.153   6.127  1.00  0.00     0.002 A 
HETATM   27  C   UNL     1      45.168 -11.756   5.220  1.00  0.00     0.010 A 
ENDBRANCH   2  21
BRANCH   1  28
HETATM   28  C   UNL     1      41.982 -10.459   3.777  1.00  0.00     0.293 C 
HETATM   29  O   UNL     1      41.823  -9.446   4.441  1.00  0.00    -0.259 OA
BRANCH  28  30
HETATM   30  O   UNL     1      42.486 -10.520   2.519  1.00  0.00    -0.318 OA
BRANCH  30  31
HETATM   31  C   UNL     1      41.565 -10.186   1.469  1.00  0.00     0.174 C 
HETATM   32  C   UNL     1      41.189 -11.430   0.685  1.00  0.00     0.034 C 
ENDBRANCH  30  31
ENDBRANCH  28  30
ENDBRANCH   1  28
TORSDOF 7
ENDMDL
MODEL 4
REMARK VINA RESULT:      -7.9      3.201      8.111
REMARK  7 active torsions:
REMARK  status: ('A' for Active; 'I' for Inactive)
REMARK    1  A    between atoms: C_2  and  O_3 
REMARK    2  A    between atoms: O_3  and  C_4 
REMARK    3  A    between atoms: C_4  and  C_5 
REMARK    4  A    between atoms: C_6  and  C_7 
REMARK    5  A    between atoms: C_18  and  S_19 
REMARK    6  A    between atoms: S_19  and  C_20 
REMARK    7  A    between atoms: C_20  and  C_21 
ROOT
HETATM    1  C   UNL     1      42.216 -14.283   4.877  1.00  0.00     0.070 A 
HETATM    2  C   UNL     1      43.025 -13.034   4.549  1.00  0.00     0.203 A 
HETATM    3  N   UNL     1      43.670 -12.482   5.746  1.00  0.00    -0.082 N 
HETATM    4  C   UNL     1      43.582 -13.037   6.991  1.00  0.00     0.726 A 
HETATM    5  N   UNL     1      42.853 -14.156   7.163  1.00  0.00    -0.192 N 
HETATM    6  N   UNL     1      44.480 -11.403   5.747  1.00  0.00    -0.128 NA
HETATM    7  C   UNL     1      44.789 -11.325   7.047  1.00  0.00     0.226 A 
HETATM    8  N   UNL     1      44.276 -12.323   7.837  1.00  0.00    -0.035 NA
HETATM    9  C   UNL     1      42.164 -14.789   6.136  1.00  0.00     0.037 A 
HETATM   10  C   UNL     1      41.422 -16.043   6.527  1.00  0.00     0.070 C 
HETATM   11  H   UNL     1      42.791 -14.560   8.095  1.00  0.00     0.184 HD
ENDROOT
BRANCH   7  12
HETATM   12  S   UNL     1      45.805 -10.066   7.691  1.00  0.00    -0.083 SA
BRANCH  12  13
HETATM   13  C   UNL     1      45.307 -10.117   9.436  1.00  0.00     0.123 C 
BRANCH  13  14
HETATM   14  C   UNL     1      44.345  -9.002   9.774  1.00  0.00    -0.027 A 
HETATM   15  C   UNL     1      43.482  -9.046  10.880  1.00  0.00     0.041 A 
HETATM   16 CL   UNL     1      43.432 -10.400  11.953  1.00  0.00    -0.084 Cl
HETATM   17  C   UNL     1      42.619  -7.977  11.152  1.00  0.00     0.024 A 
HETATM   18  C   UNL     1      42.612  -6.852  10.328  1.00  0.00     0.002 A 
HETATM   19  C   UNL     1      43.468  -6.789   9.234  1.00  0.00     0.001 A 
HETATM   20  C   UNL     1      44.330  -7.854   8.960  1.00  0.00     0.009 A 
ENDBRANCH  13  14
ENDBRANCH  12  13
ENDBRANCH   7  12
BRANCH   2  21
HETATM   21  C   UNL     1      42.217 -11.943   3.849  1.00  0.00    -0.026 A 
HETATM   22  C   UNL     1      41.125 -11.356   4.514  1.00  0.00     0.033 A 
HETATM   23  C   UNL     1      40.378 -10.356   3.895  1.00  0.00     0.034 A 
HETATM   24 CL   UNL     1      39.054  -9.642   4.730  1.00  0.00    -0.084 Cl
HETATM   25  C   UNL     1      40.699  -9.925   2.611  1.00  0.00     0.024 A 
HETATM   26  C   UNL     1      41.774 -10.505   1.937  1.00  0.00     0.002 A 
HETATM   27  C   UNL     1      42.528 -11.510   2.549  1.00  0.00     0.010 A 
ENDBRANCH   2  21
BRANCH   1  28
HETATM   28  C   UNL     1      41.443 -14.882   3.769  1.00  0.00     0.293 C 
HETATM   29  O   UNL     1      40.235 -14.765   3.633  1.00  0.00    -0.259 OA
BRANCH  28  30
HETATM   30  O   UNL     1      42.282 -15.542   2.934  1.00  0.00    -0.318 OA
BRANCH  30  31
HETATM   31  C   UNL     1      42.056 -16.957   2.825  1.00  0.00     0.174 C 
HETATM   32  C   UNL     1      43.379 -17.703   2.852  1.00  0.00     0.034 C 
ENDBRANCH  30  31
ENDBRANCH  28  30
ENDBRANCH   1  28
TORSDOF 7
ENDMDL
MODEL 5
REMARK VINA RESULT:      -7.9      5.095      7.329
REMARK  7 active torsions:
REMARK  status: ('A' for Active; 'I' for Inactive)
REMARK    1  A    between atoms: C_2  and  O_3 
REMARK    2  A    between atoms: O_3  and  C_4 
REMARK    3  A    between atoms: C_4  and  C_5 
REMARK    4  A    between atoms: C_6  and  C_7 
REMARK    5  A    between atoms: C_18  and  S_19 
REMARK    6  A    between atoms: S_19  and  C_20 
REMARK    7  A    between atoms: C_20  and  C_21 
ROOT
HETATM    1  C   UNL     1      40.692 -12.441   5.048  1.00  0.00     0.070 A 
HETATM    2  C   UNL     1      41.498 -12.632   3.768  1.00  0.00     0.203 A 
HETATM    3  N   UNL     1      41.263 -11.539   2.817  1.00  0.00    -0.082 N 
HETATM    4  C   UNL     1      40.449 -10.470   3.062  1.00  0.00     0.726 A 
HETATM    5  N   UNL     1      39.799 -10.393   4.238  1.00  0.00    -0.192 N 
HETATM    6  N   UNL     1      41.873 -11.427   1.619  1.00  0.00    -0.128 NA
HETATM    7  C   UNL     1      41.323 -10.294   1.165  1.00  0.00     0.226 A 
HETATM    8  N   UNL     1      40.463  -9.667   2.032  1.00  0.00    -0.035 NA
HETATM    9  C   UNL     1      39.898 -11.356   5.235  1.00  0.00     0.037 A 
HETATM   10  C   UNL     1      39.107 -11.077   6.489  1.00  0.00     0.070 C 
HETATM   11  H   UNL     1      39.193  -9.594   4.409  1.00  0.00     0.184 HD
ENDROOT
BRANCH   7  12
HETATM   12  S   UNL     1      41.699  -9.637  -0.403  1.00  0.00    -0.083 SA
BRANCH  12  13
HETATM   13  C   UNL     1      40.154 -10.007  -1.281  1.00  0.00     0.123 C 
BRANCH  13  14
HETATM   14  C   UNL     1      40.031 -11.480  -1.597  1.00  0.00    -0.027 A 
HETATM   15  C   UNL     1      39.155 -12.337  -0.913  1.00  0.00     0.041 A 
HETATM   16 CL   UNL     1      38.141 -11.781   0.371  1.00  0.00    -0.084 Cl
HETATM   17  C   UNL     1      39.074 -13.692  -1.256  1.00  0.00     0.024 A 
HETATM   18  C   UNL     1      39.862 -14.205  -2.286  1.00  0.00     0.002 A 
HETATM   19  C   UNL     1      40.729 -13.366  -2.979  1.00  0.00     0.001 A 
HETATM   20  C   UNL     1      40.811 -12.014  -2.639  1.00  0.00     0.009 A 
ENDBRANCH  13  14
ENDBRANCH  12  13
ENDBRANCH   7  12
BRANCH   2  21
HETATM   21  C   UNL     1      41.254 -13.974   3.082  1.00  0.00    -0.026 A 
HETATM   22  C   UNL     1      42.291 -14.924   3.028  1.00  0.00     0.033 A 
HETATM   23  C   UNL     1      42.087 -16.157   2.412  1.00  0.00     0.034 A 
HETATM   24 CL   UNL     1      43.364 -17.309   2.369  1.00  0.00    -0.084 Cl
HETATM   25  C   UNL     1      40.858 -16.464   1.836  1.00  0.00     0.024 A 
HETATM   26  C   UNL     1      39.824 -15.529   1.873  1.00  0.00     0.002 A 
HETATM   27  C   UNL     1      40.020 -14.290   2.489  1.00  0.00     0.010 A 
ENDBRANCH   2  21
BRANCH   1  28
HETATM   28  C   UNL     1      40.773 -13.524   6.049  1.00  0.00     0.293 C 
HETATM   29  O   UNL     1      39.825 -14.210   6.396  1.00  0.00    -0.259 OA
BRANCH  28  30
HETATM   30  O   UNL     1      42.051 -13.644   6.487  1.00  0.00    -0.318 OA
BRANCH  30  31
HETATM   31  C   UNL     1      42.450 -14.971   6.866  1.00  0.00     0.174 C 
HETATM   32  C   UNL     1      43.867 -15.247   6.396  1.00  0.00     0.034 C 
ENDBRANCH  30  31
ENDBRANCH  28  30
ENDBRANCH   1  28
TORSDOF 7
ENDMDL
MODEL 6
REMARK VINA RESULT:      -7.7      3.365      8.634
REMARK  7 active torsions:
REMARK  status: ('A' for Active; 'I' for Inactive)
REMARK    1  A    between atoms: C_2  and  O_3 
REMARK    2  A    between atoms: O_3  and  C_4 
REMARK    3  A    between atoms: C_4  and  C_5 
REMARK    4  A    between atoms: C_6  and  C_7 
REMARK    5  A    between atoms: C_18  and  S_19 
REMARK    6  A    between atoms: S_19  and  C_20 
REMARK    7  A    between atoms: C_20  and  C_21 
ROOT
HETATM    1  C   UNL     1      42.704 -15.336   4.695  1.00  0.00     0.070 A 
HETATM    2  C   UNL     1      42.883 -13.860   4.358  1.00  0.00     0.203 A 
HETATM    3  N   UNL     1      43.312 -13.089   5.530  1.00  0.00    -0.082 N 
HETATM    4  C   UNL     1      43.552 -13.632   6.760  1.00  0.00     0.726 A 
HETATM    5  N   UNL     1      43.380 -14.954   6.942  1.00  0.00    -0.192 N 
HETATM    6  N   UNL     1      43.586 -11.768   5.515  1.00  0.00    -0.128 NA
HETATM    7  C   UNL     1      43.921 -11.569   6.797  1.00  0.00     0.226 A 
HETATM    8  N   UNL     1      43.934 -12.693   7.584  1.00  0.00    -0.035 NA
HETATM    9  C   UNL     1      42.957 -15.818   5.938  1.00  0.00     0.037 A 
HETATM   10  C   UNL     1      42.845 -17.270   6.335  1.00  0.00     0.070 C 
HETATM   11  H   UNL     1      43.559 -15.348   7.862  1.00  0.00     0.184 HD
ENDROOT
BRANCH   7  12
HETATM   12  S   UNL     1      44.348  -9.998   7.416  1.00  0.00    -0.083 SA
BRANCH  12  13
HETATM   13  C   UNL     1      44.549 -10.396   9.176  1.00  0.00     0.123 C 
BRANCH  13  14
HETATM   14  C   UNL     1      43.873  -9.374  10.060  1.00  0.00    -0.027 A 
HETATM   15  C   UNL     1      43.467  -9.649  11.375  1.00  0.00     0.041 A 
HETATM   16 CL   UNL     1      43.693 -11.202  12.100  1.00  0.00    -0.084 Cl
HETATM   17  C   UNL     1      42.855  -8.659  12.152  1.00  0.00     0.024 A 
HETATM   18  C   UNL     1      42.647  -7.382  11.629  1.00  0.00     0.002 A 
HETATM   19  C   UNL     1      43.052  -7.091  10.331  1.00  0.00     0.001 A 
HETATM   20  C   UNL     1      43.662  -8.078   9.553  1.00  0.00     0.009 A 
ENDBRANCH  13  14
ENDBRANCH  12  13
ENDBRANCH   7  12
BRANCH   2  21
HETATM   21  C   UNL     1      41.643 -13.214   3.742  1.00  0.00    -0.026 A 
HETATM   22  C   UNL     1      41.705 -12.704   2.432  1.00  0.00     0.033 A 
HETATM   23  C   UNL     1      40.584 -12.117   1.851  1.00  0.00     0.034 A 
HETATM   24 CL   UNL     1      40.677 -11.511   0.243  1.00  0.00    -0.084 Cl
HETATM   25  C   UNL     1      39.389 -12.022   2.557  1.00  0.00     0.024 A 
HETATM   26  C   UNL     1      39.315 -12.514   3.860  1.00  0.00     0.002 A 
HETATM   27  C   UNL     1      40.435 -13.105   4.452  1.00  0.00     0.010 A 
ENDBRANCH   2  21
BRANCH   1  28
HETATM   28  C   UNL     1      42.185 -16.203   3.618  1.00  0.00     0.293 C 
HETATM   29  O   UNL     1      41.007 -16.497   3.481  1.00  0.00    -0.259 OA
BRANCH  28  30
HETATM   30  O   UNL     1      43.205 -16.586   2.811  1.00  0.00    -0.318 OA
BRANCH  30  31
HETATM   31  C   UNL     1      43.144 -17.943   2.344  1.00  0.00     0.174 C 
HETATM   32  C   UNL     1      44.115 -18.810   3.126  1.00  0.00     0.034 C 
ENDBRANCH  30  31
ENDBRANCH  28  30
ENDBRANCH   1  28
TORSDOF 7
ENDMDL
MODEL 7
REMARK VINA RESULT:      -7.7      2.330      4.063
REMARK  7 active torsions:
REMARK  status: ('A' for Active; 'I' for Inactive)
REMARK    1  A    between atoms: C_2  and  O_3 
REMARK    2  A    between atoms: O_3  and  C_4 
REMARK    3  A    between atoms: C_4  and  C_5 
REMARK    4  A    between atoms: C_6  and  C_7 
REMARK    5  A    between atoms: C_18  and  S_19 
REMARK    6  A    between atoms: S_19  and  C_20 
REMARK    7  A    between atoms: C_20  and  C_21 
ROOT
HETATM    1  C   UNL     1      41.553 -11.139   6.121  1.00  0.00     0.070 A 
HETATM    2  C   UNL     1      41.003 -12.489   5.675  1.00  0.00     0.203 A 
HETATM    3  N   UNL     1      41.875 -13.590   6.099  1.00  0.00    -0.082 N 
HETATM    4  C   UNL     1      43.018 -13.428   6.828  1.00  0.00     0.726 A 
HETATM    5  N   UNL     1      43.401 -12.188   7.186  1.00  0.00    -0.192 N 
HETATM    6  N   UNL     1      41.616 -14.896   5.877  1.00  0.00    -0.128 NA
HETATM    7  C   UNL     1      42.689 -15.462   6.444  1.00  0.00     0.226 A 
HETATM    8  N   UNL     1      43.558 -14.595   7.058  1.00  0.00    -0.035 NA
HETATM    9  C   UNL     1      42.697 -11.039   6.845  1.00  0.00     0.037 A 
HETATM   10  C   UNL     1      43.278  -9.744   7.358  1.00  0.00     0.070 C 
HETATM   11  H   UNL     1      44.255 -12.077   7.726  1.00  0.00     0.184 HD
ENDROOT
BRANCH   7  12
HETATM   12  S   UNL     1      42.948 -17.184   6.440  1.00  0.00    -0.083 SA
BRANCH  12  13
HETATM   13  C   UNL     1      44.260 -17.304   5.191  1.00  0.00     0.123 C 
BRANCH  13  14
HETATM   14  C   UNL     1      43.974 -18.395   4.185  1.00  0.00    -0.027 A 
HETATM   15  C   UNL     1      43.570 -18.132   2.867  1.00  0.00     0.041 A 
HETATM   16 CL   UNL     1      43.347 -16.522   2.279  1.00  0.00    -0.084 Cl
HETATM   17  C   UNL     1      43.330 -19.182   1.973  1.00  0.00     0.024 A 
HETATM   18  C   UNL     1      43.495 -20.505   2.383  1.00  0.00     0.002 A 
HETATM   19  C   UNL     1      43.904 -20.782   3.683  1.00  0.00     0.001 A 
HETATM   20  C   UNL     1      44.144 -19.736   4.576  1.00  0.00     0.009 A 
ENDBRANCH  13  14
ENDBRANCH  12  13
ENDBRANCH   7  12
BRANCH   2  21
HETATM   21  C   UNL     1      40.746 -12.583   4.172  1.00  0.00    -0.026 A 
HETATM   22  C   UNL     1      39.474 -12.261   3.665  1.00  0.00     0.033 A 
HETATM   23  C   UNL     1      39.221 -12.336   2.297  1.00  0.00     0.034 A 
HETATM   24 CL   UNL     1      37.662 -11.925   1.696  1.00  0.00    -0.084 Cl
HETATM   25  C   UNL     1      40.221 -12.732   1.414  1.00  0.00     0.024 A 
HETATM   26  C   UNL     1      41.484 -13.063   1.903  1.00  0.00     0.002 A 
HETATM   27  C   UNL     1      41.747 -12.993   3.274  1.00  0.00     0.010 A 
ENDBRANCH   2  21
BRANCH   1  28
HETATM   28  C   UNL     1      40.811  -9.942   5.676  1.00  0.00     0.293 C 
HETATM   29  O   UNL     1      39.761  -9.561   6.171  1.00  0.00    -0.259 OA
BRANCH  28  30
HETATM   30  O   UNL     1      41.487  -9.335   4.670  1.00  0.00    -0.318 OA
BRANCH  30  31
HETATM   31  C   UNL     1      40.678  -8.589   3.746  1.00  0.00     0.174 C 
HETATM   32  C   UNL     1      40.832  -9.149   2.343  1.00  0.00     0.034 C 
ENDBRANCH  30  31
ENDBRANCH  28  30
ENDBRANCH   1  28
TORSDOF 7
ENDMDL
MODEL 8
REMARK VINA RESULT:      -7.6      4.044      5.649
REMARK  7 active torsions:
REMARK  status: ('A' for Active; 'I' for Inactive)
REMARK    1  A    between atoms: C_2  and  O_3 
REMARK    2  A    between atoms: O_3  and  C_4 
REMARK    3  A    between atoms: C_4  and  C_5 
REMARK    4  A    between atoms: C_6  and  C_7 
REMARK    5  A    between atoms: C_18  and  S_19 
REMARK    6  A    between atoms: S_19  and  C_20 
REMARK    7  A    between atoms: C_20  and  C_21 
ROOT
HETATM    1  C   UNL     1      40.721  -7.690  10.283  1.00  0.00     0.070 A 
HETATM    2  C   UNL     1      41.398  -8.343   9.084  1.00  0.00     0.203 A 
HETATM    3  N   UNL     1      40.517  -9.322   8.437  1.00  0.00    -0.082 N 
HETATM    4  C   UNL     1      39.240  -9.589   8.839  1.00  0.00     0.726 A 
HETATM    5  N   UNL     1      38.734  -8.938   9.902  1.00  0.00    -0.192 N 
HETATM    6  N   UNL     1      40.839 -10.022   7.328  1.00  0.00    -0.128 NA
HETATM    7  C   UNL     1      39.726 -10.747   7.160  1.00  0.00     0.226 A 
HETATM    8  N   UNL     1      38.715 -10.492   8.053  1.00  0.00    -0.035 NA
HETATM    9  C   UNL     1      39.447  -7.997  10.637  1.00  0.00     0.037 A 
HETATM   10  C   UNL     1      38.697  -7.362  11.782  1.00  0.00     0.070 C 
HETATM   11  H   UNL     1      37.783  -9.147  10.196  1.00  0.00     0.184 HD
ENDROOT
BRANCH   7  12
HETATM   12  S   UNL     1      39.554 -11.908   5.874  1.00  0.00    -0.083 SA
BRANCH  12  13
HETATM   13  C   UNL     1      41.300 -12.292   5.559  1.00  0.00     0.123 C 
BRANCH  13  14
HETATM   14  C   UNL     1      41.691 -13.630   6.142  1.00  0.00    -0.027 A 
HETATM   15  C   UNL     1      42.921 -13.856   6.779  1.00  0.00     0.041 A 
HETATM   16 CL   UNL     1      44.113 -12.615   6.940  1.00  0.00    -0.084 Cl
HETATM   17  C   UNL     1      43.225 -15.114   7.312  1.00  0.00     0.024 A 
HETATM   18  C   UNL     1      42.305 -16.158   7.221  1.00  0.00     0.002 A 
HETATM   19  C   UNL     1      41.078 -15.948   6.600  1.00  0.00     0.001 A 
HETATM   20  C   UNL     1      40.772 -14.694   6.067  1.00  0.00     0.009 A 
ENDBRANCH  13  14
ENDBRANCH  12  13
ENDBRANCH   7  12
BRANCH   2  21
HETATM   21  C   UNL     1      42.739  -8.995   9.414  1.00  0.00    -0.026 A 
HETATM   22  C   UNL     1      43.858  -8.727   8.605  1.00  0.00     0.033 A 
HETATM   23  C   UNL     1      45.092  -9.308   8.892  1.00  0.00     0.034 A 
HETATM   24 CL   UNL     1      46.451  -8.955   7.898  1.00  0.00    -0.084 Cl
HETATM   25  C   UNL     1      45.233 -10.164   9.980  1.00  0.00     0.024 A 
HETATM   26  C   UNL     1      44.130 -10.448  10.785  1.00  0.00     0.002 A 
HETATM   27  C   UNL     1      42.889  -9.870  10.504  1.00  0.00     0.010 A 
ENDBRANCH   2  21
BRANCH   1  28
HETATM   28  C   UNL     1      41.540  -6.750  11.075  1.00  0.00     0.293 C 
HETATM   29  O   UNL     1      41.787  -5.603  10.739  1.00  0.00    -0.259 OA
BRANCH  28  30
HETATM   30  O   UNL     1      41.938  -7.350  12.224  1.00  0.00    -0.318 OA
BRANCH  30  31
HETATM   31  C   UNL     1      42.249  -6.461  13.309  1.00  0.00     0.174 C 
HETATM   32  C   UNL     1      43.151  -7.154  14.313  1.00  0.00     0.034 C 
ENDBRANCH  30  31
ENDBRANCH  28  30
ENDBRANCH   1  28
TORSDOF 7
ENDMDL
MODEL 9
REMARK VINA RESULT:      -7.6      2.641      4.413
REMARK  7 active torsions:
REMARK  status: ('A' for Active; 'I' for Inactive)
REMARK    1  A    between atoms: C_2  and  O_3 
REMARK    2  A    between atoms: O_3  and  C_4 
REMARK    3  A    between atoms: C_4  and  C_5 
REMARK    4  A    between atoms: C_6  and  C_7 
REMARK    5  A    between atoms: C_18  and  S_19 
REMARK    6  A    between atoms: S_19  and  C_20 
REMARK    7  A    between atoms: C_20  and  C_21 
ROOT
HETATM    1  C   UNL     1      43.573  -9.958   7.725  1.00  0.00     0.070 A 
HETATM    2  C   UNL     1      42.197 -10.363   7.209  1.00  0.00     0.203 A 
HETATM    3  N   UNL     1      42.281 -11.519   6.309  1.00  0.00    -0.082 N 
HETATM    4  C   UNL     1      43.441 -12.169   5.999  1.00  0.00     0.726 A 
HETATM    5  N   UNL     1      44.600 -11.736   6.529  1.00  0.00    -0.192 N 
HETATM    6  N   UNL     1      41.215 -12.118   5.737  1.00  0.00    -0.128 NA
HETATM    7  C   UNL     1      41.820 -13.085   5.036  1.00  0.00     0.226 A 
HETATM    8  N   UNL     1      43.182 -13.162   5.191  1.00  0.00    -0.035 NA
HETATM    9  C   UNL     1      44.693 -10.642   7.381  1.00  0.00     0.037 A 
HETATM   10  C   UNL     1      46.081 -10.328   7.886  1.00  0.00     0.070 C 
HETATM   11  H   UNL     1      45.459 -12.225   6.289  1.00  0.00     0.184 HD
ENDROOT
BRANCH   7  12
HETATM   12  S   UNL     1      40.939 -14.196   4.025  1.00  0.00    -0.083 SA
BRANCH  12  13
HETATM   13  C   UNL     1      41.131 -15.722   4.990  1.00  0.00     0.123 C 
BRANCH  13  14
HETATM   14  C   UNL     1      42.131 -16.660   4.354  1.00  0.00    -0.027 A 
HETATM   15  C   UNL     1      43.107 -17.350   5.091  1.00  0.00     0.041 A 
HETATM   16 CL   UNL     1      43.260 -17.173   6.804  1.00  0.00    -0.084 Cl
HETATM   17  C   UNL     1      44.001 -18.216   4.451  1.00  0.00     0.024 A 
HETATM   18  C   UNL     1      43.929 -18.408   3.071  1.00  0.00     0.002 A 
HETATM   19  C   UNL     1      42.962 -17.738   2.329  1.00  0.00     0.001 A 
HETATM   20  C   UNL     1      42.069 -16.874   2.965  1.00  0.00     0.009 A 
ENDBRANCH  13  14
ENDBRANCH  12  13
ENDBRANCH   7  12
BRANCH   2  21
HETATM   21  C   UNL     1      41.438  -9.229   6.523  1.00  0.00    -0.026 A 
HETATM   22  C   UNL     1      40.381  -8.594   7.200  1.00  0.00     0.033 A 
HETATM   23  C   UNL     1      39.679  -7.554   6.593  1.00  0.00     0.034 A 
HETATM   24 CL   UNL     1      38.398  -6.782   7.444  1.00  0.00    -0.084 Cl
HETATM   25  C   UNL     1      40.011  -7.132   5.310  1.00  0.00     0.024 A 
HETATM   26  C   UNL     1      41.051  -7.759   4.623  1.00  0.00     0.002 A 
HETATM   27  C   UNL     1      41.759  -8.803   5.223  1.00  0.00     0.010 A 
ENDBRANCH   2  21
BRANCH   1  28
HETATM   28  C   UNL     1      43.633  -8.748   8.570  1.00  0.00     0.293 C 
HETATM   29  O   UNL     1      44.130  -7.689   8.219  1.00  0.00    -0.259 OA
BRANCH  28  30
HETATM   30  O   UNL     1      43.034  -8.994   9.761  1.00  0.00    -0.318 OA
BRANCH  30  31
HETATM   31  C   UNL     1      43.924  -9.301  10.847  1.00  0.00     0.174 C 
HETATM   32  C   UNL     1      43.555  -8.486  12.073  1.00  0.00     0.034 C 
ENDBRANCH  30  31
ENDBRANCH  28  30
ENDBRANCH   1  28
TORSDOF 7
ENDMDL
MODEL 10
REMARK VINA RESULT:      -7.6      2.348      4.269
REMARK  7 active torsions:
REMARK  status: ('A' for Active; 'I' for Inactive)
REMARK    1  A    between atoms: C_2  and  O_3 
REMARK    2  A    between atoms: O_3  and  C_4 
REMARK    3  A    between atoms: C_4  and  C_5 
REMARK    4  A    between atoms: C_6  and  C_7 
REMARK    5  A    between atoms: C_18  and  S_19 
REMARK    6  A    between atoms: S_19  and  C_20 
REMARK    7  A    between atoms: C_20  and  C_21 
ROOT
HETATM    1  C   UNL     1      42.340 -10.512   6.924  1.00  0.00     0.070 A 
HETATM    2  C   UNL     1      41.197 -11.337   6.343  1.00  0.00     0.203 A 
HETATM    3  N   UNL     1      41.689 -12.572   5.723  1.00  0.00    -0.082 N 
HETATM    4  C   UNL     1      43.001 -12.950   5.698  1.00  0.00     0.726 A 
HETATM    5  N   UNL     1      43.927 -12.152   6.260  1.00  0.00    -0.192 N 
HETATM    6  N   UNL     1      40.897 -13.512   5.165  1.00  0.00    -0.128 NA
HETATM    7  C   UNL     1      41.813 -14.401   4.760  1.00  0.00     0.226 A 
HETATM    8  N   UNL     1      43.112 -14.101   5.090  1.00  0.00    -0.035 NA
HETATM    9  C   UNL     1      43.627 -10.938   6.869  1.00  0.00     0.037 A 
HETATM   10  C   UNL     1      44.803 -10.199   7.459  1.00  0.00     0.070 C 
HETATM   11  H   UNL     1      44.902 -12.440   6.233  1.00  0.00     0.184 HD
ENDROOT
BRANCH   7  12
HETATM   12  S   UNL     1      41.387 -15.858   3.906  1.00  0.00    -0.083 SA
BRANCH  12  13
HETATM   13  C   UNL     1      42.982 -16.249   3.132  1.00  0.00     0.123 C 
BRANCH  13  14
HETATM   14  C   UNL     1      43.304 -17.722   3.232  1.00  0.00    -0.027 A 
HETATM   15  C   UNL     1      43.887 -18.300   4.370  1.00  0.00     0.041 A 
HETATM   16 CL   UNL     1      44.304 -17.367   5.764  1.00  0.00    -0.084 Cl
HETATM   17  C   UNL     1      44.153 -19.674   4.412  1.00  0.00     0.024 A 
HETATM   18  C   UNL     1      43.837 -20.486   3.323  1.00  0.00     0.002 A 
HETATM   19  C   UNL     1      43.251 -19.929   2.191  1.00  0.00     0.001 A 
HETATM   20  C   UNL     1      42.984 -18.558   2.147  1.00  0.00     0.009 A 
ENDBRANCH  13  14
ENDBRANCH  12  13
ENDBRANCH   7  12
BRANCH   2  21
HETATM   21  C   UNL     1      40.328 -10.571   5.349  1.00  0.00    -0.026 A 
HETATM   22  C   UNL     1      40.877 -10.164   4.118  1.00  0.00     0.033 A 
HETATM   23  C   UNL     1      40.099  -9.469   3.195  1.00  0.00     0.034 A 
HETATM   24 CL   UNL     1      40.786  -8.993   1.690  1.00  0.00    -0.084 Cl
HETATM   25  C   UNL     1      38.772  -9.163   3.477  1.00  0.00     0.024 A 
HETATM   26  C   UNL     1      38.217  -9.551   4.696  1.00  0.00     0.002 A 
HETATM   27  C   UNL     1      38.989 -10.248   5.629  1.00  0.00     0.010 A 
ENDBRANCH   2  21
BRANCH   1  28
HETATM   28  C   UNL     1      41.983  -9.198   7.498  1.00  0.00     0.293 C 
HETATM   29  O   UNL     1      42.132  -8.133   6.919  1.00  0.00    -0.259 OA
BRANCH  28  30
HETATM   30  O   UNL     1      41.449  -9.370   8.732  1.00  0.00    -0.318 OA
BRANCH  30  31
HETATM   31  C   UNL     1      40.176  -8.740   8.946  1.00  0.00     0.174 C 
HETATM   32  C   UNL     1      39.153  -9.765   9.402  1.00  0.00     0.034 C 
ENDBRANCH  30  31
ENDBRANCH  28  30
ENDBRANCH   1  28
TORSDOF 7
ENDMDL
