MODEL 1
REMARK VINA RESULT:      -8.3      0.000      0.000
REMARK  6 active torsions:
REMARK  status: ('A' for Active; 'I' for Inactive)
REMARK    1  A    between atoms: C_2  and  C_3 
REMARK       I    between atoms: C_3  and  N_4 
REMARK    2  A    between atoms: N_4  and  C_5 
REMARK    3  A    between atoms: N_6  and  C_7 
REMARK    4  A    between atoms: C_7  and  C_8 
REMARK    5  A    between atoms: C_11  and  O_12 
REMARK    6  A    between atoms: C_20  and  C_21 
ROOT
HETATM    1  C   UNL     1      41.750 -12.866   5.572  1.00  0.00     0.125 A 
HETATM    2  N   UNL     1      41.185 -13.023   4.318  1.00  0.00    -0.332 N 
HETATM    3  C   UNL     1      41.046 -11.765   3.726  1.00  0.00     0.017 A 
HETATM    4  C   UNL     1      40.406 -11.537   2.392  1.00  0.00     0.069 C 
HETATM    5  C   UNL     1      41.577 -10.811   4.585  1.00  0.00    -0.022 A 
HETATM    6  C   UNL     1      41.630  -9.345   4.329  1.00  0.00     0.051 C 
HETATM    7  C   UNL     1      42.017 -11.512   5.742  1.00  0.00     0.062 A 
ENDROOT
BRANCH   7   8
HETATM    8  C   UNL     1      42.683 -10.975   6.979  1.00  0.00     0.143 A 
HETATM    9  N   UNL     1      43.969 -11.137   7.243  1.00  0.00    -0.228 NA
HETATM   10  C   UNL     1      44.201 -10.448   8.407  1.00  0.00     0.086 A 
HETATM   11  C   UNL     1      43.031  -9.871   8.882  1.00  0.00     0.062 A 
HETATM   12  C   UNL     1      45.396 -10.264   9.118  1.00  0.00     0.034 A 
HETATM   13  N   UNL     1      42.080 -10.236   7.964  1.00  0.00    -0.338 N 
HETATM   14  C   UNL     1      42.971  -9.101  10.046  1.00  0.00     0.032 A 
HETATM   15  H   UNL     1      41.112  -9.965   7.988  1.00  0.00     0.167 HD
HETATM   16  C   UNL     1      44.174  -8.924  10.741  1.00  0.00     0.002 A 
HETATM   17  C   UNL     1      45.367  -9.493  10.287  1.00  0.00     0.002 A 
ENDBRANCH   7   8
BRANCH   1  18
HETATM   18  N   UNL     1      41.979 -13.815   6.565  1.00  0.00    -0.312 N 
HETATM   19  C   UNL     1      43.141 -14.494   6.848  1.00  0.00     0.222 C 
HETATM   20  O   UNL     1      44.228 -14.346   6.303  1.00  0.00    -0.273 OA
HETATM   21  H   UNL     1      41.289 -13.764   7.318  1.00  0.00     0.170 HD
BRANCH  19  22
HETATM   22  C   UNL     1      42.967 -15.554   7.926  1.00  0.00     0.099 C 
HETATM   23  C   UNL     1      43.688 -16.860   7.645  1.00  0.00     0.014 C 
ENDBRANCH  19  22
ENDBRANCH   1  18
BRANCH   2  24
HETATM   24  C   UNL     1      40.610 -14.244   3.742  1.00  0.00     0.169 C 
BRANCH  24  25
HETATM   25  C   UNL     1      41.612 -15.322   3.365  1.00  0.00    -0.040 A 
HETATM   26  C   UNL     1      41.797 -16.392   4.255  1.00  0.00     0.011 A 
HETATM   27  C   UNL     1      42.665 -17.444   3.944  1.00  0.00     0.037 A 
HETATM   28  C   UNL     1      43.357 -17.461   2.734  1.00  0.00     0.068 A 
HETATM   29  C   UNL     1      43.198 -16.398   1.849  1.00  0.00     0.037 A 
HETATM   30  C   UNL     1      42.338 -15.338   2.164  1.00  0.00     0.011 A 
BRANCH  28  31
HETATM   31  O   UNL     1      44.154 -18.557   2.540  1.00  0.00    -0.356 OA
HETATM   32  C   UNL     1      43.493 -19.778   2.236  1.00  0.00     0.210 C 
ENDBRANCH  28  31
ENDBRANCH  24  25
ENDBRANCH   2  24
TORSDOF 6
ENDMDL
MODEL 2
REMARK VINA RESULT:      -8.3      3.035      6.878
REMARK  6 active torsions:
REMARK  status: ('A' for Active; 'I' for Inactive)
REMARK    1  A    between atoms: C_2  and  C_3 
REMARK       I    between atoms: C_3  and  N_4 
REMARK    2  A    between atoms: N_4  and  C_5 
REMARK    3  A    between atoms: N_6  and  C_7 
REMARK    4  A    between atoms: C_7  and  C_8 
REMARK    5  A    between atoms: C_11  and  O_12 
REMARK    6  A    between atoms: C_20  and  C_21 
ROOT
HETATM    1  C   UNL     1      41.511 -13.225   3.718  1.00  0.00     0.125 A 
HETATM    2  N   UNL     1      41.411 -12.773   5.023  1.00  0.00    -0.332 N 
HETATM    3  C   UNL     1      40.456 -11.756   5.075  1.00  0.00     0.017 A 
HETATM    4  C   UNL     1      40.130 -10.981   6.314  1.00  0.00     0.069 C 
HETATM    5  C   UNL     1      39.905 -11.600   3.809  1.00  0.00    -0.022 A 
HETATM    6  C   UNL     1      38.847 -10.621   3.436  1.00  0.00     0.051 C 
HETATM    7  C   UNL     1      40.575 -12.527   2.963  1.00  0.00     0.062 A 
ENDROOT
BRANCH   7   8
HETATM    8  C   UNL     1      40.366 -12.795   1.498  1.00  0.00     0.143 A 
HETATM    9  N   UNL     1      40.911 -12.064   0.538  1.00  0.00    -0.228 NA
HETATM   10  C   UNL     1      40.546 -12.665  -0.641  1.00  0.00     0.086 A 
HETATM   11  C   UNL     1      39.741 -13.771  -0.404  1.00  0.00     0.062 A 
HETATM   12  C   UNL     1      40.873 -12.322  -1.960  1.00  0.00     0.034 A 
HETATM   13  N   UNL     1      39.630 -13.819   0.961  1.00  0.00    -0.338 N 
HETATM   14  C   UNL     1      39.230 -14.581  -1.421  1.00  0.00     0.032 A 
HETATM   15  H   UNL     1      39.130 -14.520   1.482  1.00  0.00     0.167 HD
HETATM   16  C   UNL     1      39.571 -14.228  -2.733  1.00  0.00     0.002 A 
HETATM   17  C   UNL     1      40.378 -13.119  -3.001  1.00  0.00     0.002 A 
ENDBRANCH   7   8
BRANCH   1  18
HETATM   18  N   UNL     1      42.396 -14.147   3.165  1.00  0.00    -0.312 N 
HETATM   19  C   UNL     1      42.156 -15.451   2.801  1.00  0.00     0.222 C 
HETATM   20  O   UNL     1      41.083 -16.040   2.844  1.00  0.00    -0.273 OA
HETATM   21  H   UNL     1      43.206 -13.697   2.732  1.00  0.00     0.170 HD
BRANCH  19  22
HETATM   22  C   UNL     1      43.411 -16.188   2.354  1.00  0.00     0.099 C 
HETATM   23  C   UNL     1      43.257 -17.695   2.269  1.00  0.00     0.014 C 
ENDBRANCH  19  22
ENDBRANCH   1  18
BRANCH   2  24
HETATM   24  C   UNL     1      42.282 -13.111   6.155  1.00  0.00     0.169 C 
BRANCH  24  25
HETATM   25  C   UNL     1      42.647 -14.580   6.283  1.00  0.00    -0.040 A 
HETATM   26  C   UNL     1      41.606 -15.508   6.441  1.00  0.00     0.011 A 
HETATM   27  C   UNL     1      41.869 -16.880   6.512  1.00  0.00     0.037 A 
HETATM   28  C   UNL     1      43.175 -17.359   6.411  1.00  0.00     0.068 A 
HETATM   29  C   UNL     1      44.220 -16.450   6.272  1.00  0.00     0.037 A 
HETATM   30  C   UNL     1      43.958 -15.075   6.214  1.00  0.00     0.011 A 
BRANCH  28  31
HETATM   31  O   UNL     1      43.296 -18.721   6.470  1.00  0.00    -0.356 OA
HETATM   32  C   UNL     1      43.973 -19.346   5.387  1.00  0.00     0.210 C 
ENDBRANCH  28  31
ENDBRANCH  24  25
ENDBRANCH   2  24
TORSDOF 6
ENDMDL
MODEL 3
REMARK VINA RESULT:      -8.0      3.124      8.486
REMARK  6 active torsions:
REMARK  status: ('A' for Active; 'I' for Inactive)
REMARK    1  A    between atoms: C_2  and  C_3 
REMARK       I    between atoms: C_3  and  N_4 
REMARK    2  A    between atoms: N_4  and  C_5 
REMARK    3  A    between atoms: N_6  and  C_7 
REMARK    4  A    between atoms: C_7  and  C_8 
REMARK    5  A    between atoms: C_11  and  O_12 
REMARK    6  A    between atoms: C_20  and  C_21 
ROOT
HETATM    1  C   UNL     1      41.193 -13.795   3.347  1.00  0.00     0.125 A 
HETATM    2  N   UNL     1      41.933 -14.287   4.409  1.00  0.00    -0.332 N 
HETATM    3  C   UNL     1      42.736 -15.334   3.952  1.00  0.00     0.017 A 
HETATM    4  C   UNL     1      43.622 -16.153   4.838  1.00  0.00     0.069 C 
HETATM    5  C   UNL     1      42.547 -15.471   2.582  1.00  0.00    -0.022 A 
HETATM    6  C   UNL     1      43.220 -16.471   1.708  1.00  0.00     0.051 C 
HETATM    7  C   UNL     1      41.576 -14.500   2.212  1.00  0.00     0.062 A 
ENDROOT
BRANCH   7   8
HETATM    8  C   UNL     1      41.010 -14.198   0.852  1.00  0.00     0.143 A 
HETATM    9  N   UNL     1      40.143 -14.982   0.232  1.00  0.00    -0.228 NA
HETATM   10  C   UNL     1      39.818 -14.333  -0.933  1.00  0.00     0.086 A 
HETATM   11  C   UNL     1      40.516 -13.137  -1.044  1.00  0.00     0.062 A 
HETATM   12  C   UNL     1      38.923 -14.702  -1.947  1.00  0.00     0.034 A 
HETATM   13  N   UNL     1      41.277 -13.086   0.095  1.00  0.00    -0.338 N 
HETATM   14  C   UNL     1      40.375 -12.263  -2.124  1.00  0.00     0.032 A 
HETATM   15  H   UNL     1      41.893 -12.333   0.352  1.00  0.00     0.167 HD
HETATM   16  C   UNL     1      39.474 -12.645  -3.125  1.00  0.00     0.002 A 
HETATM   17  C   UNL     1      38.758 -13.843  -3.041  1.00  0.00     0.002 A 
ENDBRANCH   7   8
BRANCH   1  18
HETATM   18  N   UNL     1      40.188 -12.831   3.339  1.00  0.00    -0.312 N 
HETATM   19  C   UNL     1      40.286 -11.496   3.024  1.00  0.00     0.222 C 
HETATM   20  O   UNL     1      41.285 -10.906   2.630  1.00  0.00    -0.273 OA
HETATM   21  H   UNL     1      39.254 -13.244   3.279  1.00  0.00     0.170 HD
BRANCH  19  22
HETATM   22  C   UNL     1      38.992 -10.729   3.260  1.00  0.00     0.099 C 
HETATM   23  C   UNL     1      38.793 -10.257   4.688  1.00  0.00     0.014 C 
ENDBRANCH  19  22
ENDBRANCH   1  18
BRANCH   2  24
HETATM   24  C   UNL     1      41.786 -13.954   5.831  1.00  0.00     0.169 C 
BRANCH  24  25
HETATM   25  C   UNL     1      42.631 -12.791   6.321  1.00  0.00    -0.040 A 
HETATM   26  C   UNL     1      42.064 -11.508   6.299  1.00  0.00     0.011 A 
HETATM   27  C   UNL     1      42.769 -10.401   6.785  1.00  0.00     0.037 A 
HETATM   28  C   UNL     1      44.049 -10.552   7.317  1.00  0.00     0.068 A 
HETATM   29  C   UNL     1      44.632 -11.816   7.329  1.00  0.00     0.037 A 
HETATM   30  C   UNL     1      43.932 -12.923   6.831  1.00  0.00     0.011 A 
BRANCH  28  31
HETATM   31  O   UNL     1      44.620  -9.398   7.781  1.00  0.00    -0.356 OA
HETATM   32  C   UNL     1      46.026  -9.426   7.996  1.00  0.00     0.210 C 
ENDBRANCH  28  31
ENDBRANCH  24  25
ENDBRANCH   2  24
TORSDOF 6
ENDMDL
MODEL 4
REMARK VINA RESULT:      -8.0      2.665      7.556
REMARK  6 active torsions:
REMARK  status: ('A' for Active; 'I' for Inactive)
REMARK    1  A    between atoms: C_2  and  C_3 
REMARK       I    between atoms: C_3  and  N_4 
REMARK    2  A    between atoms: N_4  and  C_5 
REMARK    3  A    between atoms: N_6  and  C_7 
REMARK    4  A    between atoms: C_7  and  C_8 
REMARK    5  A    between atoms: C_11  and  O_12 
REMARK    6  A    between atoms: C_20  and  C_21 
ROOT
HETATM    1  C   UNL     1      41.933 -13.597   3.476  1.00  0.00     0.125 A 
HETATM    2  N   UNL     1      41.108 -12.590   3.004  1.00  0.00    -0.332 N 
HETATM    3  C   UNL     1      40.340 -13.093   1.951  1.00  0.00     0.017 A 
HETATM    4  C   UNL     1      39.382 -12.267   1.150  1.00  0.00     0.069 C 
HETATM    5  C   UNL     1      40.637 -14.441   1.792  1.00  0.00    -0.022 A 
HETATM    6  C   UNL     1      40.031 -15.350   0.779  1.00  0.00     0.051 C 
HETATM    7  C   UNL     1      41.639 -14.748   2.753  1.00  0.00     0.062 A 
ENDROOT
BRANCH   7   8
HETATM    8  C   UNL     1      42.312 -16.064   3.031  1.00  0.00     0.143 A 
HETATM    9  N   UNL     1      42.751 -16.420   4.228  1.00  0.00    -0.228 NA
HETATM   10  C   UNL     1      43.228 -17.699   4.085  1.00  0.00     0.086 A 
HETATM   11  C   UNL     1      43.102 -18.130   2.772  1.00  0.00     0.062 A 
HETATM   12  C   UNL     1      43.779 -18.563   5.043  1.00  0.00     0.034 A 
HETATM   13  N   UNL     1      42.534 -17.066   2.122  1.00  0.00    -0.338 N 
HETATM   14  C   UNL     1      43.497 -19.398   2.338  1.00  0.00     0.032 A 
HETATM   15  H   UNL     1      42.279 -17.044   1.149  1.00  0.00     0.167 HD
HETATM   16  C   UNL     1      44.040 -20.250   3.307  1.00  0.00     0.002 A 
HETATM   17  C   UNL     1      44.180 -19.842   4.637  1.00  0.00     0.002 A 
ENDBRANCH   7   8
BRANCH   1  18
HETATM   18  N   UNL     1      42.939 -13.541   4.436  1.00  0.00    -0.312 N 
HETATM   19  C   UNL     1      42.816 -13.537   5.805  1.00  0.00     0.222 C 
HETATM   20  O   UNL     1      41.779 -13.641   6.449  1.00  0.00    -0.273 OA
HETATM   21  H   UNL     1      43.849 -13.826   4.064  1.00  0.00     0.170 HD
BRANCH  19  22
HETATM   22  C   UNL     1      44.141 -13.331   6.525  1.00  0.00     0.099 C 
HETATM   23  C   UNL     1      44.294 -11.971   7.182  1.00  0.00     0.014 C 
ENDBRANCH  19  22
ENDBRANCH   1  18
BRANCH   2  24
HETATM   24  C   UNL     1      41.143 -11.166   3.359  1.00  0.00     0.169 C 
BRANCH  24  25
HETATM   25  C   UNL     1      40.586 -10.821   4.729  1.00  0.00    -0.040 A 
HETATM   26  C   UNL     1      39.277 -11.229   5.032  1.00  0.00     0.011 A 
HETATM   27  C   UNL     1      38.722 -10.989   6.293  1.00  0.00     0.037 A 
HETATM   28  C   UNL     1      39.464 -10.352   7.287  1.00  0.00     0.068 A 
HETATM   29  C   UNL     1      40.758  -9.926   6.996  1.00  0.00     0.037 A 
HETATM   30  C   UNL     1      41.310 -10.154   5.729  1.00  0.00     0.011 A 
BRANCH  28  31
HETATM   31  O   UNL     1      38.817 -10.201   8.483  1.00  0.00    -0.356 OA
HETATM   32  C   UNL     1      39.442  -9.357   9.442  1.00  0.00     0.210 C 
ENDBRANCH  28  31
ENDBRANCH  24  25
ENDBRANCH   2  24
TORSDOF 6
ENDMDL
MODEL 5
REMARK VINA RESULT:      -7.7      2.856      6.907
REMARK  6 active torsions:
REMARK  status: ('A' for Active; 'I' for Inactive)
REMARK    1  A    between atoms: C_2  and  C_3 
REMARK       I    between atoms: C_3  and  N_4 
REMARK    2  A    between atoms: N_4  and  C_5 
REMARK    3  A    between atoms: N_6  and  C_7 
REMARK    4  A    between atoms: C_7  and  C_8 
REMARK    5  A    between atoms: C_11  and  O_12 
REMARK    6  A    between atoms: C_20  and  C_21 
ROOT
HETATM    1  C   UNL     1      41.514 -13.712   4.303  1.00  0.00     0.125 A 
HETATM    2  N   UNL     1      41.380 -12.352   4.531  1.00  0.00    -0.332 N 
HETATM    3  C   UNL     1      42.246 -11.981   5.562  1.00  0.00     0.017 A 
HETATM    4  C   UNL     1      42.324 -10.596   6.127  1.00  0.00     0.069 C 
HETATM    5  C   UNL     1      42.973 -13.098   5.953  1.00  0.00    -0.022 A 
HETATM    6  C   UNL     1      44.008 -13.130   7.024  1.00  0.00     0.051 C 
HETATM    7  C   UNL     1      42.506 -14.181   5.157  1.00  0.00     0.062 A 
ENDROOT
BRANCH   7   8
HETATM    8  C   UNL     1      42.957 -15.615   5.152  1.00  0.00     0.143 A 
HETATM    9  N   UNL     1      42.790 -16.436   6.177  1.00  0.00    -0.228 NA
HETATM   10  C   UNL     1      43.260 -17.656   5.758  1.00  0.00     0.086 A 
HETATM   11  C   UNL     1      43.747 -17.580   4.461  1.00  0.00     0.062 A 
HETATM   12  C   UNL     1      43.295 -18.883   6.435  1.00  0.00     0.034 A 
HETATM   13  N   UNL     1      43.557 -16.269   4.107  1.00  0.00    -0.338 N 
HETATM   14  C   UNL     1      44.278 -18.675   3.774  1.00  0.00     0.032 A 
HETATM   15  H   UNL     1      43.779 -15.868   3.211  1.00  0.00     0.167 HD
HETATM   16  C   UNL     1      44.301 -19.893   4.462  1.00  0.00     0.002 A 
HETATM   17  C   UNL     1      43.819 -19.999   5.770  1.00  0.00     0.002 A 
ENDBRANCH   7   8
BRANCH   1  18
HETATM   18  N   UNL     1      40.789 -14.543   3.454  1.00  0.00    -0.312 N 
HETATM   19  C   UNL     1      41.134 -14.999   2.204  1.00  0.00     0.222 C 
HETATM   20  O   UNL     1      42.190 -14.799   1.615  1.00  0.00    -0.273 OA
HETATM   21  H   UNL     1      40.077 -15.082   3.953  1.00  0.00     0.170 HD
BRANCH  19  22
HETATM   22  C   UNL     1      40.021 -15.784   1.525  1.00  0.00     0.099 C 
HETATM   23  C   UNL     1      39.715 -15.342   0.106  1.00  0.00     0.014 C 
ENDBRANCH  19  22
ENDBRANCH   1  18
BRANCH   2  24
HETATM   24  C   UNL     1      40.370 -11.447   3.970  1.00  0.00     0.169 C 
BRANCH  24  25
HETATM   25  C   UNL     1      40.163 -11.549   2.469  1.00  0.00    -0.040 A 
HETATM   26  C   UNL     1      38.866 -11.804   1.997  1.00  0.00     0.011 A 
HETATM   27  C   UNL     1      38.597 -11.858   0.625  1.00  0.00     0.037 A 
HETATM   28  C   UNL     1      39.611 -11.644  -0.307  1.00  0.00     0.068 A 
HETATM   29  C   UNL     1      40.907 -11.408   0.145  1.00  0.00     0.037 A 
HETATM   30  C   UNL     1      41.180 -11.366   1.519  1.00  0.00     0.011 A 
BRANCH  28  31
HETATM   31  O   UNL     1      39.214 -11.698  -1.615  1.00  0.00    -0.356 OA
HETATM   32  C   UNL     1      38.143 -12.582  -1.919  1.00  0.00     0.210 C 
ENDBRANCH  28  31
ENDBRANCH  24  25
ENDBRANCH   2  24
TORSDOF 6
ENDMDL
MODEL 6
REMARK VINA RESULT:      -7.7      2.654      7.676
REMARK  6 active torsions:
REMARK  status: ('A' for Active; 'I' for Inactive)
REMARK    1  A    between atoms: C_2  and  C_3 
REMARK       I    between atoms: C_3  and  N_4 
REMARK    2  A    between atoms: N_4  and  C_5 
REMARK    3  A    between atoms: N_6  and  C_7 
REMARK    4  A    between atoms: C_7  and  C_8 
REMARK    5  A    between atoms: C_11  and  O_12 
REMARK    6  A    between atoms: C_20  and  C_21 
ROOT
HETATM    1  C   UNL     1      41.566 -11.550   5.497  1.00  0.00     0.125 A 
HETATM    2  N   UNL     1      40.657 -10.510   5.603  1.00  0.00    -0.332 N 
HETATM    3  C   UNL     1      39.615 -10.729   4.698  1.00  0.00     0.017 A 
HETATM    4  C   UNL     1      38.483  -9.772   4.484  1.00  0.00     0.069 C 
HETATM    5  C   UNL     1      39.834 -11.941   4.056  1.00  0.00    -0.022 A 
HETATM    6  C   UNL     1      38.953 -12.545   3.018  1.00  0.00     0.051 C 
HETATM    7  C   UNL     1      41.061 -12.449   4.564  1.00  0.00     0.062 A 
ENDROOT
BRANCH   7   8
HETATM    8  C   UNL     1      41.765 -13.735   4.227  1.00  0.00     0.143 A 
HETATM    9  N   UNL     1      42.149 -14.617   5.137  1.00  0.00    -0.228 NA
HETATM   10  C   UNL     1      42.678 -15.671   4.435  1.00  0.00     0.086 A 
HETATM   11  C   UNL     1      42.643 -15.424   3.070  1.00  0.00     0.062 A 
HETATM   12  C   UNL     1      43.205 -16.884   4.901  1.00  0.00     0.034 A 
HETATM   13  N   UNL     1      42.073 -14.181   2.968  1.00  0.00    -0.338 N 
HETATM   14  C   UNL     1      43.106 -16.330   2.113  1.00  0.00     0.032 A 
HETATM   15  H   UNL     1      41.873 -13.700   2.108  1.00  0.00     0.167 HD
HETATM   16  C   UNL     1      43.625 -17.538   2.595  1.00  0.00     0.002 A 
HETATM   17  C   UNL     1      43.675 -17.813   3.964  1.00  0.00     0.002 A 
ENDBRANCH   7   8
BRANCH   1  18
HETATM   18  N   UNL     1      42.803 -11.712   6.114  1.00  0.00    -0.312 N 
HETATM   19  C   UNL     1      44.057 -11.559   5.570  1.00  0.00     0.222 C 
HETATM   20  O   UNL     1      44.323 -11.188   4.433  1.00  0.00    -0.273 OA
HETATM   21  H   UNL     1      42.741 -11.651   7.133  1.00  0.00     0.170 HD
BRANCH  19  22
HETATM   22  C   UNL     1      45.175 -11.953   6.524  1.00  0.00     0.099 C 
HETATM   23  C   UNL     1      45.295 -11.070   7.752  1.00  0.00     0.014 C 
ENDBRANCH  19  22
ENDBRANCH   1  18
BRANCH   2  24
HETATM   24  C   UNL     1      40.813  -9.260   6.356  1.00  0.00     0.169 C 
BRANCH  24  25
HETATM   25  C   UNL     1      40.648  -9.380   7.861  1.00  0.00    -0.040 A 
HETATM   26  C   UNL     1      41.774  -9.154   8.669  1.00  0.00     0.011 A 
HETATM   27  C   UNL     1      41.678  -9.197  10.064  1.00  0.00     0.037 A 
HETATM   28  C   UNL     1      40.457  -9.451  10.686  1.00  0.00     0.068 A 
HETATM   29  C   UNL     1      39.335  -9.696   9.898  1.00  0.00     0.037 A 
HETATM   30  C   UNL     1      39.432  -9.666   8.500  1.00  0.00     0.011 A 
BRANCH  28  31
HETATM   31  O   UNL     1      40.492  -9.441  12.054  1.00  0.00    -0.356 OA
HETATM   32  C   UNL     1      39.627 -10.353  12.719  1.00  0.00     0.210 C 
ENDBRANCH  28  31
ENDBRANCH  24  25
ENDBRANCH   2  24
TORSDOF 6
ENDMDL
MODEL 7
REMARK VINA RESULT:      -7.7      2.971      7.789
REMARK  6 active torsions:
REMARK  status: ('A' for Active; 'I' for Inactive)
REMARK    1  A    between atoms: C_2  and  C_3 
REMARK       I    between atoms: C_3  and  N_4 
REMARK    2  A    between atoms: N_4  and  C_5 
REMARK    3  A    between atoms: N_6  and  C_7 
REMARK    4  A    between atoms: C_7  and  C_8 
REMARK    5  A    between atoms: C_11  and  O_12 
REMARK    6  A    between atoms: C_20  and  C_21 
ROOT
HETATM    1  C   UNL     1      40.681 -13.000   3.650  1.00  0.00     0.125 A 
HETATM    2  N   UNL     1      40.382 -12.523   4.915  1.00  0.00    -0.332 N 
HETATM    3  C   UNL     1      39.493 -11.452   4.794  1.00  0.00     0.017 A 
HETATM    4  C   UNL     1      39.001 -10.642   5.953  1.00  0.00     0.069 C 
HETATM    5  C   UNL     1      39.182 -11.285   3.450  1.00  0.00    -0.022 A 
HETATM    6  C   UNL     1      38.264 -10.253   2.893  1.00  0.00     0.051 C 
HETATM    7  C   UNL     1      39.934 -12.261   2.739  1.00  0.00     0.062 A 
ENDROOT
BRANCH   7   8
HETATM    8  C   UNL     1      39.968 -12.539   1.262  1.00  0.00     0.143 A 
HETATM    9  N   UNL     1      40.721 -11.860   0.410  1.00  0.00    -0.228 NA
HETATM   10  C   UNL     1      40.530 -12.455  -0.812  1.00  0.00     0.086 A 
HETATM   11  C   UNL     1      39.625 -13.504  -0.716  1.00  0.00     0.062 A 
HETATM   12  C   UNL     1      41.106 -12.156  -2.055  1.00  0.00     0.034 A 
HETATM   13  N   UNL     1      39.273 -13.523   0.608  1.00  0.00    -0.338 N 
HETATM   14  C   UNL     1      39.249 -14.296  -1.803  1.00  0.00     0.032 A 
HETATM   15  H   UNL     1      38.644 -14.181   1.036  1.00  0.00     0.167 HD
HETATM   16  C   UNL     1      39.837 -13.987  -3.036  1.00  0.00     0.002 A 
HETATM   17  C   UNL     1      40.750 -12.936  -3.163  1.00  0.00     0.002 A 
ENDBRANCH   7   8
BRANCH   1  18
HETATM   18  N   UNL     1      41.594 -13.978   3.265  1.00  0.00    -0.312 N 
HETATM   19  C   UNL     1      41.532 -15.336   3.474  1.00  0.00     0.222 C 
HETATM   20  O   UNL     1      40.615 -15.956   3.999  1.00  0.00    -0.273 OA
HETATM   21  H   UNL     1      42.205 -13.664   2.508  1.00  0.00     0.170 HD
BRANCH  19  22
HETATM   22  C   UNL     1      42.787 -16.069   3.024  1.00  0.00     0.099 C 
HETATM   23  C   UNL     1      43.412 -15.523   1.753  1.00  0.00     0.014 C 
ENDBRANCH  19  22
ENDBRANCH   1  18
BRANCH   2  24
HETATM   24  C   UNL     1      41.020 -12.892   6.184  1.00  0.00     0.169 C 
BRANCH  24  25
HETATM   25  C   UNL     1      42.421 -12.343   6.395  1.00  0.00    -0.040 A 
HETATM   26  C   UNL     1      42.556 -10.978   6.693  1.00  0.00     0.011 A 
HETATM   27  C   UNL     1      43.813 -10.420   6.950  1.00  0.00     0.037 A 
HETATM   28  C   UNL     1      44.960 -11.211   6.931  1.00  0.00     0.068 A 
HETATM   29  C   UNL     1      44.844 -12.563   6.619  1.00  0.00     0.037 A 
HETATM   30  C   UNL     1      43.587 -13.121   6.349  1.00  0.00     0.011 A 
BRANCH  28  31
HETATM   31  O   UNL     1      46.123 -10.551   7.224  1.00  0.00    -0.356 OA
HETATM   32  C   UNL     1      46.024  -9.462   8.133  1.00  0.00     0.210 C 
ENDBRANCH  28  31
ENDBRANCH  24  25
ENDBRANCH   2  24
TORSDOF 6
ENDMDL
MODEL 8
REMARK VINA RESULT:      -7.6      4.270      7.332
REMARK  6 active torsions:
REMARK  status: ('A' for Active; 'I' for Inactive)
REMARK    1  A    between atoms: C_2  and  C_3 
REMARK       I    between atoms: C_3  and  N_4 
REMARK    2  A    between atoms: N_4  and  C_5 
REMARK    3  A    between atoms: N_6  and  C_7 
REMARK    4  A    between atoms: C_7  and  C_8 
REMARK    5  A    between atoms: C_11  and  O_12 
REMARK    6  A    between atoms: C_20  and  C_21 
ROOT
HETATM    1  C   UNL     1      40.784 -11.979   0.457  1.00  0.00     0.125 A 
HETATM    2  N   UNL     1      40.333 -13.287   0.498  1.00  0.00    -0.332 N 
HETATM    3  C   UNL     1      40.024 -13.698  -0.801  1.00  0.00     0.017 A 
HETATM    4  C   UNL     1      39.441 -15.036  -1.136  1.00  0.00     0.069 C 
HETATM    5  C   UNL     1      40.333 -12.664  -1.677  1.00  0.00    -0.022 A 
HETATM    6  C   UNL     1      40.157 -12.697  -3.155  1.00  0.00     0.051 C 
HETATM    7  C   UNL     1      40.810 -11.589  -0.877  1.00  0.00     0.062 A 
ENDROOT
BRANCH   7   8
HETATM    8  C   UNL     1      41.297 -10.233  -1.307  1.00  0.00     0.143 A 
HETATM    9  N   UNL     1      42.287  -9.590  -0.708  1.00  0.00    -0.228 NA
HETATM   10  C   UNL     1      42.476  -8.439  -1.432  1.00  0.00     0.086 A 
HETATM   11  C   UNL     1      41.571  -8.360  -2.482  1.00  0.00     0.062 A 
HETATM   12  C   UNL     1      43.414  -7.412  -1.254  1.00  0.00     0.034 A 
HETATM   13  N   UNL     1      40.825  -9.504  -2.368  1.00  0.00    -0.338 N 
HETATM   14  C   UNL     1      41.540  -7.300  -3.391  1.00  0.00     0.032 A 
HETATM   15  H   UNL     1      40.085  -9.782  -2.990  1.00  0.00     0.167 HD
HETATM   16  C   UNL     1      42.486  -6.285  -3.202  1.00  0.00     0.002 A 
HETATM   17  C   UNL     1      43.408  -6.337  -2.153  1.00  0.00     0.002 A 
ENDBRANCH   7   8
BRANCH   1  18
HETATM   18  N   UNL     1      41.105 -11.119   1.504  1.00  0.00    -0.312 N 
HETATM   19  C   UNL     1      42.083 -11.264   2.461  1.00  0.00     0.222 C 
HETATM   20  O   UNL     1      42.907 -12.167   2.537  1.00  0.00    -0.273 OA
HETATM   21  H   UNL     1      40.763 -10.168   1.347  1.00  0.00     0.170 HD
BRANCH  19  22
HETATM   22  C   UNL     1      42.043 -10.178   3.526  1.00  0.00     0.099 C 
HETATM   23  C   UNL     1      42.548 -10.616   4.889  1.00  0.00     0.014 C 
ENDBRANCH  19  22
ENDBRANCH   1  18
BRANCH   2  24
HETATM   24  C   UNL     1      40.009 -14.085   1.686  1.00  0.00     0.169 C 
BRANCH  24  25
HETATM   25  C   UNL     1      41.092 -15.047   2.143  1.00  0.00    -0.040 A 
HETATM   26  C   UNL     1      40.933 -15.678   3.387  1.00  0.00     0.011 A 
HETATM   27  C   UNL     1      41.867 -16.614   3.843  1.00  0.00     0.037 A 
HETATM   28  C   UNL     1      42.972 -16.955   3.063  1.00  0.00     0.068 A 
HETATM   29  C   UNL     1      43.152 -16.324   1.835  1.00  0.00     0.037 A 
HETATM   30  C   UNL     1      42.225 -15.376   1.383  1.00  0.00     0.011 A 
BRANCH  28  31
HETATM   31  O   UNL     1      43.795 -17.901   3.610  1.00  0.00    -0.356 OA
HETATM   32  C   UNL     1      43.865 -19.150   2.936  1.00  0.00     0.210 C 
ENDBRANCH  28  31
ENDBRANCH  24  25
ENDBRANCH   2  24
TORSDOF 6
ENDMDL
MODEL 9
REMARK VINA RESULT:      -7.5      4.240      7.437
REMARK  6 active torsions:
REMARK  status: ('A' for Active; 'I' for Inactive)
REMARK    1  A    between atoms: C_2  and  C_3 
REMARK       I    between atoms: C_3  and  N_4 
REMARK    2  A    between atoms: N_4  and  C_5 
REMARK    3  A    between atoms: N_6  and  C_7 
REMARK    4  A    between atoms: C_7  and  C_8 
REMARK    5  A    between atoms: C_11  and  O_12 
REMARK    6  A    between atoms: C_20  and  C_21 
ROOT
HETATM    1  C   UNL     1      40.238 -12.673   1.005  1.00  0.00     0.125 A 
HETATM    2  N   UNL     1      39.919 -13.282   2.207  1.00  0.00    -0.332 N 
HETATM    3  C   UNL     1      40.065 -12.349   3.237  1.00  0.00     0.017 A 
HETATM    4  C   UNL     1      39.872 -12.671   4.686  1.00  0.00     0.069 C 
HETATM    5  C   UNL     1      40.423 -11.128   2.680  1.00  0.00    -0.022 A 
HETATM    6  C   UNL     1      40.673  -9.869   3.435  1.00  0.00     0.051 C 
HETATM    7  C   UNL     1      40.530 -11.342   1.277  1.00  0.00     0.062 A 
ENDROOT
BRANCH   7   8
HETATM    8  C   UNL     1      40.874 -10.358   0.193  1.00  0.00     0.143 A 
HETATM    9  N   UNL     1      42.048  -9.754   0.103  1.00  0.00    -0.228 NA
HETATM   10  C   UNL     1      41.994  -9.003  -1.045  1.00  0.00     0.086 A 
HETATM   11  C   UNL     1      40.756  -9.128  -1.660  1.00  0.00     0.062 A 
HETATM   12  C   UNL     1      42.974  -8.190  -1.632  1.00  0.00     0.034 A 
HETATM   13  N   UNL     1      40.060  -9.981  -0.843  1.00  0.00    -0.338 N 
HETATM   14  C   UNL     1      40.422  -8.483  -2.853  1.00  0.00     0.032 A 
HETATM   15  H   UNL     1      39.124 -10.311  -1.006  1.00  0.00     0.167 HD
HETATM   16  C   UNL     1      41.414  -7.679  -3.429  1.00  0.00     0.002 A 
HETATM   17  C   UNL     1      42.669  -7.533  -2.831  1.00  0.00     0.002 A 
ENDBRANCH   7   8
BRANCH   1  18
HETATM   18  N   UNL     1      40.340 -13.227  -0.268  1.00  0.00    -0.312 N 
HETATM   19  C   UNL     1      39.391 -13.269  -1.262  1.00  0.00     0.222 C 
HETATM   20  O   UNL     1      38.274 -12.766  -1.232  1.00  0.00    -0.273 OA
HETATM   21  H   UNL     1      41.312 -13.343  -0.565  1.00  0.00     0.170 HD
BRANCH  19  22
HETATM   22  C   UNL     1      39.827 -14.080  -2.474  1.00  0.00     0.099 C 
HETATM   23  C   UNL     1      38.744 -14.967  -3.059  1.00  0.00     0.014 C 
ENDBRANCH  19  22
ENDBRANCH   1  18
BRANCH   2  24
HETATM   24  C   UNL     1      39.674 -14.709   2.450  1.00  0.00     0.169 C 
BRANCH  24  25
HETATM   25  C   UNL     1      40.908 -15.542   2.746  1.00  0.00    -0.040 A 
HETATM   26  C   UNL     1      41.102 -15.990   4.063  1.00  0.00     0.011 A 
HETATM   27  C   UNL     1      42.190 -16.804   4.392  1.00  0.00     0.037 A 
HETATM   28  C   UNL     1      43.101 -17.205   3.415  1.00  0.00     0.068 A 
HETATM   29  C   UNL     1      42.932 -16.754   2.109  1.00  0.00     0.037 A 
HETATM   30  C   UNL     1      41.850 -15.927   1.780  1.00  0.00     0.011 A 
BRANCH  28  31
HETATM   31  O   UNL     1      44.105 -18.021   3.861  1.00  0.00    -0.356 OA
HETATM   32  C   UNL     1      44.102 -19.357   3.374  1.00  0.00     0.210 C 
ENDBRANCH  28  31
ENDBRANCH  24  25
ENDBRANCH   2  24
TORSDOF 6
ENDMDL
MODEL 10
REMARK VINA RESULT:      -7.4      2.878      5.336
REMARK  6 active torsions:
REMARK  status: ('A' for Active; 'I' for Inactive)
REMARK    1  A    between atoms: C_2  and  C_3 
REMARK       I    between atoms: C_3  and  N_4 
REMARK    2  A    between atoms: N_4  and  C_5 
REMARK    3  A    between atoms: N_6  and  C_7 
REMARK    4  A    between atoms: C_7  and  C_8 
REMARK    5  A    between atoms: C_11  and  O_12 
REMARK    6  A    between atoms: C_20  and  C_21 
ROOT
HETATM    1  C   UNL     1      42.871 -10.150   8.427  1.00  0.00     0.125 A 
HETATM    2  N   UNL     1      43.666 -10.642   7.405  1.00  0.00    -0.332 N 
HETATM    3  C   UNL     1      44.999 -10.619   7.821  1.00  0.00     0.017 A 
HETATM    4  C   UNL     1      46.151 -11.015   6.950  1.00  0.00     0.069 C 
HETATM    5  C   UNL     1      45.046 -10.164   9.133  1.00  0.00    -0.022 A 
HETATM    6  C   UNL     1      46.279  -9.995   9.950  1.00  0.00     0.051 C 
HETATM    7  C   UNL     1      43.704  -9.872   9.505  1.00  0.00     0.062 A 
ENDROOT
BRANCH   7   8
HETATM    8  C   UNL     1      43.175  -9.364  10.817  1.00  0.00     0.143 A 
HETATM    9  N   UNL     1      42.091  -9.848  11.403  1.00  0.00    -0.228 NA
HETATM   10  C   UNL     1      41.984  -9.181  12.598  1.00  0.00     0.086 A 
HETATM   11  C   UNL     1      43.007  -8.253  12.741  1.00  0.00     0.062 A 
HETATM   12  C   UNL     1      41.037  -9.324  13.623  1.00  0.00     0.034 A 
HETATM   13  N   UNL     1      43.737  -8.379  11.588  1.00  0.00    -0.338 N 
HETATM   14  C   UNL     1      43.154  -7.439  13.866  1.00  0.00     0.032 A 
HETATM   15  H   UNL     1      44.574  -7.866  11.368  1.00  0.00     0.167 HD
HETATM   16  C   UNL     1      42.203  -7.597  14.882  1.00  0.00     0.002 A 
HETATM   17  C   UNL     1      41.161  -8.522  14.765  1.00  0.00     0.002 A 
ENDBRANCH   7   8
BRANCH   1  18
HETATM   18  N   UNL     1      41.504  -9.886   8.437  1.00  0.00    -0.312 N 
HETATM   19  C   UNL     1      40.847  -8.762   7.994  1.00  0.00     0.222 C 
HETATM   20  O   UNL     1      41.347  -7.788   7.444  1.00  0.00    -0.273 OA
HETATM   21  H   UNL     1      40.943 -10.738   8.514  1.00  0.00     0.170 HD
BRANCH  19  22
HETATM   22  C   UNL     1      39.355  -8.784   8.294  1.00  0.00     0.099 C 
HETATM   23  C   UNL     1      39.012  -8.890   9.768  1.00  0.00     0.014 C 
ENDBRANCH  19  22
ENDBRANCH   1  18
BRANCH   2  24
HETATM   24  C   UNL     1      43.263 -10.946   6.027  1.00  0.00     0.169 C 
BRANCH  24  25
HETATM   25  C   UNL     1      43.128 -12.423   5.697  1.00  0.00    -0.040 A 
HETATM   26  C   UNL     1      42.856 -12.780   4.367  1.00  0.00     0.011 A 
HETATM   27  C   UNL     1      42.770 -14.123   3.986  1.00  0.00     0.037 A 
HETATM   28  C   UNL     1      42.970 -15.141   4.918  1.00  0.00     0.068 A 
HETATM   29  C   UNL     1      43.223 -14.802   6.245  1.00  0.00     0.037 A 
HETATM   30  C   UNL     1      43.295 -13.457   6.630  1.00  0.00     0.011 A 
BRANCH  28  31
HETATM   31  O   UNL     1      42.885 -16.410   4.414  1.00  0.00    -0.356 OA
HETATM   32  C   UNL     1      43.188 -16.568   3.034  1.00  0.00     0.210 C 
ENDBRANCH  28  31
ENDBRANCH  24  25
ENDBRANCH   2  24
TORSDOF 6
ENDMDL
