MODEL 1
REMARK VINA RESULT:      -9.1      0.000      0.000
REMARK  6 active torsions:
REMARK  status: ('A' for Active; 'I' for Inactive)
REMARK    1  A    between atoms: C_2  and  C_3 
REMARK    2  A    between atoms: C_8  and  N_9 
REMARK       I    between atoms: N_9  and  C_10 
REMARK       I    between atoms: C_10  and  N_11 
REMARK    3  A    between atoms: N_11  and  N_12 
REMARK       I    between atoms: N_12  and  C_13 
REMARK    4  A    between atoms: C_13  and  C_14 
REMARK    5  A    between atoms: C_14  and  N_15 
REMARK       I    between atoms: N_15  and  C_16 
REMARK       I    between atoms: C_16  and  N_17 
REMARK    6  A    between atoms: N_17  and  C_18 
ROOT
HETATM    1  N   UNL     1      43.282 -15.540   4.565  1.00  0.00    -0.306 N 
HETATM    2  C   UNL     1      42.115 -14.941   4.960  1.00  0.00     0.339 C 
HETATM    3  N   UNL     1      42.234 -13.623   5.314  1.00  0.00    -0.249 N 
HETATM    4  O   UNL     1      41.009 -15.471   5.009  1.00  0.00    -0.245 OA
HETATM    5  H   UNL     1      44.125 -15.030   4.799  1.00  0.00     0.171 HD
HETATM    6  H   UNL     1      41.411 -13.175   5.718  1.00  0.00     0.192 HD
ENDROOT
BRANCH   3   7
HETATM    7  N   UNL     1      43.435 -12.896   5.368  1.00  0.00    -0.265 N 
HETATM    8  C   UNL     1      43.997 -12.799   6.635  1.00  0.00     0.253 C 
HETATM    9  O   UNL     1      43.573 -13.452   7.591  1.00  0.00    -0.270 OA
HETATM   10  H   UNL     1      43.497 -12.053   4.786  1.00  0.00     0.190 HD
BRANCH   8  11
HETATM   11  C   UNL     1      45.025 -11.683   6.818  1.00  0.00     0.228 C 
BRANCH  11  12
HETATM   12  N   UNL     1      45.049 -11.082   8.135  1.00  0.00    -0.334 N 
HETATM   13  C   UNL     1      45.707  -9.930   8.419  1.00  0.00     0.322 C 
HETATM   14  N   UNL     1      45.463  -9.338   9.616  1.00  0.00    -0.287 N 
HETATM   15  O   UNL     1      46.527  -9.450   7.634  1.00  0.00    -0.247 OA
HETATM   16  H   UNL     1      45.975  -8.491   9.814  1.00  0.00     0.172 HD
HETATM   17  H   UNL     1      44.349 -11.385   8.811  1.00  0.00     0.164 HD
BRANCH  14  18
HETATM   18  C   UNL     1      44.586  -9.788  10.560  1.00  0.00     0.174 A 
HETATM   19  S   UNL     1      43.475  -8.628  11.130  1.00  0.00    -0.062 SA
HETATM   20  C   UNL     1      42.812  -9.816  12.178  1.00  0.00     0.072 A 
HETATM   21  C   UNL     1      43.483 -11.009  12.009  1.00  0.00     0.126 A 
HETATM   22  N   UNL     1      44.500 -10.993  11.072  1.00  0.00    -0.236 NA
ENDBRANCH  14  18
ENDBRANCH  11  12
ENDBRANCH   8  11
ENDBRANCH   3   7
BRANCH   1  23
HETATM   23  C   UNL     1      43.448 -16.844   4.040  1.00  0.00     0.059 A 
HETATM   24  C   UNL     1      43.646 -17.967   4.855  1.00  0.00     0.047 A 
HETATM   25  C   UNL     1      43.791 -19.256   4.308  1.00  0.00     0.050 A 
HETATM   26  C   UNL     1      43.745 -19.413   2.917  1.00  0.00     0.018 A 
HETATM   27  C   UNL     1      43.541 -18.306   2.091  1.00  0.00     0.027 A 
HETATM   28  C   UNL     1      43.388 -17.032   2.649  1.00  0.00     0.060 A 
HETATM   29 CL   UNL     1      43.131 -15.698   1.575  1.00  0.00    -0.082 Cl
BRANCH  25  30
HETATM   30  C   UNL     1      44.013 -20.436   5.226  1.00  0.00     0.417 C 
HETATM   31  F   UNL     1      45.308 -20.862   5.249  1.00  0.00    -0.166 F 
HETATM   32  F   UNL     1      43.691 -20.161   6.518  1.00  0.00    -0.166 F 
HETATM   33  F   UNL     1      43.274 -21.523   4.873  1.00  0.00    -0.166 F 
ENDBRANCH  25  30
ENDBRANCH   1  23
TORSDOF 6
ENDMDL
MODEL 2
REMARK VINA RESULT:      -8.9      2.358      2.844
REMARK  6 active torsions:
REMARK  status: ('A' for Active; 'I' for Inactive)
REMARK    1  A    between atoms: C_2  and  C_3 
REMARK    2  A    between atoms: C_8  and  N_9 
REMARK       I    between atoms: N_9  and  C_10 
REMARK       I    between atoms: C_10  and  N_11 
REMARK    3  A    between atoms: N_11  and  N_12 
REMARK       I    between atoms: N_12  and  C_13 
REMARK    4  A    between atoms: C_13  and  C_14 
REMARK    5  A    between atoms: C_14  and  N_15 
REMARK       I    between atoms: N_15  and  C_16 
REMARK       I    between atoms: C_16  and  N_17 
REMARK    6  A    between atoms: N_17  and  C_18 
ROOT
HETATM    1  N   UNL     1      42.813 -14.277   6.167  1.00  0.00    -0.306 N 
HETATM    2  C   UNL     1      41.659 -13.561   5.986  1.00  0.00     0.339 C 
HETATM    3  N   UNL     1      41.737 -12.241   6.348  1.00  0.00    -0.249 N 
HETATM    4  O   UNL     1      40.603 -13.990   5.532  1.00  0.00    -0.245 OA
HETATM    5  H   UNL     1      43.507 -13.831   6.754  1.00  0.00     0.171 HD
HETATM    6  H   UNL     1      40.870 -11.703   6.332  1.00  0.00     0.192 HD
ENDROOT
BRANCH   3   7
HETATM    7  N   UNL     1      42.852 -11.619   6.936  1.00  0.00    -0.265 N 
HETATM    8  C   UNL     1      43.867 -11.289   6.045  1.00  0.00     0.253 C 
HETATM    9  O   UNL     1      43.716 -11.368   4.824  1.00  0.00    -0.270 OA
HETATM   10  H   UNL     1      43.157 -11.974   7.848  1.00  0.00     0.190 HD
BRANCH   8  11
HETATM   11  C   UNL     1      45.237 -11.030   6.671  1.00  0.00     0.228 C 
BRANCH  11  12
HETATM   12  N   UNL     1      45.208 -10.616   8.057  1.00  0.00    -0.334 N 
HETATM   13  C   UNL     1      45.793  -9.478   8.509  1.00  0.00     0.322 C 
HETATM   14  N   UNL     1      45.499  -9.071   9.771  1.00  0.00    -0.287 N 
HETATM   15  O   UNL     1      46.594  -8.849   7.816  1.00  0.00    -0.247 OA
HETATM   16  H   UNL     1      45.957  -8.232  10.094  1.00  0.00     0.172 HD
HETATM   17  H   UNL     1      44.518 -11.047   8.671  1.00  0.00     0.164 HD
BRANCH  14  18
HETATM   18  C   UNL     1      44.637  -9.696  10.626  1.00  0.00     0.174 A 
HETATM   19  S   UNL     1      43.462  -8.687  11.337  1.00  0.00    -0.062 SA
HETATM   20  C   UNL     1      42.852 -10.044  12.193  1.00  0.00     0.072 A 
HETATM   21  C   UNL     1      43.585 -11.166  11.867  1.00  0.00     0.126 A 
HETATM   22  N   UNL     1      44.609 -10.965  10.959  1.00  0.00    -0.236 NA
ENDBRANCH  14  18
ENDBRANCH  11  12
ENDBRANCH   8  11
ENDBRANCH   3   7
BRANCH   1  23
HETATM   23  C   UNL     1      43.066 -15.616   5.782  1.00  0.00     0.059 A 
HETATM   24  C   UNL     1      43.070 -16.029   4.443  1.00  0.00     0.047 A 
HETATM   25  C   UNL     1      43.341 -17.363   4.085  1.00  0.00     0.050 A 
HETATM   26  C   UNL     1      43.604 -18.297   5.095  1.00  0.00     0.018 A 
HETATM   27  C   UNL     1      43.613 -17.901   6.434  1.00  0.00     0.027 A 
HETATM   28  C   UNL     1      43.351 -16.569   6.774  1.00  0.00     0.060 A 
HETATM   29 CL   UNL     1      43.381 -16.135   8.451  1.00  0.00    -0.082 Cl
BRANCH  25  30
HETATM   30  C   UNL     1      43.324 -17.764   2.628  1.00  0.00     0.417 C 
HETATM   31  F   UNL     1      42.086 -18.126   2.186  1.00  0.00    -0.166 F 
HETATM   32  F   UNL     1      43.732 -16.761   1.805  1.00  0.00    -0.166 F 
HETATM   33  F   UNL     1      44.134 -18.825   2.365  1.00  0.00    -0.166 F 
ENDBRANCH  25  30
ENDBRANCH   1  23
TORSDOF 6
ENDMDL
MODEL 3
REMARK VINA RESULT:      -8.6      2.855      3.627
REMARK  6 active torsions:
REMARK  status: ('A' for Active; 'I' for Inactive)
REMARK    1  A    between atoms: C_2  and  C_3 
REMARK    2  A    between atoms: C_8  and  N_9 
REMARK       I    between atoms: N_9  and  C_10 
REMARK       I    between atoms: C_10  and  N_11 
REMARK    3  A    between atoms: N_11  and  N_12 
REMARK       I    between atoms: N_12  and  C_13 
REMARK    4  A    between atoms: C_13  and  C_14 
REMARK    5  A    between atoms: C_14  and  N_15 
REMARK       I    between atoms: N_15  and  C_16 
REMARK       I    between atoms: C_16  and  N_17 
REMARK    6  A    between atoms: N_17  and  C_18 
ROOT
HETATM    1  N   UNL     1      41.728 -14.499   6.005  1.00  0.00    -0.306 N 
HETATM    2  C   UNL     1      40.408 -14.410   6.359  1.00  0.00     0.339 C 
HETATM    3  N   UNL     1      39.937 -13.132   6.515  1.00  0.00    -0.249 N 
HETATM    4  O   UNL     1      39.639 -15.351   6.533  1.00  0.00    -0.245 OA
HETATM    5  H   UNL     1      42.262 -13.648   6.125  1.00  0.00     0.171 HD
HETATM    6  H   UNL     1      38.992 -13.027   6.885  1.00  0.00     0.192 HD
ENDROOT
BRANCH   3   7
HETATM    7  N   UNL     1      40.705 -11.960   6.410  1.00  0.00    -0.265 N 
HETATM    8  C   UNL     1      40.989 -11.569   5.107  1.00  0.00     0.253 C 
HETATM    9  O   UNL     1      40.454 -12.102   4.132  1.00  0.00    -0.270 OA
HETATM   10  H   UNL     1      41.465 -11.838   7.088  1.00  0.00     0.190 HD
BRANCH   8  11
HETATM   11  C   UNL     1      42.154 -10.592   4.949  1.00  0.00     0.228 C 
BRANCH  11  12
HETATM   12  N   UNL     1      43.245 -10.784   5.880  1.00  0.00    -0.334 N 
HETATM   13  C   UNL     1      44.509 -11.096   5.496  1.00  0.00     0.322 C 
HETATM   14  N   UNL     1      45.493 -11.015   6.427  1.00  0.00    -0.287 N 
HETATM   15  O   UNL     1      44.756 -11.476   4.350  1.00  0.00    -0.247 OA
HETATM   16  H   UNL     1      46.422 -11.267   6.126  1.00  0.00     0.172 HD
HETATM   17  H   UNL     1      43.133 -10.428   6.828  1.00  0.00     0.164 HD
BRANCH  14  18
HETATM   18  C   UNL     1      45.330 -10.618   7.723  1.00  0.00     0.174 A 
HETATM   19  S   UNL     1      46.174  -9.204   8.161  1.00  0.00    -0.062 SA
HETATM   20  C   UNL     1      45.550  -9.354   9.753  1.00  0.00     0.072 A 
HETATM   21  C   UNL     1      44.739 -10.467   9.829  1.00  0.00     0.126 A 
HETATM   22  N   UNL     1      44.608 -11.191   8.658  1.00  0.00    -0.236 NA
ENDBRANCH  14  18
ENDBRANCH  11  12
ENDBRANCH   8  11
ENDBRANCH   3   7
BRANCH   1  23
HETATM   23  C   UNL     1      42.453 -15.667   5.667  1.00  0.00     0.059 A 
HETATM   24  C   UNL     1      42.525 -16.159   4.356  1.00  0.00     0.047 A 
HETATM   25  C   UNL     1      43.267 -17.313   4.043  1.00  0.00     0.050 A 
HETATM   26  C   UNL     1      43.940 -17.987   5.071  1.00  0.00     0.018 A 
HETATM   27  C   UNL     1      43.886 -17.506   6.381  1.00  0.00     0.027 A 
HETATM   28  C   UNL     1      43.153 -16.352   6.675  1.00  0.00     0.060 A 
HETATM   29 CL   UNL     1      43.128 -15.799   8.316  1.00  0.00    -0.082 Cl
BRANCH  25  30
HETATM   30  C   UNL     1      43.306 -17.812   2.618  1.00  0.00     0.417 C 
HETATM   31  F   UNL     1      43.650 -16.845   1.720  1.00  0.00    -0.166 F 
HETATM   32  F   UNL     1      44.205 -18.818   2.441  1.00  0.00    -0.166 F 
HETATM   33  F   UNL     1      42.106 -18.296   2.196  1.00  0.00    -0.166 F 
ENDBRANCH  25  30
ENDBRANCH   1  23
TORSDOF 6
ENDMDL
MODEL 4
REMARK VINA RESULT:      -8.6      3.051      3.955
REMARK  6 active torsions:
REMARK  status: ('A' for Active; 'I' for Inactive)
REMARK    1  A    between atoms: C_2  and  C_3 
REMARK    2  A    between atoms: C_8  and  N_9 
REMARK       I    between atoms: N_9  and  C_10 
REMARK       I    between atoms: C_10  and  N_11 
REMARK    3  A    between atoms: N_11  and  N_12 
REMARK       I    between atoms: N_12  and  C_13 
REMARK    4  A    between atoms: C_13  and  C_14 
REMARK    5  A    between atoms: C_14  and  N_15 
REMARK       I    between atoms: N_15  and  C_16 
REMARK       I    between atoms: C_16  and  N_17 
REMARK    6  A    between atoms: N_17  and  C_18 
ROOT
HETATM    1  N   UNL     1      42.747 -15.380   3.285  1.00  0.00    -0.306 N 
HETATM    2  C   UNL     1      43.163 -14.711   2.164  1.00  0.00     0.339 C 
HETATM    3  N   UNL     1      42.649 -13.449   2.021  1.00  0.00    -0.249 N 
HETATM    4  O   UNL     1      43.940 -15.135   1.314  1.00  0.00    -0.245 OA
HETATM    5  H   UNL     1      41.943 -14.977   3.750  1.00  0.00     0.171 HD
HETATM    6  H   UNL     1      42.847 -12.963   1.146  1.00  0.00     0.192 HD
ENDROOT
BRANCH   3   7
HETATM    7  N   UNL     1      41.707 -12.849   2.874  1.00  0.00    -0.265 N 
HETATM    8  C   UNL     1      41.759 -11.460   2.907  1.00  0.00     0.253 C 
HETATM    9  O   UNL     1      42.447 -10.812   2.116  1.00  0.00    -0.270 OA
HETATM   10  H   UNL     1      41.529 -13.311   3.772  1.00  0.00     0.190 HD
BRANCH   8  11
HETATM   11  C   UNL     1      41.085 -10.802   4.111  1.00  0.00     0.228 C 
BRANCH  11  12
HETATM   12  N   UNL     1      41.943 -10.597   5.257  1.00  0.00    -0.334 N 
HETATM   13  C   UNL     1      41.483 -10.521   6.532  1.00  0.00     0.322 C 
HETATM   14  N   UNL     1      42.392 -10.569   7.539  1.00  0.00    -0.287 N 
HETATM   15  O   UNL     1      40.284 -10.378   6.773  1.00  0.00    -0.247 OA
HETATM   16  H   UNL     1      42.031 -10.495   8.478  1.00  0.00     0.172 HD
HETATM   17  H   UNL     1      42.942 -10.768   5.144  1.00  0.00     0.164 HD
BRANCH  14  18
HETATM   18  C   UNL     1      43.741 -10.715   7.384  1.00  0.00     0.174 A 
HETATM   19  S   UNL     1      44.697  -9.696   8.360  1.00  0.00    -0.062 SA
HETATM   20  C   UNL     1      46.104 -10.383   7.655  1.00  0.00     0.072 A 
HETATM   21  C   UNL     1      45.739 -11.341   6.733  1.00  0.00     0.126 A 
HETATM   22  N   UNL     1      44.378 -11.536   6.583  1.00  0.00    -0.236 NA
ENDBRANCH  14  18
ENDBRANCH  11  12
ENDBRANCH   8  11
ENDBRANCH   3   7
BRANCH   1  23
HETATM   23  C   UNL     1      43.192 -16.639   3.754  1.00  0.00     0.059 A 
HETATM   24  C   UNL     1      43.163 -17.794   2.960  1.00  0.00     0.047 A 
HETATM   25  C   UNL     1      43.628 -19.031   3.444  1.00  0.00     0.050 A 
HETATM   26  C   UNL     1      44.122 -19.107   4.753  1.00  0.00     0.018 A 
HETATM   27  C   UNL     1      44.166 -17.964   5.555  1.00  0.00     0.027 A 
HETATM   28  C   UNL     1      43.709 -16.739   5.056  1.00  0.00     0.060 A 
HETATM   29 CL   UNL     1      43.794 -15.355   6.095  1.00  0.00    -0.082 Cl
BRANCH  25  30
HETATM   30  C   UNL     1      43.567 -20.252   2.555  1.00  0.00     0.417 C 
HETATM   31  F   UNL     1      43.761 -21.419   3.232  1.00  0.00    -0.166 F 
HETATM   32  F   UNL     1      42.367 -20.382   1.928  1.00  0.00    -0.166 F 
HETATM   33  F   UNL     1      44.509 -20.235   1.573  1.00  0.00    -0.166 F 
ENDBRANCH  25  30
ENDBRANCH   1  23
TORSDOF 6
ENDMDL
MODEL 5
REMARK VINA RESULT:      -8.4      6.768      9.149
REMARK  6 active torsions:
REMARK  status: ('A' for Active; 'I' for Inactive)
REMARK    1  A    between atoms: C_2  and  C_3 
REMARK    2  A    between atoms: C_8  and  N_9 
REMARK       I    between atoms: N_9  and  C_10 
REMARK       I    between atoms: C_10  and  N_11 
REMARK    3  A    between atoms: N_11  and  N_12 
REMARK       I    between atoms: N_12  and  C_13 
REMARK    4  A    between atoms: C_13  and  C_14 
REMARK    5  A    between atoms: C_14  and  N_15 
REMARK       I    between atoms: N_15  and  C_16 
REMARK       I    between atoms: C_16  and  N_17 
REMARK    6  A    between atoms: N_17  and  C_18 
ROOT
HETATM    1  N   UNL     1      41.656 -15.664   1.564  1.00  0.00    -0.306 N 
HETATM    2  C   UNL     1      40.316 -15.393   1.651  1.00  0.00     0.339 C 
HETATM    3  N   UNL     1      39.829 -14.571   0.669  1.00  0.00    -0.249 N 
HETATM    4  O   UNL     1      39.544 -15.821   2.504  1.00  0.00    -0.245 OA
HETATM    5  H   UNL     1      42.176 -15.056   0.944  1.00  0.00     0.171 HD
HETATM    6  H   UNL     1      38.862 -14.258   0.763  1.00  0.00     0.192 HD
ENDROOT
BRANCH   3   7
HETATM    7  N   UNL     1      40.594 -13.956  -0.336  1.00  0.00    -0.265 N 
HETATM    8  C   UNL     1      40.791 -12.591  -0.160  1.00  0.00     0.253 C 
HETATM    9  O   UNL     1      40.478 -12.015   0.884  1.00  0.00    -0.270 OA
HETATM   10  H   UNL     1      40.430 -14.262  -1.301  1.00  0.00     0.190 HD
BRANCH   8  11
HETATM   11  C   UNL     1      41.218 -11.819  -1.408  1.00  0.00     0.228 C 
BRANCH  11  12
HETATM   12  N   UNL     1      40.132 -11.257  -2.182  1.00  0.00    -0.334 N 
HETATM   13  C   UNL     1      39.325 -11.997  -2.984  1.00  0.00     0.322 C 
HETATM   14  N   UNL     1      38.200 -11.411  -3.468  1.00  0.00    -0.287 N 
HETATM   15  O   UNL     1      39.616 -13.153  -3.295  1.00  0.00    -0.247 OA
HETATM   16  H   UNL     1      37.623 -11.973  -4.075  1.00  0.00     0.172 HD
HETATM   17  H   UNL     1      39.794 -10.329  -1.929  1.00  0.00     0.164 HD
BRANCH  14  18
HETATM   18  C   UNL     1      37.789 -10.137  -3.196  1.00  0.00     0.174 A 
HETATM   19  S   UNL     1      36.294 -10.015  -2.387  1.00  0.00    -0.062 SA
HETATM   20  C   UNL     1      36.444  -8.305  -2.423  1.00  0.00     0.072 A 
HETATM   21  C   UNL     1      37.625  -7.957  -3.044  1.00  0.00     0.126 A 
HETATM   22  N   UNL     1      38.402  -9.014  -3.483  1.00  0.00    -0.236 NA
ENDBRANCH  14  18
ENDBRANCH  11  12
ENDBRANCH   8  11
ENDBRANCH   3   7
BRANCH   1  23
HETATM   23  C   UNL     1      42.408 -16.561   2.360  1.00  0.00     0.059 A 
HETATM   24  C   UNL     1      42.576 -17.911   2.023  1.00  0.00     0.047 A 
HETATM   25  C   UNL     1      43.343 -18.779   2.823  1.00  0.00     0.050 A 
HETATM   26  C   UNL     1      43.943 -18.279   3.986  1.00  0.00     0.018 A 
HETATM   27  C   UNL     1      43.792 -16.934   4.333  1.00  0.00     0.027 A 
HETATM   28  C   UNL     1      43.035 -16.081   3.522  1.00  0.00     0.060 A 
HETATM   29 CL   UNL     1      42.889 -14.423   3.999  1.00  0.00    -0.082 Cl
BRANCH  25  30
HETATM   30  C   UNL     1      43.488 -20.230   2.425  1.00  0.00     0.417 C 
HETATM   31  F   UNL     1      44.542 -20.455   1.590  1.00  0.00    -0.166 F 
HETATM   32  F   UNL     1      43.681 -21.048   3.495  1.00  0.00    -0.166 F 
HETATM   33  F   UNL     1      42.393 -20.709   1.773  1.00  0.00    -0.166 F 
ENDBRANCH  25  30
ENDBRANCH   1  23
TORSDOF 6
ENDMDL
MODEL 6
REMARK VINA RESULT:      -8.4      6.114      8.312
REMARK  6 active torsions:
REMARK  status: ('A' for Active; 'I' for Inactive)
REMARK    1  A    between atoms: C_2  and  C_3 
REMARK    2  A    between atoms: C_8  and  N_9 
REMARK       I    between atoms: N_9  and  C_10 
REMARK       I    between atoms: C_10  and  N_11 
REMARK    3  A    between atoms: N_11  and  N_12 
REMARK       I    between atoms: N_12  and  C_13 
REMARK    4  A    between atoms: C_13  and  C_14 
REMARK    5  A    between atoms: C_14  and  N_15 
REMARK       I    between atoms: N_15  and  C_16 
REMARK       I    between atoms: C_16  and  N_17 
REMARK    6  A    between atoms: N_17  and  C_18 
ROOT
HETATM    1  N   UNL     1      41.993 -15.657   2.875  1.00  0.00    -0.306 N 
HETATM    2  C   UNL     1      40.695 -15.377   3.209  1.00  0.00     0.339 C 
HETATM    3  N   UNL     1      40.137 -14.329   2.525  1.00  0.00    -0.249 N 
HETATM    4  O   UNL     1      40.013 -15.976   4.036  1.00  0.00    -0.245 OA
HETATM    5  H   UNL     1      42.466 -14.933   2.349  1.00  0.00     0.171 HD
HETATM    6  H   UNL     1      39.211 -14.019   2.824  1.00  0.00     0.192 HD
ENDROOT
BRANCH   3   7
HETATM    7  N   UNL     1      40.803 -13.512   1.596  1.00  0.00    -0.265 N 
HETATM    8  C   UNL     1      41.008 -12.204   2.019  1.00  0.00     0.253 C 
HETATM    9  O   UNL     1      40.790 -11.849   3.179  1.00  0.00    -0.270 OA
HETATM   10  H   UNL     1      40.552 -13.628   0.608  1.00  0.00     0.190 HD
BRANCH   8  11
HETATM   11  C   UNL     1      41.315 -11.193   0.914  1.00  0.00     0.228 C 
BRANCH  11  12
HETATM   12  N   UNL     1      40.748 -11.509  -0.380  1.00  0.00    -0.334 N 
HETATM   13  C   UNL     1      41.207 -10.987  -1.545  1.00  0.00     0.322 C 
HETATM   14  N   UNL     1      40.763 -11.534  -2.705  1.00  0.00    -0.287 N 
HETATM   15  O   UNL     1      41.976 -10.024  -1.557  1.00  0.00    -0.247 OA
HETATM   16  H   UNL     1      41.103 -11.121  -3.560  1.00  0.00     0.172 HD
HETATM   17  H   UNL     1      40.158 -12.337  -0.454  1.00  0.00     0.164 HD
BRANCH  14  18
HETATM   18  C   UNL     1      39.905 -12.592  -2.806  1.00  0.00     0.174 A 
HETATM   19  S   UNL     1      38.250 -12.193  -2.743  1.00  0.00    -0.062 SA
HETATM   20  C   UNL     1      37.869 -13.860  -2.895  1.00  0.00     0.072 A 
HETATM   21  C   UNL     1      39.032 -14.595  -2.990  1.00  0.00     0.126 A 
HETATM   22  N   UNL     1      40.205 -13.862  -2.945  1.00  0.00    -0.236 NA
ENDBRANCH  14  18
ENDBRANCH  11  12
ENDBRANCH   8  11
ENDBRANCH   3   7
BRANCH   1  23
HETATM   23  C   UNL     1      42.785 -16.741   3.326  1.00  0.00     0.059 A 
HETATM   24  C   UNL     1      42.841 -17.968   2.650  1.00  0.00     0.047 A 
HETATM   25  C   UNL     1      43.649 -19.025   3.109  1.00  0.00     0.050 A 
HETATM   26  C   UNL     1      44.406 -18.844   4.274  1.00  0.00     0.018 A 
HETATM   27  C   UNL     1      44.369 -17.626   4.955  1.00  0.00     0.027 A 
HETATM   28  C   UNL     1      43.568 -16.581   4.481  1.00  0.00     0.060 A 
HETATM   29 CL   UNL     1      43.567 -15.091   5.364  1.00  0.00    -0.082 Cl
BRANCH  25  30
HETATM   30  C   UNL     1      43.670 -20.333   2.353  1.00  0.00     0.417 C 
HETATM   31  F   UNL     1      43.926 -21.409   3.150  1.00  0.00    -0.166 F 
HETATM   32  F   UNL     1      42.485 -20.600   1.740  1.00  0.00    -0.166 F 
HETATM   33  F   UNL     1      44.618 -20.363   1.378  1.00  0.00    -0.166 F 
ENDBRANCH  25  30
ENDBRANCH   1  23
TORSDOF 6
ENDMDL
MODEL 7
REMARK VINA RESULT:      -8.4      6.587      8.668
REMARK  6 active torsions:
REMARK  status: ('A' for Active; 'I' for Inactive)
REMARK    1  A    between atoms: C_2  and  C_3 
REMARK    2  A    between atoms: C_8  and  N_9 
REMARK       I    between atoms: N_9  and  C_10 
REMARK       I    between atoms: C_10  and  N_11 
REMARK    3  A    between atoms: N_11  and  N_12 
REMARK       I    between atoms: N_12  and  C_13 
REMARK    4  A    between atoms: C_13  and  C_14 
REMARK    5  A    between atoms: C_14  and  N_15 
REMARK       I    between atoms: N_15  and  C_16 
REMARK       I    between atoms: C_16  and  N_17 
REMARK    6  A    between atoms: N_17  and  C_18 
ROOT
HETATM    1  N   UNL     1      41.693 -15.588   1.558  1.00  0.00    -0.306 N 
HETATM    2  C   UNL     1      40.350 -15.328   1.618  1.00  0.00     0.339 C 
HETATM    3  N   UNL     1      39.880 -14.495   0.636  1.00  0.00    -0.249 N 
HETATM    4  O   UNL     1      39.560 -15.774   2.445  1.00  0.00    -0.245 OA
HETATM    5  H   UNL     1      42.224 -14.968   0.959  1.00  0.00     0.171 HD
HETATM    6  H   UNL     1      38.909 -14.190   0.712  1.00  0.00     0.192 HD
ENDROOT
BRANCH   3   7
HETATM    7  N   UNL     1      40.664 -13.860  -0.342  1.00  0.00    -0.265 N 
HETATM    8  C   UNL     1      39.973 -12.956  -1.141  1.00  0.00     0.253 C 
HETATM    9  O   UNL     1      38.817 -12.610  -0.887  1.00  0.00    -0.270 OA
HETATM   10  H   UNL     1      41.367 -14.432  -0.821  1.00  0.00     0.190 HD
BRANCH   8  11
HETATM   11  C   UNL     1      40.652 -12.587  -2.459  1.00  0.00     0.228 C 
BRANCH  11  12
HETATM   12  N   UNL     1      40.874 -11.171  -2.658  1.00  0.00    -0.334 N 
HETATM   13  C   UNL     1      39.911 -10.316  -3.084  1.00  0.00     0.322 C 
HETATM   14  N   UNL     1      40.163  -8.984  -3.002  1.00  0.00    -0.287 N 
HETATM   15  O   UNL     1      38.853 -10.728  -3.563  1.00  0.00    -0.247 OA
HETATM   16  H   UNL     1      39.440  -8.366  -3.340  1.00  0.00     0.172 HD
HETATM   17  H   UNL     1      41.696 -10.751  -2.226  1.00  0.00     0.164 HD
BRANCH  14  18
HETATM   18  C   UNL     1      41.300  -8.420  -2.500  1.00  0.00     0.174 A 
HETATM   19  S   UNL     1      41.956  -7.155  -3.434  1.00  0.00    -0.062 SA
HETATM   20  C   UNL     1      43.227  -7.004  -2.290  1.00  0.00     0.072 A 
HETATM   21  C   UNL     1      43.052  -7.925  -1.279  1.00  0.00     0.126 A 
HETATM   22  N   UNL     1      41.938  -8.736  -1.398  1.00  0.00    -0.236 NA
ENDBRANCH  14  18
ENDBRANCH  11  12
ENDBRANCH   8  11
ENDBRANCH   3   7
BRANCH   1  23
HETATM   23  C   UNL     1      42.433 -16.492   2.359  1.00  0.00     0.059 A 
HETATM   24  C   UNL     1      42.572 -17.848   2.035  1.00  0.00     0.047 A 
HETATM   25  C   UNL     1      43.327 -18.723   2.839  1.00  0.00     0.050 A 
HETATM   26  C   UNL     1      43.945 -18.222   3.993  1.00  0.00     0.018 A 
HETATM   27  C   UNL     1      43.823 -16.871   4.326  1.00  0.00     0.027 A 
HETATM   28  C   UNL     1      43.077 -16.012   3.512  1.00  0.00     0.060 A 
HETATM   29 CL   UNL     1      42.967 -14.346   3.972  1.00  0.00    -0.082 Cl
BRANCH  25  30
HETATM   30  C   UNL     1      43.441 -20.180   2.455  1.00  0.00     0.417 C 
HETATM   31  F   UNL     1      44.488 -20.435   1.621  1.00  0.00    -0.166 F 
HETATM   32  F   UNL     1      43.619 -20.991   3.533  1.00  0.00    -0.166 F 
HETATM   33  F   UNL     1      42.335 -20.642   1.811  1.00  0.00    -0.166 F 
ENDBRANCH  25  30
ENDBRANCH   1  23
TORSDOF 6
ENDMDL
MODEL 8
REMARK VINA RESULT:      -8.2      1.766      2.063
REMARK  6 active torsions:
REMARK  status: ('A' for Active; 'I' for Inactive)
REMARK    1  A    between atoms: C_2  and  C_3 
REMARK    2  A    between atoms: C_8  and  N_9 
REMARK       I    between atoms: N_9  and  C_10 
REMARK       I    between atoms: C_10  and  N_11 
REMARK    3  A    between atoms: N_11  and  N_12 
REMARK       I    between atoms: N_12  and  C_13 
REMARK    4  A    between atoms: C_13  and  C_14 
REMARK    5  A    between atoms: C_14  and  N_15 
REMARK       I    between atoms: N_15  and  C_16 
REMARK       I    between atoms: C_16  and  N_17 
REMARK    6  A    between atoms: N_17  and  C_18 
ROOT
HETATM    1  N   UNL     1      42.610 -14.014   4.947  1.00  0.00    -0.306 N 
HETATM    2  C   UNL     1      41.579 -13.925   5.845  1.00  0.00     0.339 C 
HETATM    3  N   UNL     1      41.530 -12.752   6.552  1.00  0.00    -0.249 N 
HETATM    4  O   UNL     1      40.720 -14.778   6.051  1.00  0.00    -0.245 OA
HETATM    5  H   UNL     1      43.343 -13.327   5.068  1.00  0.00     0.171 HD
HETATM    6  H   UNL     1      40.845 -12.693   7.307  1.00  0.00     0.192 HD
ENDROOT
BRANCH   3   7
HETATM    7  N   UNL     1      42.470 -11.710   6.474  1.00  0.00    -0.265 N 
HETATM    8  C   UNL     1      43.630 -11.921   7.210  1.00  0.00     0.253 C 
HETATM    9  O   UNL     1      43.885 -13.008   7.733  1.00  0.00    -0.270 OA
HETATM   10  H   UNL     1      42.106 -10.752   6.478  1.00  0.00     0.190 HD
BRANCH   8  11
HETATM   11  C   UNL     1      44.458 -10.671   7.509  1.00  0.00     0.228 C 
BRANCH  11  12
HETATM   12  N   UNL     1      44.063  -9.944   8.696  1.00  0.00    -0.334 N 
HETATM   13  C   UNL     1      44.399  -8.649   8.926  1.00  0.00     0.322 C 
HETATM   14  N   UNL     1      43.776  -8.003   9.945  1.00  0.00    -0.287 N 
HETATM   15  O   UNL     1      45.265  -8.083   8.257  1.00  0.00    -0.247 OA
HETATM   16  H   UNL     1      44.052  -7.047  10.109  1.00  0.00     0.172 HD
HETATM   17  H   UNL     1      43.300 -10.322   9.257  1.00  0.00     0.164 HD
BRANCH  14  18
HETATM   18  C   UNL     1      42.813  -8.536  10.752  1.00  0.00     0.174 A 
HETATM   19  S   UNL     1      43.166  -8.508  12.419  1.00  0.00    -0.062 SA
HETATM   20  C   UNL     1      41.663  -9.280  12.724  1.00  0.00     0.072 A 
HETATM   21  C   UNL     1      41.002  -9.494  11.533  1.00  0.00     0.126 A 
HETATM   22  N   UNL     1      41.663  -9.059  10.398  1.00  0.00    -0.236 NA
ENDBRANCH  14  18
ENDBRANCH  11  12
ENDBRANCH   8  11
ENDBRANCH   3   7
BRANCH   1  23
HETATM   23  C   UNL     1      42.846 -15.045   4.006  1.00  0.00     0.059 A 
HETATM   24  C   UNL     1      43.262 -16.330   4.380  1.00  0.00     0.047 A 
HETATM   25  C   UNL     1      43.474 -17.342   3.425  1.00  0.00     0.050 A 
HETATM   26  C   UNL     1      43.272 -17.050   2.070  1.00  0.00     0.018 A 
HETATM   27  C   UNL     1      42.850 -15.777   1.680  1.00  0.00     0.027 A 
HETATM   28  C   UNL     1      42.633 -14.784   2.641  1.00  0.00     0.060 A 
HETATM   29 CL   UNL     1      42.104 -13.227   2.099  1.00  0.00    -0.082 Cl
BRANCH  25  30
HETATM   30  C   UNL     1      43.933 -18.709   3.875  1.00  0.00     0.417 C 
HETATM   31  F   UNL     1      45.287 -18.808   4.000  1.00  0.00    -0.166 F 
HETATM   32  F   UNL     1      43.423 -19.059   5.087  1.00  0.00    -0.166 F 
HETATM   33  F   UNL     1      43.570 -19.697   3.012  1.00  0.00    -0.166 F 
ENDBRANCH  25  30
ENDBRANCH   1  23
TORSDOF 6
ENDMDL
MODEL 9
REMARK VINA RESULT:      -8.2      3.402      4.805
REMARK  6 active torsions:
REMARK  status: ('A' for Active; 'I' for Inactive)
REMARK    1  A    between atoms: C_2  and  C_3 
REMARK    2  A    between atoms: C_8  and  N_9 
REMARK       I    between atoms: N_9  and  C_10 
REMARK       I    between atoms: C_10  and  N_11 
REMARK    3  A    between atoms: N_11  and  N_12 
REMARK       I    between atoms: N_12  and  C_13 
REMARK    4  A    between atoms: C_13  and  C_14 
REMARK    5  A    between atoms: C_14  and  N_15 
REMARK       I    between atoms: N_15  and  C_16 
REMARK       I    between atoms: C_16  and  N_17 
REMARK    6  A    between atoms: N_17  and  C_18 
ROOT
HETATM    1  N   UNL     1      43.206 -15.756   5.475  1.00  0.00    -0.306 N 
HETATM    2  C   UNL     1      43.313 -15.766   6.841  1.00  0.00     0.339 C 
HETATM    3  N   UNL     1      42.961 -14.592   7.455  1.00  0.00    -0.249 N 
HETATM    4  O   UNL     1      43.678 -16.711   7.533  1.00  0.00    -0.245 OA
HETATM    5  H   UNL     1      43.110 -14.837   5.060  1.00  0.00     0.171 HD
HETATM    6  H   UNL     1      43.133 -14.524   8.459  1.00  0.00     0.192 HD
ENDROOT
BRANCH   3   7
HETATM    7  N   UNL     1      42.582 -13.408   6.801  1.00  0.00    -0.265 N 
HETATM    8  C   UNL     1      43.566 -12.426   6.767  1.00  0.00     0.253 C 
HETATM    9  O   UNL     1      44.726 -12.650   7.117  1.00  0.00    -0.270 OA
HETATM   10  H   UNL     1      41.624 -13.075   6.954  1.00  0.00     0.190 HD
BRANCH   8  11
HETATM   11  C   UNL     1      43.074 -11.009   6.474  1.00  0.00     0.228 C 
BRANCH  11  12
HETATM   12  N   UNL     1      42.430 -10.837   5.189  1.00  0.00    -0.334 N 
HETATM   13  C   UNL     1      43.050 -11.068   4.005  1.00  0.00     0.322 C 
HETATM   14  N   UNL     1      42.285 -11.109   2.884  1.00  0.00    -0.287 N 
HETATM   15  O   UNL     1      44.273 -11.203   3.938  1.00  0.00    -0.247 OA
HETATM   16  H   UNL     1      42.768 -11.265   2.013  1.00  0.00     0.172 HD
HETATM   17  H   UNL     1      41.412 -10.790   5.168  1.00  0.00     0.164 HD
BRANCH  14  18
HETATM   18  C   UNL     1      40.928 -10.962   2.844  1.00  0.00     0.174 A 
HETATM   19  S   UNL     1      40.073 -12.300   2.227  1.00  0.00    -0.062 SA
HETATM   20  C   UNL     1      38.607 -11.435   2.454  1.00  0.00     0.072 A 
HETATM   21  C   UNL     1      38.880 -10.194   2.989  1.00  0.00     0.126 A 
HETATM   22  N   UNL     1      40.218  -9.925   3.219  1.00  0.00    -0.236 NA
ENDBRANCH  14  18
ENDBRANCH  11  12
ENDBRANCH   8  11
ENDBRANCH   3   7
BRANCH   1  23
HETATM   23  C   UNL     1      43.388 -16.844   4.588  1.00  0.00     0.059 A 
HETATM   24  C   UNL     1      43.633 -18.150   5.034  1.00  0.00     0.047 A 
HETATM   25  C   UNL     1      43.794 -19.217   4.132  1.00  0.00     0.050 A 
HETATM   26  C   UNL     1      43.715 -18.962   2.756  1.00  0.00     0.018 A 
HETATM   27  C   UNL     1      43.463 -17.668   2.294  1.00  0.00     0.027 A 
HETATM   28  C   UNL     1      43.295 -16.618   3.204  1.00  0.00     0.060 A 
HETATM   29 CL   UNL     1      42.980 -15.037   2.573  1.00  0.00    -0.082 Cl
BRANCH  25  30
HETATM   30  C   UNL     1      44.067 -20.607   4.659  1.00  0.00     0.417 C 
HETATM   31  F   UNL     1      45.301 -20.734   5.224  1.00  0.00    -0.166 F 
HETATM   32  F   UNL     1      43.179 -20.985   5.618  1.00  0.00    -0.166 F 
HETATM   33  F   UNL     1      44.007 -21.559   3.689  1.00  0.00    -0.166 F 
ENDBRANCH  25  30
ENDBRANCH   1  23
TORSDOF 6
ENDMDL
MODEL 10
REMARK VINA RESULT:      -8.1      3.847      4.854
REMARK  6 active torsions:
REMARK  status: ('A' for Active; 'I' for Inactive)
REMARK    1  A    between atoms: C_2  and  C_3 
REMARK    2  A    between atoms: C_8  and  N_9 
REMARK       I    between atoms: N_9  and  C_10 
REMARK       I    between atoms: C_10  and  N_11 
REMARK    3  A    between atoms: N_11  and  N_12 
REMARK       I    between atoms: N_12  and  C_13 
REMARK    4  A    between atoms: C_13  and  C_14 
REMARK    5  A    between atoms: C_14  and  N_15 
REMARK       I    between atoms: N_15  and  C_16 
REMARK       I    between atoms: C_16  and  N_17 
REMARK    6  A    between atoms: N_17  and  C_18 
ROOT
HETATM    1  N   UNL     1      42.627 -13.297   6.011  1.00  0.00    -0.306 N 
HETATM    2  C   UNL     1      43.585 -12.488   6.561  1.00  0.00     0.339 C 
HETATM    3  N   UNL     1      43.105 -11.361   7.177  1.00  0.00    -0.249 N 
HETATM    4  O   UNL     1      44.796 -12.690   6.555  1.00  0.00    -0.245 OA
HETATM    5  H   UNL     1      41.714 -12.871   5.910  1.00  0.00     0.171 HD
HETATM    6  H   UNL     1      43.793 -10.680   7.500  1.00  0.00     0.192 HD
ENDROOT
BRANCH   3   7
HETATM    7  N   UNL     1      41.758 -10.962   7.215  1.00  0.00    -0.265 N 
HETATM    8  C   UNL     1      41.564  -9.586   7.240  1.00  0.00     0.253 C 
HETATM    9  O   UNL     1      42.487  -8.790   7.056  1.00  0.00    -0.270 OA
HETATM   10  H   UNL     1      41.125 -11.513   7.804  1.00  0.00     0.190 HD
BRANCH   8  11
HETATM   11  C   UNL     1      40.188  -9.122   7.719  1.00  0.00     0.228 C 
BRANCH  11  12
HETATM   12  N   UNL     1      39.961  -9.246   9.142  1.00  0.00    -0.334 N 
HETATM   13  C   UNL     1      39.153 -10.189   9.691  1.00  0.00     0.322 C 
HETATM   14  N   UNL     1      39.204 -10.364  11.036  1.00  0.00    -0.287 N 
HETATM   15  O   UNL     1      38.370 -10.843   9.000  1.00  0.00    -0.247 OA
HETATM   16  H   UNL     1      38.584 -11.058  11.425  1.00  0.00     0.172 HD
HETATM   17  H   UNL     1      40.616  -8.786   9.773  1.00  0.00     0.164 HD
BRANCH  14  18
HETATM   18  C   UNL     1      40.023  -9.688  11.894  1.00  0.00     0.174 A 
HETATM   19  S   UNL     1      39.296  -8.385  12.716  1.00  0.00    -0.062 SA
HETATM   20  C   UNL     1      40.794  -8.071  13.492  1.00  0.00     0.072 A 
HETATM   21  C   UNL     1      41.735  -8.988  13.071  1.00  0.00     0.126 A 
HETATM   22  N   UNL     1      41.287  -9.923  12.156  1.00  0.00    -0.236 NA
ENDBRANCH  14  18
ENDBRANCH  11  12
ENDBRANCH   8  11
ENDBRANCH   3   7
BRANCH   1  23
HETATM   23  C   UNL     1      42.809 -14.569   5.417  1.00  0.00     0.059 A 
HETATM   24  C   UNL     1      42.850 -14.757   4.029  1.00  0.00     0.047 A 
HETATM   25  C   UNL     1      43.049 -16.030   3.464  1.00  0.00     0.050 A 
HETATM   26  C   UNL     1      43.201 -17.134   4.314  1.00  0.00     0.018 A 
HETATM   27  C   UNL     1      43.171 -16.964   5.700  1.00  0.00     0.027 A 
HETATM   28  C   UNL     1      42.982 -15.690   6.247  1.00  0.00     0.060 A 
HETATM   29 CL   UNL     1      42.960 -15.540   7.972  1.00  0.00    -0.082 Cl
BRANCH  25  30
HETATM   30  C   UNL     1      43.076 -16.185   1.962  1.00  0.00     0.417 C 
HETATM   31  F   UNL     1      41.902 -15.834   1.365  1.00  0.00    -0.166 F 
HETATM   32  F   UNL     1      44.034 -15.419   1.374  1.00  0.00    -0.166 F 
HETATM   33  F   UNL     1      43.319 -17.465   1.569  1.00  0.00    -0.166 F 
ENDBRANCH  25  30
ENDBRANCH   1  23
TORSDOF 6
ENDMDL
