MODEL 1
REMARK VINA RESULT:      -8.0      0.000      0.000
REMARK  5 active torsions:
REMARK  status: ('A' for Active; 'I' for Inactive)
REMARK    1  A    between atoms: C_4  and  C_5 
REMARK    2  A    between atoms: C_11  and  C_12 
REMARK    3  A    between atoms: C_12  and  N_13 
REMARK    4  A    between atoms: C_16  and  C_17 
REMARK    5  A    between atoms: C_17  and  O_18 
ROOT
HETATM    1  N   UNL     1      41.578 -12.185   3.102  1.00  0.00    -0.066 N 
HETATM    2  H   UNL     1      40.917 -12.971   3.210  1.00  0.00     0.280 HD
HETATM    3  C   UNL     1      41.078 -11.022   3.904  1.00  0.00     0.250 C 
HETATM    4  C   UNL     1      41.377 -11.382   5.367  1.00  0.00     0.036 C 
HETATM    5  C   UNL     1      42.532 -12.428   5.289  1.00  0.00     0.061 C 
HETATM    6  C   UNL     1      42.859 -12.573   3.795  1.00  0.00     0.245 C 
HETATM    7  C   UNL     1      40.118 -11.973   6.020  1.00  0.00     0.189 C 
HETATM    8  O   UNL     1      39.827 -13.265   5.475  1.00  0.00    -0.350 OA
HETATM    9  C   UNL     1      40.791 -14.141   5.904  1.00  0.00     0.075 A 
HETATM   10  C   UNL     1      42.138 -13.764   5.876  1.00  0.00    -0.018 A 
HETATM   11  C   UNL     1      40.396 -15.389   6.371  1.00  0.00     0.037 A 
HETATM   12  C   UNL     1      41.358 -16.265   6.869  1.00  0.00     0.003 A 
HETATM   13  C   UNL     1      42.705 -15.895   6.878  1.00  0.00     0.001 A 
HETATM   14  C   UNL     1      43.098 -14.654   6.373  1.00  0.00     0.010 A 
ENDROOT
BRANCH   1  15
HETATM   15  C   UNL     1      41.713 -11.882   1.639  1.00  0.00     0.277 C 
BRANCH  15  16
HETATM   16  C   UNL     1      40.851 -12.724   0.777  1.00  0.00     0.016 A 
HETATM   17  C   UNL     1      40.764 -14.151   0.749  1.00  0.00     0.096 A 
HETATM   18  N   UNL     1      39.833 -14.551  -0.126  1.00  0.00    -0.172 NA
HETATM   19  N   UNL     1      39.412 -13.431  -0.725  1.00  0.00    -0.284 N 
HETATM   20  C   UNL     1      38.463 -13.512  -1.811  1.00  0.00     0.179 C 
HETATM   21  C   UNL     1      39.963 -12.301  -0.196  1.00  0.00     0.123 A 
BRANCH  17  22
HETATM   22  C   UNL     1      41.505 -15.132   1.539  1.00  0.00    -0.005 A 
HETATM   23  C   UNL     1      40.888 -15.830   2.586  1.00  0.00     0.014 A 
HETATM   24  C   UNL     1      41.605 -16.774   3.324  1.00  0.00     0.001 A 
HETATM   25  C   UNL     1      42.947 -17.012   3.035  1.00  0.00     0.000 A 
HETATM   26  C   UNL     1      43.578 -16.302   2.015  1.00  0.00     0.001 A 
HETATM   27  C   UNL     1      42.860 -15.365   1.271  1.00  0.00     0.014 A 
ENDBRANCH  17  22
ENDBRANCH  15  16
ENDBRANCH   1  15
BRANCH   4  28
HETATM   28  C   UNL     1      41.799 -10.133   6.149  1.00  0.00     0.178 C 
BRANCH  28  29
HETATM   29  O   UNL     1      42.292 -10.525   7.422  1.00  0.00    -0.400 OA
HETATM   30  H   UNL     1      43.026 -11.155   7.269  1.00  0.00     0.209 HD
ENDBRANCH  28  29
ENDBRANCH   4  28
TORSDOF 5
ENDMDL
MODEL 2
REMARK VINA RESULT:      -7.9      2.534      5.791
REMARK  5 active torsions:
REMARK  status: ('A' for Active; 'I' for Inactive)
REMARK    1  A    between atoms: C_4  and  C_5 
REMARK    2  A    between atoms: C_11  and  C_12 
REMARK    3  A    between atoms: C_12  and  N_13 
REMARK    4  A    between atoms: C_16  and  C_17 
REMARK    5  A    between atoms: C_17  and  O_18 
ROOT
HETATM    1  N   UNL     1      41.310 -12.459   4.720  1.00  0.00    -0.066 N 
HETATM    2  H   UNL     1      42.266 -12.685   4.403  1.00  0.00     0.280 HD
HETATM    3  C   UNL     1      40.622 -11.671   3.647  1.00  0.00     0.250 C 
HETATM    4  C   UNL     1      40.272 -12.695   2.556  1.00  0.00     0.036 C 
HETATM    5  C   UNL     1      40.244 -14.068   3.295  1.00  0.00     0.061 C 
HETATM    6  C   UNL     1      40.533 -13.749   4.770  1.00  0.00     0.245 C 
HETATM    7  C   UNL     1      41.345 -12.662   1.457  1.00  0.00     0.189 C 
HETATM    8  O   UNL     1      42.582 -13.195   1.944  1.00  0.00    -0.350 OA
HETATM    9  C   UNL     1      42.426 -14.545   2.131  1.00  0.00     0.075 A 
HETATM   10  C   UNL     1      41.272 -15.034   2.753  1.00  0.00    -0.018 A 
HETATM   11  C   UNL     1      43.426 -15.398   1.682  1.00  0.00     0.037 A 
HETATM   12  C   UNL     1      43.252 -16.776   1.808  1.00  0.00     0.003 A 
HETATM   13  C   UNL     1      42.094 -17.285   2.398  1.00  0.00     0.001 A 
HETATM   14  C   UNL     1      41.110 -16.419   2.880  1.00  0.00     0.010 A 
ENDROOT
BRANCH   1  15
HETATM   15  C   UNL     1      41.409 -11.724   6.024  1.00  0.00     0.277 C 
BRANCH  15  16
HETATM   16  C   UNL     1      42.791 -11.633   6.551  1.00  0.00     0.016 A 
HETATM   17  C   UNL     1      43.702 -12.704   6.814  1.00  0.00     0.096 A 
HETATM   18  N   UNL     1      44.881 -12.228   7.234  1.00  0.00    -0.172 NA
HETATM   19  N   UNL     1      44.705 -10.907   7.348  1.00  0.00    -0.284 N 
HETATM   20  C   UNL     1      45.767 -10.086   7.882  1.00  0.00     0.179 C 
HETATM   21  C   UNL     1      43.480 -10.491   6.915  1.00  0.00     0.123 A 
BRANCH  17  22
HETATM   22  C   UNL     1      43.501 -14.142   6.651  1.00  0.00    -0.005 A 
HETATM   23  C   UNL     1      42.791 -14.884   7.605  1.00  0.00     0.014 A 
HETATM   24  C   UNL     1      42.595 -16.255   7.430  1.00  0.00     0.001 A 
HETATM   25  C   UNL     1      43.122 -16.898   6.311  1.00  0.00     0.000 A 
HETATM   26  C   UNL     1      43.853 -16.174   5.370  1.00  0.00     0.001 A 
HETATM   27  C   UNL     1      44.043 -14.801   5.541  1.00  0.00     0.014 A 
ENDBRANCH  17  22
ENDBRANCH  15  16
ENDBRANCH   1  15
BRANCH   4  28
HETATM   28  C   UNL     1      38.913 -12.363   1.930  1.00  0.00     0.178 C 
BRANCH  28  29
HETATM   29  O   UNL     1      38.906 -12.798   0.577  1.00  0.00    -0.400 OA
HETATM   30  H   UNL     1      38.753 -13.765   0.582  1.00  0.00     0.209 HD
ENDBRANCH  28  29
ENDBRANCH   4  28
TORSDOF 5
ENDMDL
MODEL 3
REMARK VINA RESULT:      -7.7      2.704      5.071
REMARK  5 active torsions:
REMARK  status: ('A' for Active; 'I' for Inactive)
REMARK    1  A    between atoms: C_4  and  C_5 
REMARK    2  A    between atoms: C_11  and  C_12 
REMARK    3  A    between atoms: C_12  and  N_13 
REMARK    4  A    between atoms: C_16  and  C_17 
REMARK    5  A    between atoms: C_17  and  O_18 
ROOT
HETATM    1  N   UNL     1      41.611 -13.074   6.332  1.00  0.00    -0.066 N 
HETATM    2  H   UNL     1      41.443 -12.549   7.204  1.00  0.00     0.280 HD
HETATM    3  C   UNL     1      41.237 -12.206   5.168  1.00  0.00     0.250 C 
HETATM    4  C   UNL     1      42.376 -11.183   5.048  1.00  0.00     0.036 C 
HETATM    5  C   UNL     1      43.594 -11.860   5.747  1.00  0.00     0.061 C 
HETATM    6  C   UNL     1      43.100 -13.247   6.186  1.00  0.00     0.245 C 
HETATM    7  C   UNL     1      41.971  -9.877   5.751  1.00  0.00     0.189 C 
HETATM    8  O   UNL     1      41.922 -10.064   7.170  1.00  0.00    -0.350 OA
HETATM    9  C   UNL     1      43.204 -10.232   7.628  1.00  0.00     0.075 A 
HETATM   10  C   UNL     1      44.085 -11.073   6.940  1.00  0.00    -0.018 A 
HETATM   11  C   UNL     1      43.597  -9.546   8.770  1.00  0.00     0.037 A 
HETATM   12  C   UNL     1      44.915  -9.657   9.211  1.00  0.00     0.003 A 
HETATM   13  C   UNL     1      45.818 -10.467   8.520  1.00  0.00     0.001 A 
HETATM   14  C   UNL     1      45.405 -11.183   7.394  1.00  0.00     0.010 A 
ENDROOT
BRANCH   1  15
HETATM   15  C   UNL     1      40.825 -14.351   6.394  1.00  0.00     0.277 C 
BRANCH  15  16
HETATM   16  C   UNL     1      41.622 -15.555   6.061  1.00  0.00     0.016 A 
HETATM   17  C   UNL     1      41.961 -16.052   4.764  1.00  0.00     0.096 A 
HETATM   18  N   UNL     1      42.741 -17.136   4.862  1.00  0.00    -0.172 NA
HETATM   19  N   UNL     1      42.812 -17.399   6.173  1.00  0.00    -0.284 N 
HETATM   20  C   UNL     1      43.506 -18.581   6.630  1.00  0.00     0.179 C 
HETATM   21  C   UNL     1      42.189 -16.459   6.941  1.00  0.00     0.123 A 
BRANCH  17  22
HETATM   22  C   UNL     1      41.599 -15.519   3.453  1.00  0.00    -0.005 A 
HETATM   23  C   UNL     1      40.397 -15.886   2.832  1.00  0.00     0.014 A 
HETATM   24  C   UNL     1      40.057 -15.358   1.584  1.00  0.00     0.001 A 
HETATM   25  C   UNL     1      40.924 -14.477   0.941  1.00  0.00     0.000 A 
HETATM   26  C   UNL     1      42.134 -14.127   1.537  1.00  0.00     0.001 A 
HETATM   27  C   UNL     1      42.471 -14.648   2.788  1.00  0.00     0.014 A 
ENDBRANCH  17  22
ENDBRANCH  15  16
ENDBRANCH   1  15
BRANCH   4  28
HETATM   28  C   UNL     1      42.667 -10.879   3.574  1.00  0.00     0.178 C 
BRANCH  28  29
HETATM   29  O   UNL     1      43.982 -11.317   3.260  1.00  0.00    -0.400 OA
HETATM   30  H   UNL     1      43.963 -12.296   3.226  1.00  0.00     0.209 HD
ENDBRANCH  28  29
ENDBRANCH   4  28
TORSDOF 5
ENDMDL
MODEL 4
REMARK VINA RESULT:      -7.7      2.648      6.269
REMARK  5 active torsions:
REMARK  status: ('A' for Active; 'I' for Inactive)
REMARK    1  A    between atoms: C_4  and  C_5 
REMARK    2  A    between atoms: C_11  and  C_12 
REMARK    3  A    between atoms: C_12  and  N_13 
REMARK    4  A    between atoms: C_16  and  C_17 
REMARK    5  A    between atoms: C_17  and  O_18 
ROOT
HETATM    1  N   UNL     1      42.313 -14.381   1.424  1.00  0.00    -0.066 N 
HETATM    2  H   UNL     1      42.636 -13.971   0.534  1.00  0.00     0.280 HD
HETATM    3  C   UNL     1      41.703 -13.298   2.261  1.00  0.00     0.250 C 
HETATM    4  C   UNL     1      40.335 -13.018   1.622  1.00  0.00     0.036 C 
HETATM    5  C   UNL     1      39.988 -14.321   0.838  1.00  0.00     0.061 C 
HETATM    6  C   UNL     1      41.152 -15.288   1.110  1.00  0.00     0.245 C 
HETATM    7  C   UNL     1      40.442 -11.804   0.686  1.00  0.00     0.189 C 
HETATM    8  O   UNL     1      41.223 -12.127  -0.471  1.00  0.00    -0.350 OA
HETATM    9  C   UNL     1      40.504 -13.003  -1.245  1.00  0.00     0.075 A 
HETATM   10  C   UNL     1      39.839 -14.078  -0.646  1.00  0.00    -0.018 A 
HETATM   11  C   UNL     1      40.448 -12.787  -2.616  1.00  0.00     0.037 A 
HETATM   12  C   UNL     1      39.671 -13.632  -3.406  1.00  0.00     0.003 A 
HETATM   13  C   UNL     1      38.974 -14.692  -2.824  1.00  0.00     0.001 A 
HETATM   14  C   UNL     1      39.065 -14.924  -1.450  1.00  0.00     0.010 A 
ENDROOT
BRANCH   1  15
HETATM   15  C   UNL     1      43.482 -15.051   2.084  1.00  0.00     0.277 C 
BRANCH  15  16
HETATM   16  C   UNL     1      43.301 -15.264   3.539  1.00  0.00     0.016 A 
HETATM   17  C   UNL     1      43.287 -16.505   4.250  1.00  0.00     0.096 A 
HETATM   18  N   UNL     1      43.152 -16.295   5.565  1.00  0.00    -0.172 NA
HETATM   19  N   UNL     1      42.971 -14.975   5.692  1.00  0.00    -0.284 N 
HETATM   20  C   UNL     1      42.690 -14.412   6.993  1.00  0.00     0.179 C 
HETATM   21  C   UNL     1      43.088 -14.303   4.511  1.00  0.00     0.123 A 
BRANCH  17  22
HETATM   22  C   UNL     1      43.429 -17.863   3.729  1.00  0.00    -0.005 A 
HETATM   23  C   UNL     1      42.970 -18.195   2.447  1.00  0.00     0.014 A 
HETATM   24  C   UNL     1      43.124 -19.494   1.957  1.00  0.00     0.001 A 
HETATM   25  C   UNL     1      43.718 -20.473   2.751  1.00  0.00     0.000 A 
HETATM   26  C   UNL     1      44.152 -20.160   4.038  1.00  0.00     0.001 A 
HETATM   27  C   UNL     1      44.006 -18.860   4.526  1.00  0.00     0.014 A 
ENDBRANCH  17  22
ENDBRANCH  15  16
ENDBRANCH   1  15
BRANCH   4  28
HETATM   28  C   UNL     1      39.292 -12.715   2.703  1.00  0.00     0.178 C 
BRANCH  28  29
HETATM   29  O   UNL     1      38.030 -12.500   2.087  1.00  0.00    -0.400 OA
HETATM   30  H   UNL     1      37.870 -11.534   2.080  1.00  0.00     0.209 HD
ENDBRANCH  28  29
ENDBRANCH   4  28
TORSDOF 5
ENDMDL
MODEL 5
REMARK VINA RESULT:      -7.7      2.179      3.499
REMARK  5 active torsions:
REMARK  status: ('A' for Active; 'I' for Inactive)
REMARK    1  A    between atoms: C_4  and  C_5 
REMARK    2  A    between atoms: C_11  and  C_12 
REMARK    3  A    between atoms: C_12  and  N_13 
REMARK    4  A    between atoms: C_16  and  C_17 
REMARK    5  A    between atoms: C_17  and  O_18 
ROOT
HETATM    1  N   UNL     1      41.528 -13.255   5.040  1.00  0.00    -0.066 N 
HETATM    2  H   UNL     1      41.570 -13.124   6.063  1.00  0.00     0.280 HD
HETATM    3  C   UNL     1      40.810 -12.086   4.435  1.00  0.00     0.250 C 
HETATM    4  C   UNL     1      41.816 -10.927   4.482  1.00  0.00     0.036 C 
HETATM    5  C   UNL     1      43.213 -11.617   4.560  1.00  0.00     0.061 C 
HETATM    6  C   UNL     1      42.931 -13.126   4.508  1.00  0.00     0.245 C 
HETATM    7  C   UNL     1      41.542 -10.056   5.718  1.00  0.00     0.189 C 
HETATM    8  O   UNL     1      41.883 -10.762   6.917  1.00  0.00    -0.350 OA
HETATM    9  C   UNL     1      43.248 -10.886   6.970  1.00  0.00     0.075 A 
HETATM   10  C   UNL     1      43.959 -11.262   5.826  1.00  0.00    -0.018 A 
HETATM   11  C   UNL     1      43.893 -10.621   8.172  1.00  0.00     0.037 A 
HETATM   12  C   UNL     1      45.285 -10.680   8.224  1.00  0.00     0.003 A 
HETATM   13  C   UNL     1      46.015 -11.024   7.085  1.00  0.00     0.001 A 
HETATM   14  C   UNL     1      45.356 -11.326   5.891  1.00  0.00     0.010 A 
ENDROOT
BRANCH   1  15
HETATM   15  C   UNL     1      40.860 -14.569   4.762  1.00  0.00     0.277 C 
BRANCH  15  16
HETATM   16  C   UNL     1      40.817 -14.920   3.323  1.00  0.00     0.016 A 
HETATM   17  C   UNL     1      41.555 -15.941   2.645  1.00  0.00     0.096 A 
HETATM   18  N   UNL     1      41.210 -15.995   1.353  1.00  0.00    -0.172 NA
HETATM   19  N   UNL     1      40.364 -14.974   1.173  1.00  0.00    -0.284 N 
HETATM   20  C   UNL     1      39.868 -14.679  -0.151  1.00  0.00     0.179 C 
HETATM   21  C   UNL     1      40.063 -14.318   2.331  1.00  0.00     0.123 A 
BRANCH  17  22
HETATM   22  C   UNL     1      42.541 -16.873   3.187  1.00  0.00    -0.005 A 
HETATM   23  C   UNL     1      43.128 -16.654   4.441  1.00  0.00     0.014 A 
HETATM   24  C   UNL     1      44.059 -17.561   4.952  1.00  0.00     0.001 A 
HETATM   25  C   UNL     1      44.425 -18.680   4.206  1.00  0.00     0.000 A 
HETATM   26  C   UNL     1      43.867 -18.892   2.946  1.00  0.00     0.001 A 
HETATM   27  C   UNL     1      42.930 -17.991   2.438  1.00  0.00     0.014 A 
ENDBRANCH  17  22
ENDBRANCH  15  16
ENDBRANCH   1  15
BRANCH   4  28
HETATM   28  C   UNL     1      41.686 -10.056   3.227  1.00  0.00     0.178 C 
BRANCH  28  29
HETATM   29  O   UNL     1      42.533 -10.575   2.211  1.00  0.00    -0.400 OA
HETATM   30  H   UNL     1      43.015  -9.819   1.818  1.00  0.00     0.209 HD
ENDBRANCH  28  29
ENDBRANCH   4  28
TORSDOF 5
ENDMDL
MODEL 6
REMARK VINA RESULT:      -7.3      2.873      6.516
REMARK  5 active torsions:
REMARK  status: ('A' for Active; 'I' for Inactive)
REMARK    1  A    between atoms: C_4  and  C_5 
REMARK    2  A    between atoms: C_11  and  C_12 
REMARK    3  A    between atoms: C_12  and  N_13 
REMARK    4  A    between atoms: C_16  and  C_17 
REMARK    5  A    between atoms: C_17  and  O_18 
ROOT
HETATM    1  N   UNL     1      39.869 -14.142   0.657  1.00  0.00    -0.066 N 
HETATM    2  H   UNL     1      39.093 -13.544   0.981  1.00  0.00     0.280 HD
HETATM    3  C   UNL     1      39.545 -14.652  -0.715  1.00  0.00     0.250 C 
HETATM    4  C   UNL     1      39.765 -13.454  -1.651  1.00  0.00     0.036 C 
HETATM    5  C   UNL     1      40.743 -12.518  -0.877  1.00  0.00     0.061 C 
HETATM    6  C   UNL     1      41.064 -13.251   0.435  1.00  0.00     0.245 C 
HETATM    7  C   UNL     1      38.420 -12.765  -1.930  1.00  0.00     0.189 C 
HETATM    8  O   UNL     1      37.938 -12.106  -0.753  1.00  0.00    -0.350 OA
HETATM    9  C   UNL     1      38.748 -11.028  -0.501  1.00  0.00     0.075 A 
HETATM   10  C   UNL     1      40.138 -11.163  -0.591  1.00  0.00    -0.018 A 
HETATM   11  C   UNL     1      38.157  -9.815  -0.171  1.00  0.00     0.037 A 
HETATM   12  C   UNL     1      38.964  -8.695   0.025  1.00  0.00     0.003 A 
HETATM   13  C   UNL     1      40.351  -8.803  -0.090  1.00  0.00     0.001 A 
HETATM   14  C   UNL     1      40.940 -10.035  -0.385  1.00  0.00     0.010 A 
ENDROOT
BRANCH   1  15
HETATM   15  C   UNL     1      40.070 -15.236   1.663  1.00  0.00     0.277 C 
BRANCH  15  16
HETATM   16  C   UNL     1      40.489 -14.746   2.997  1.00  0.00     0.016 A 
HETATM   17  C   UNL     1      41.495 -15.291   3.857  1.00  0.00     0.096 A 
HETATM   18  N   UNL     1      41.629 -14.544   4.960  1.00  0.00    -0.172 NA
HETATM   19  N   UNL     1      40.670 -13.615   4.872  1.00  0.00    -0.284 N 
HETATM   20  C   UNL     1      40.466 -12.691   5.964  1.00  0.00     0.179 C 
HETATM   21  C   UNL     1      39.980 -13.667   3.697  1.00  0.00     0.123 A 
BRANCH  17  22
HETATM   22  C   UNL     1      42.341 -16.464   3.651  1.00  0.00    -0.005 A 
HETATM   23  C   UNL     1      42.265 -17.210   2.467  1.00  0.00     0.014 A 
HETATM   24  C   UNL     1      43.089 -18.322   2.278  1.00  0.00     0.001 A 
HETATM   25  C   UNL     1      43.980 -18.707   3.278  1.00  0.00     0.000 A 
HETATM   26  C   UNL     1      44.043 -17.988   4.471  1.00  0.00     0.001 A 
HETATM   27  C   UNL     1      43.226 -16.872   4.657  1.00  0.00     0.014 A 
ENDBRANCH  17  22
ENDBRANCH  15  16
ENDBRANCH   1  15
BRANCH   4  28
HETATM   28  C   UNL     1      40.365 -13.921  -2.983  1.00  0.00     0.178 C 
BRANCH  28  29
HETATM   29  O   UNL     1      41.488 -13.110  -3.297  1.00  0.00    -0.400 OA
HETATM   30  H   UNL     1      42.039 -13.609  -3.934  1.00  0.00     0.209 HD
ENDBRANCH  28  29
ENDBRANCH   4  28
TORSDOF 5
ENDMDL
MODEL 7
REMARK VINA RESULT:      -7.2      1.354      1.859
REMARK  5 active torsions:
REMARK  status: ('A' for Active; 'I' for Inactive)
REMARK    1  A    between atoms: C_4  and  C_5 
REMARK    2  A    between atoms: C_11  and  C_12 
REMARK    3  A    between atoms: C_12  and  N_13 
REMARK    4  A    between atoms: C_16  and  C_17 
REMARK    5  A    between atoms: C_17  and  O_18 
ROOT
HETATM    1  N   UNL     1      41.135 -11.942   2.337  1.00  0.00    -0.066 N 
HETATM    2  H   UNL     1      41.284 -12.926   2.614  1.00  0.00     0.280 HD
HETATM    3  C   UNL     1      39.783 -11.507   2.817  1.00  0.00     0.250 C 
HETATM    4  C   UNL     1      39.939 -11.304   4.332  1.00  0.00     0.036 C 
HETATM    5  C   UNL     1      41.466 -11.064   4.544  1.00  0.00     0.061 C 
HETATM    6  C   UNL     1      42.089 -11.097   3.140  1.00  0.00     0.245 C 
HETATM    7  C   UNL     1      39.453 -12.560   5.072  1.00  0.00     0.189 C 
HETATM    8  O   UNL     1      40.349 -13.655   4.850  1.00  0.00    -0.350 OA
HETATM    9  C   UNL     1      41.524 -13.390   5.508  1.00  0.00     0.075 A 
HETATM   10  C   UNL     1      42.096 -12.117   5.427  1.00  0.00    -0.018 A 
HETATM   11  C   UNL     1      42.112 -14.405   6.252  1.00  0.00     0.037 A 
HETATM   12  C   UNL     1      43.271 -14.133   6.976  1.00  0.00     0.003 A 
HETATM   13  C   UNL     1      43.841 -12.859   6.933  1.00  0.00     0.001 A 
HETATM   14  C   UNL     1      43.265 -11.855   6.153  1.00  0.00     0.010 A 
ENDROOT
BRANCH   1  15
HETATM   15  C   UNL     1      41.295 -11.844   0.849  1.00  0.00     0.277 C 
BRANCH  15  16
HETATM   16  C   UNL     1      40.545 -12.880   0.101  1.00  0.00     0.016 A 
HETATM   17  C   UNL     1      40.535 -14.292   0.328  1.00  0.00     0.096 A 
HETATM   18  N   UNL     1      39.694 -14.901  -0.517  1.00  0.00    -0.172 NA
HETATM   19  N   UNL     1      39.260 -13.935  -1.336  1.00  0.00    -0.284 N 
HETATM   20  C   UNL     1      38.400 -14.270  -2.447  1.00  0.00     0.179 C 
HETATM   21  C   UNL     1      39.711 -12.695  -0.987  1.00  0.00     0.123 A 
BRANCH  17  22
HETATM   22  C   UNL     1      41.266 -15.066   1.330  1.00  0.00    -0.005 A 
HETATM   23  C   UNL     1      40.586 -15.819   2.297  1.00  0.00     0.014 A 
HETATM   24  C   UNL     1      41.298 -16.564   3.239  1.00  0.00     0.001 A 
HETATM   25  C   UNL     1      42.691 -16.546   3.235  1.00  0.00     0.000 A 
HETATM   26  C   UNL     1      43.377 -15.778   2.295  1.00  0.00     0.001 A 
HETATM   27  C   UNL     1      42.667 -15.039   1.347  1.00  0.00     0.014 A 
ENDBRANCH  17  22
ENDBRANCH  15  16
ENDBRANCH   1  15
BRANCH   4  28
HETATM   28  C   UNL     1      39.109 -10.103   4.798  1.00  0.00     0.178 C 
BRANCH  28  29
HETATM   29  O   UNL     1      38.053  -9.881   3.873  1.00  0.00    -0.400 OA
HETATM   30  H   UNL     1      38.282  -9.082   3.355  1.00  0.00     0.209 HD
ENDBRANCH  28  29
ENDBRANCH   4  28
TORSDOF 5
ENDMDL
MODEL 8
REMARK VINA RESULT:      -7.2     16.241     18.313
REMARK  5 active torsions:
REMARK  status: ('A' for Active; 'I' for Inactive)
REMARK    1  A    between atoms: C_4  and  C_5 
REMARK    2  A    between atoms: C_11  and  C_12 
REMARK    3  A    between atoms: C_12  and  N_13 
REMARK    4  A    between atoms: C_16  and  C_17 
REMARK    5  A    between atoms: C_17  and  O_18 
ROOT
HETATM    1  N   UNL     1      47.005 -29.118  -1.103  1.00  0.00    -0.066 N 
HETATM    2  H   UNL     1      46.884 -30.050  -0.678  1.00  0.00     0.280 HD
HETATM    3  C   UNL     1      46.613 -29.194  -2.548  1.00  0.00     0.250 C 
HETATM    4  C   UNL     1      45.079 -29.254  -2.547  1.00  0.00     0.036 C 
HETATM    5  C   UNL     1      44.658 -28.630  -1.180  1.00  0.00     0.061 C 
HETATM    6  C   UNL     1      45.968 -28.207  -0.499  1.00  0.00     0.245 C 
HETATM    7  C   UNL     1      44.621 -30.716  -2.669  1.00  0.00     0.189 C 
HETATM    8  O   UNL     1      44.923 -31.441  -1.471  1.00  0.00    -0.350 OA
HETATM    9  C   UNL     1      44.103 -30.982  -0.471  1.00  0.00     0.075 A 
HETATM   10  C   UNL     1      43.902 -29.607  -0.310  1.00  0.00    -0.018 A 
HETATM   11  C   UNL     1      43.480 -31.909   0.355  1.00  0.00     0.037 A 
HETATM   12  C   UNL     1      42.594 -31.461   1.334  1.00  0.00     0.003 A 
HETATM   13  C   UNL     1      42.356 -30.095   1.490  1.00  0.00     0.001 A 
HETATM   14  C   UNL     1      43.015 -29.167   0.680  1.00  0.00     0.010 A 
ENDROOT
BRANCH   1  15
HETATM   15  C   UNL     1      48.427 -28.688  -0.897  1.00  0.00     0.277 C 
BRANCH  15  16
HETATM   16  C   UNL     1      49.333 -29.797  -0.514  1.00  0.00     0.016 A 
HETATM   17  C   UNL     1      49.303 -30.582   0.681  1.00  0.00     0.096 A 
HETATM   18  N   UNL     1      50.249 -31.529   0.648  1.00  0.00    -0.172 NA
HETATM   19  N   UNL     1      50.939 -31.296  -0.475  1.00  0.00    -0.284 N 
HETATM   20  C   UNL     1      52.110 -32.087  -0.773  1.00  0.00     0.179 C 
HETATM   21  C   UNL     1      50.409 -30.291  -1.230  1.00  0.00     0.123 A 
BRANCH  17  22
HETATM   22  C   UNL     1      48.397 -30.481   1.823  1.00  0.00    -0.005 A 
HETATM   23  C   UNL     1      47.088 -30.974   1.751  1.00  0.00     0.014 A 
HETATM   24  C   UNL     1      46.237 -30.883   2.855  1.00  0.00     0.001 A 
HETATM   25  C   UNL     1      46.682 -30.280   4.031  1.00  0.00     0.000 A 
HETATM   26  C   UNL     1      47.974 -29.762   4.103  1.00  0.00     0.001 A 
HETATM   27  C   UNL     1      48.828 -29.860   3.003  1.00  0.00     0.014 A 
ENDBRANCH  17  22
ENDBRANCH  15  16
ENDBRANCH   1  15
BRANCH   4  28
HETATM   28  C   UNL     1      44.512 -28.460  -3.729  1.00  0.00     0.178 C 
BRANCH  28  29
HETATM   29  O   UNL     1      45.408 -27.406  -4.054  1.00  0.00    -0.400 OA
HETATM   30  H   UNL     1      45.659 -26.967  -3.215  1.00  0.00     0.209 HD
ENDBRANCH  28  29
ENDBRANCH   4  28
TORSDOF 5
ENDMDL
MODEL 9
REMARK VINA RESULT:      -7.1     15.974     18.420
REMARK  5 active torsions:
REMARK  status: ('A' for Active; 'I' for Inactive)
REMARK    1  A    between atoms: C_4  and  C_5 
REMARK    2  A    between atoms: C_11  and  C_12 
REMARK    3  A    between atoms: C_12  and  N_13 
REMARK    4  A    between atoms: C_16  and  C_17 
REMARK    5  A    between atoms: C_17  and  O_18 
ROOT
HETATM    1  N   UNL     1      46.923 -31.409  -0.070  1.00  0.00    -0.066 N 
HETATM    2  H   UNL     1      47.627 -32.103   0.225  1.00  0.00     0.280 HD
HETATM    3  C   UNL     1      46.897 -30.293   0.931  1.00  0.00     0.250 C 
HETATM    4  C   UNL     1      48.165 -29.473   0.651  1.00  0.00     0.036 C 
HETATM    5  C   UNL     1      48.533 -29.801  -0.828  1.00  0.00     0.061 C 
HETATM    6  C   UNL     1      47.433 -30.752  -1.326  1.00  0.00     0.245 C 
HETATM    7  C   UNL     1      49.278 -29.899   1.621  1.00  0.00     0.189 C 
HETATM    8  O   UNL     1      49.736 -31.221   1.314  1.00  0.00    -0.350 OA
HETATM    9  C   UNL     1      50.416 -31.176   0.124  1.00  0.00     0.075 A 
HETATM   10  C   UNL     1      49.890 -30.454  -0.953  1.00  0.00    -0.018 A 
HETATM   11  C   UNL     1      51.628 -31.848   0.025  1.00  0.00     0.037 A 
HETATM   12  C   UNL     1      52.361 -31.758  -1.157  1.00  0.00     0.003 A 
HETATM   13  C   UNL     1      51.868 -31.017  -2.233  1.00  0.00     0.001 A 
HETATM   14  C   UNL     1      50.631 -30.375  -2.138  1.00  0.00     0.010 A 
ENDROOT
BRANCH   1  15
HETATM   15  C   UNL     1      45.603 -32.110  -0.209  1.00  0.00     0.277 C 
BRANCH  15  16
HETATM   16  C   UNL     1      44.451 -31.303   0.257  1.00  0.00     0.016 A 
HETATM   17  C   UNL     1      43.874 -30.153  -0.368  1.00  0.00     0.096 A 
HETATM   18  N   UNL     1      42.809 -29.725   0.321  1.00  0.00    -0.172 NA
HETATM   19  N   UNL     1      42.764 -30.499   1.412  1.00  0.00    -0.284 N 
HETATM   20  C   UNL     1      41.778 -30.238   2.436  1.00  0.00     0.179 C 
HETATM   21  C   UNL     1      43.704 -31.488   1.407  1.00  0.00     0.123 A 
BRANCH  17  22
HETATM   22  C   UNL     1      44.279 -29.477  -1.598  1.00  0.00    -0.005 A 
HETATM   23  C   UNL     1      44.960 -28.252  -1.558  1.00  0.00     0.014 A 
HETATM   24  C   UNL     1      45.352 -27.623  -2.741  1.00  0.00     0.001 A 
HETATM   25  C   UNL     1      45.051 -28.203  -3.972  1.00  0.00     0.000 A 
HETATM   26  C   UNL     1      44.350 -29.407  -4.023  1.00  0.00     0.001 A 
HETATM   27  C   UNL     1      43.964 -30.041  -2.841  1.00  0.00     0.014 A 
ENDBRANCH  17  22
ENDBRANCH  15  16
ENDBRANCH   1  15
BRANCH   4  28
HETATM   28  C   UNL     1      47.888 -27.978   0.846  1.00  0.00     0.178 C 
BRANCH  28  29
HETATM   29  O   UNL     1      48.026 -27.654   2.222  1.00  0.00    -0.400 OA
HETATM   30  H   UNL     1      48.217 -28.487   2.700  1.00  0.00     0.209 HD
ENDBRANCH  28  29
ENDBRANCH   4  28
TORSDOF 5
ENDMDL
MODEL 10
REMARK VINA RESULT:      -7.1      2.182      4.367
REMARK  5 active torsions:
REMARK  status: ('A' for Active; 'I' for Inactive)
REMARK    1  A    between atoms: C_4  and  C_5 
REMARK    2  A    between atoms: C_11  and  C_12 
REMARK    3  A    between atoms: C_12  and  N_13 
REMARK    4  A    between atoms: C_16  and  C_17 
REMARK    5  A    between atoms: C_17  and  O_18 
ROOT
HETATM    1  N   UNL     1      40.718 -12.065   2.220  1.00  0.00    -0.066 N 
HETATM    2  H   UNL     1      40.166 -12.912   2.425  1.00  0.00     0.280 HD
HETATM    3  C   UNL     1      41.227 -11.497   3.510  1.00  0.00     0.250 C 
HETATM    4  C   UNL     1      42.373 -12.427   3.936  1.00  0.00     0.036 C 
HETATM    5  C   UNL     1      42.840 -13.112   2.615  1.00  0.00     0.061 C 
HETATM    6  C   UNL     1      41.969 -12.503   1.504  1.00  0.00     0.245 C 
HETATM    7  C   UNL     1      41.852 -13.453   4.954  1.00  0.00     0.189 C 
HETATM    8  O   UNL     1      40.965 -14.385   4.323  1.00  0.00    -0.350 OA
HETATM    9  C   UNL     1      41.703 -15.183   3.487  1.00  0.00     0.075 A 
HETATM   10  C   UNL     1      42.672 -14.614   2.654  1.00  0.00    -0.018 A 
HETATM   11  C   UNL     1      41.470 -16.553   3.499  1.00  0.00     0.037 A 
HETATM   12  C   UNL     1      42.256 -17.383   2.702  1.00  0.00     0.003 A 
HETATM   13  C   UNL     1      43.249 -16.837   1.887  1.00  0.00     0.001 A 
HETATM   14  C   UNL     1      43.451 -15.456   1.852  1.00  0.00     0.010 A 
ENDROOT
BRANCH   1  15
HETATM   15  C   UNL     1      39.849 -11.111   1.455  1.00  0.00     0.277 C 
BRANCH  15  16
HETATM   16  C   UNL     1      40.523 -10.503   0.283  1.00  0.00     0.016 A 
HETATM   17  C   UNL     1      40.443 -10.912  -1.085  1.00  0.00     0.096 A 
HETATM   18  N   UNL     1      41.148 -10.086  -1.867  1.00  0.00    -0.172 NA
HETATM   19  N   UNL     1      41.755  -9.240  -1.026  1.00  0.00    -0.284 N 
HETATM   20  C   UNL     1      42.687  -8.264  -1.539  1.00  0.00     0.179 C 
HETATM   21  C   UNL     1      41.385  -9.422   0.275  1.00  0.00     0.123 A 
BRANCH  17  22
HETATM   22  C   UNL     1      39.702 -12.029  -1.668  1.00  0.00    -0.005 A 
HETATM   23  C   UNL     1      38.304 -11.997  -1.762  1.00  0.00     0.014 A 
HETATM   24  C   UNL     1      37.610 -13.065  -2.333  1.00  0.00     0.001 A 
HETATM   25  C   UNL     1      38.306 -14.181  -2.795  1.00  0.00     0.000 A 
HETATM   26  C   UNL     1      39.694 -14.235  -2.681  1.00  0.00     0.001 A 
HETATM   27  C   UNL     1      40.389 -13.164  -2.117  1.00  0.00     0.014 A 
ENDBRANCH  17  22
ENDBRANCH  15  16
ENDBRANCH   1  15
BRANCH   4  28
HETATM   28  C   UNL     1      43.503 -11.620   4.584  1.00  0.00     0.178 C 
BRANCH  28  29
HETATM   29  O   UNL     1      44.516 -11.379   3.617  1.00  0.00    -0.400 OA
HETATM   30  H   UNL     1      45.370 -11.645   4.017  1.00  0.00     0.209 HD
ENDBRANCH  28  29
ENDBRANCH   4  28
TORSDOF 5
ENDMDL
