MODEL 1
REMARK VINA RESULT:      -9.0      0.000      0.000
REMARK  5 active torsions:
REMARK  status: ('A' for Active; 'I' for Inactive)
REMARK    1  A    between atoms: C_3  and  N_4 
REMARK       I    between atoms: N_4  and  C_5 
REMARK    2  A    between atoms: C_9  and  N_10 
REMARK       I    between atoms: N_10  and  C_11 
REMARK    3  A    between atoms: C_11  and  C_12 
REMARK    4  A    between atoms: C_17  and  C_18 
REMARK    5  A    between atoms: C_24  and  C_25 
ROOT
HETATM    1  C   UNL     1      40.703 -14.313   0.570  1.00  0.00     0.148 A 
HETATM    2  N   UNL     1      39.997 -14.444  -0.577  1.00  0.00    -0.165 NA
HETATM    3  N   UNL     1      40.093 -13.226  -1.143  1.00  0.00    -0.240 N 
HETATM    4  C   UNL     1      40.850 -12.339  -0.429  1.00  0.00     0.123 A 
HETATM    5  N   UNL     1      41.085 -11.088  -0.879  1.00  0.00    -0.364 N 
HETATM    6  C   UNL     1      40.356 -10.553  -2.031  1.00  0.00     0.143 C 
HETATM    7  C   UNL     1      40.137 -11.686  -3.053  1.00  0.00     0.068 C 
HETATM    8  C   UNL     1      39.457 -12.910  -2.409  1.00  0.00     0.221 C 
HETATM    9  C   UNL     1      41.258 -13.009   0.692  1.00  0.00     0.089 A 
HETATM   10  H   UNL     1      41.450 -10.379  -0.243  1.00  0.00     0.162 HD
ENDROOT
BRANCH   1  11
HETATM   11  C   UNL     1      40.842 -15.414   1.541  1.00  0.00     0.276 C 
HETATM   12  N   UNL     1      42.165 -15.728   1.786  1.00  0.00    -0.322 N 
HETATM   13  H   UNL     1      42.822 -15.151   1.265  1.00  0.00     0.169 HD
HETATM   14  O   UNL     1      39.858 -15.960   2.027  1.00  0.00    -0.266 OA
BRANCH  12  15
HETATM   15  C   UNL     1      42.680 -16.753   2.600  1.00  0.00     0.037 A 
HETATM   16  C   UNL     1      42.809 -16.655   3.987  1.00  0.00     0.059 A 
HETATM   17  C   UNL     1      43.292 -17.724   4.771  1.00  0.00     0.042 A 
HETATM   18  C   UNL     1      43.731 -18.893   4.131  1.00  0.00    -0.035 A 
HETATM   19  C   UNL     1      44.395 -20.053   4.819  1.00  0.00     0.050 C 
HETATM   20  C   UNL     1      43.584 -18.990   2.733  1.00  0.00     0.011 A 
HETATM   21  C   UNL     1      43.066 -17.936   1.978  1.00  0.00     0.030 A 
BRANCH  17  22
HETATM   22  N   UNL     1      43.321 -17.463   6.163  1.00  0.00    -0.327 N 
HETATM   23  C   UNL     1      44.237 -16.711   6.873  1.00  0.00     0.218 C 
HETATM   24  C   UNL     1      43.885 -16.631   8.338  1.00  0.00     0.117 C 
HETATM   25  O   UNL     1      45.241 -16.161   6.442  1.00  0.00    -0.274 OA
HETATM   26  H   UNL     1      42.766 -18.098   6.725  1.00  0.00     0.169 HD
ENDBRANCH  17  22
ENDBRANCH  12  15
ENDBRANCH   1  11
BRANCH   8  27
HETATM   27  C   UNL     1      37.974 -12.694  -2.198  1.00  0.00     0.409 C 
HETATM   28  F   UNL     1      37.677 -12.339  -0.929  1.00  0.00    -0.169 F 
HETATM   29  F   UNL     1      37.452 -11.762  -3.021  1.00  0.00    -0.169 F 
HETATM   30  F   UNL     1      37.301 -13.850  -2.438  1.00  0.00    -0.169 F 
ENDBRANCH   8  27
BRANCH   6  31
HETATM   31  C   UNL     1      41.064  -9.407  -2.683  1.00  0.00     0.075 A 
HETATM   32  O   UNL     1      41.918  -8.691  -1.895  1.00  0.00    -0.325 OA
HETATM   33  C   UNL     1      42.463  -7.724  -2.678  1.00  0.00     0.142 A 
HETATM   34  C   UNL     1      41.966  -7.802  -3.957  1.00  0.00     0.027 A 
HETATM   35  C   UNL     1      41.059  -8.888  -3.962  1.00  0.00     0.037 A 
ENDBRANCH   6  31
TORSDOF 5
ENDMDL
MODEL 2
REMARK VINA RESULT:      -8.7      6.415      9.944
REMARK  5 active torsions:
REMARK  status: ('A' for Active; 'I' for Inactive)
REMARK    1  A    between atoms: C_3  and  N_4 
REMARK       I    between atoms: N_4  and  C_5 
REMARK    2  A    between atoms: C_9  and  N_10 
REMARK       I    between atoms: N_10  and  C_11 
REMARK    3  A    between atoms: C_11  and  C_12 
REMARK    4  A    between atoms: C_17  and  C_18 
REMARK    5  A    between atoms: C_24  and  C_25 
ROOT
HETATM    1  C   UNL     1      42.224 -12.440   5.874  1.00  0.00     0.148 A 
HETATM    2  N   UNL     1      41.779 -12.834   4.658  1.00  0.00    -0.165 NA
HETATM    3  N   UNL     1      42.307 -14.065   4.517  1.00  0.00    -0.240 N 
HETATM    4  C   UNL     1      43.036 -14.484   5.595  1.00  0.00     0.123 A 
HETATM    5  N   UNL     1      43.596 -15.712   5.636  1.00  0.00    -0.364 N 
HETATM    6  C   UNL     1      43.640 -16.559   4.442  1.00  0.00     0.143 C 
HETATM    7  C   UNL     1      42.341 -16.356   3.637  1.00  0.00     0.068 C 
HETATM    8  C   UNL     1      42.091 -14.867   3.326  1.00  0.00     0.221 C 
HETATM    9  C   UNL     1      43.009 -13.452   6.492  1.00  0.00     0.089 A 
HETATM   10  H   UNL     1      44.314 -15.922   6.330  1.00  0.00     0.162 HD
ENDROOT
BRANCH   1  11
HETATM   11  C   UNL     1      41.911 -11.114   6.435  1.00  0.00     0.276 C 
HETATM   12  N   UNL     1      42.801 -10.744   7.426  1.00  0.00    -0.322 N 
HETATM   13  H   UNL     1      43.523 -11.440   7.601  1.00  0.00     0.169 HD
HETATM   14  O   UNL     1      40.947 -10.467   6.040  1.00  0.00    -0.266 OA
BRANCH  12  15
HETATM   15  C   UNL     1      42.785  -9.586   8.224  1.00  0.00     0.037 A 
HETATM   16  C   UNL     1      42.770  -9.603   9.620  1.00  0.00     0.059 A 
HETATM   17  C   UNL     1      42.797  -8.418  10.383  1.00  0.00     0.042 A 
HETATM   18  C   UNL     1      42.758  -7.180   9.720  1.00  0.00    -0.035 A 
HETATM   19  C   UNL     1      42.642  -5.844  10.399  1.00  0.00     0.050 C 
HETATM   20  C   UNL     1      42.788  -7.172   8.312  1.00  0.00     0.011 A 
HETATM   21  C   UNL     1      42.801  -8.356   7.573  1.00  0.00     0.030 A 
BRANCH  17  22
HETATM   22  N   UNL     1      42.815  -8.622  11.784  1.00  0.00    -0.327 N 
HETATM   23  C   UNL     1      41.746  -8.647  12.659  1.00  0.00     0.218 C 
HETATM   24  C   UNL     1      42.179  -8.950  14.072  1.00  0.00     0.117 C 
HETATM   25  O   UNL     1      40.567  -8.442  12.399  1.00  0.00    -0.274 OA
HETATM   26  H   UNL     1      43.718  -8.482  12.222  1.00  0.00     0.169 HD
ENDBRANCH  17  22
ENDBRANCH  12  15
ENDBRANCH   1  11
BRANCH   8  27
HETATM   27  C   UNL     1      42.971 -14.363   2.203  1.00  0.00     0.409 C 
HETATM   28  F   UNL     1      43.904 -13.483   2.629  1.00  0.00    -0.169 F 
HETATM   29  F   UNL     1      43.607 -15.353   1.543  1.00  0.00    -0.169 F 
HETATM   30  F   UNL     1      42.216 -13.705   1.286  1.00  0.00    -0.169 F 
ENDBRANCH   8  27
BRANCH   6  31
HETATM   31  C   UNL     1      43.817 -18.009   4.768  1.00  0.00     0.075 A 
HETATM   32  O   UNL     1      43.399 -18.412   6.002  1.00  0.00    -0.325 OA
HETATM   33  C   UNL     1      43.630 -19.749   6.083  1.00  0.00     0.142 A 
HETATM   34  C   UNL     1      44.199 -20.211   4.919  1.00  0.00     0.027 A 
HETATM   35  C   UNL     1      44.324 -19.087   4.068  1.00  0.00     0.037 A 
ENDBRANCH   6  31
TORSDOF 5
ENDMDL
MODEL 3
REMARK VINA RESULT:      -8.6      6.903     10.452
REMARK  5 active torsions:
REMARK  status: ('A' for Active; 'I' for Inactive)
REMARK    1  A    between atoms: C_3  and  N_4 
REMARK       I    between atoms: N_4  and  C_5 
REMARK    2  A    between atoms: C_9  and  N_10 
REMARK       I    between atoms: N_10  and  C_11 
REMARK    3  A    between atoms: C_11  and  C_12 
REMARK    4  A    between atoms: C_17  and  C_18 
REMARK    5  A    between atoms: C_24  and  C_25 
ROOT
HETATM    1  C   UNL     1      43.094 -13.078   5.671  1.00  0.00     0.148 A 
HETATM    2  N   UNL     1      43.814 -13.887   6.482  1.00  0.00    -0.165 NA
HETATM    3  N   UNL     1      43.680 -15.100   5.912  1.00  0.00    -0.240 N 
HETATM    4  C   UNL     1      42.940 -15.096   4.763  1.00  0.00     0.123 A 
HETATM    5  N   UNL     1      42.747 -16.221   4.042  1.00  0.00    -0.364 N 
HETATM    6  C   UNL     1      43.129 -17.531   4.576  1.00  0.00     0.143 C 
HETATM    7  C   UNL     1      44.427 -17.379   5.392  1.00  0.00     0.068 C 
HETATM    8  C   UNL     1      44.295 -16.289   6.474  1.00  0.00     0.221 C 
HETATM    9  C   UNL     1      42.537 -13.801   4.579  1.00  0.00     0.089 A 
HETATM   10  H   UNL     1      42.018 -16.250   3.329  1.00  0.00     0.162 HD
ENDROOT
BRANCH   1  11
HETATM   11  C   UNL     1      42.931 -11.638   5.935  1.00  0.00     0.276 C 
HETATM   12  N   UNL     1      43.275 -11.304   7.231  1.00  0.00    -0.322 N 
HETATM   13  H   UNL     1      43.586 -12.099   7.785  1.00  0.00     0.169 HD
HETATM   14  O   UNL     1      42.517 -10.875   5.069  1.00  0.00    -0.266 OA
BRANCH  12  15
HETATM   15  C   UNL     1      43.192 -10.048   7.859  1.00  0.00     0.037 A 
HETATM   16  C   UNL     1      41.992  -9.451   8.249  1.00  0.00     0.059 A 
HETATM   17  C   UNL     1      41.957  -8.208   8.915  1.00  0.00     0.042 A 
HETATM   18  C   UNL     1      43.158  -7.512   9.121  1.00  0.00    -0.035 A 
HETATM   19  C   UNL     1      43.261  -6.123   9.687  1.00  0.00     0.050 C 
HETATM   20  C   UNL     1      44.366  -8.127   8.738  1.00  0.00     0.011 A 
HETATM   21  C   UNL     1      44.384  -9.377   8.116  1.00  0.00     0.030 A 
BRANCH  17  22
HETATM   22  N   UNL     1      40.658  -7.770   9.269  1.00  0.00    -0.327 N 
HETATM   23  C   UNL     1      40.043  -7.826  10.506  1.00  0.00     0.218 C 
HETATM   24  C   UNL     1      38.670  -7.201  10.482  1.00  0.00     0.117 C 
HETATM   25  O   UNL     1      40.486  -8.320  11.535  1.00  0.00    -0.274 OA
HETATM   26  H   UNL     1      40.026  -7.636   8.488  1.00  0.00     0.169 HD
ENDBRANCH  17  22
ENDBRANCH  12  15
ENDBRANCH   1  11
BRANCH   8  27
HETATM   27  C   UNL     1      43.495 -16.764   7.668  1.00  0.00     0.409 C 
HETATM   28  F   UNL     1      44.054 -16.405   8.844  1.00  0.00    -0.169 F 
HETATM   29  F   UNL     1      42.221 -16.318   7.662  1.00  0.00    -0.169 F 
HETATM   30  F   UNL     1      43.434 -18.121   7.672  1.00  0.00    -0.169 F 
ENDBRANCH   8  27
BRANCH   6  31
HETATM   31  C   UNL     1      43.316 -18.559   3.504  1.00  0.00     0.075 A 
HETATM   32  O   UNL     1      43.853 -19.752   3.891  1.00  0.00    -0.325 OA
HETATM   33  C   UNL     1      43.917 -20.537   2.784  1.00  0.00     0.142 A 
HETATM   34  C   UNL     1      43.434 -19.862   1.687  1.00  0.00     0.027 A 
HETATM   35  C   UNL     1      43.048 -18.582   2.149  1.00  0.00     0.037 A 
ENDBRANCH   6  31
TORSDOF 5
ENDMDL
MODEL 4
REMARK VINA RESULT:      -8.6      7.599     10.702
REMARK  5 active torsions:
REMARK  status: ('A' for Active; 'I' for Inactive)
REMARK    1  A    between atoms: C_3  and  N_4 
REMARK       I    between atoms: N_4  and  C_5 
REMARK    2  A    between atoms: C_9  and  N_10 
REMARK       I    between atoms: N_10  and  C_11 
REMARK    3  A    between atoms: C_11  and  C_12 
REMARK    4  A    between atoms: C_17  and  C_18 
REMARK    5  A    between atoms: C_24  and  C_25 
ROOT
HETATM    1  C   UNL     1      42.313 -10.500   6.810  1.00  0.00     0.148 A 
HETATM    2  N   UNL     1      43.386 -10.926   7.516  1.00  0.00    -0.165 NA
HETATM    3  N   UNL     1      43.349 -10.167   8.627  1.00  0.00    -0.240 N 
HETATM    4  C   UNL     1      42.289  -9.304   8.677  1.00  0.00     0.123 A 
HETATM    5  N   UNL     1      42.078  -8.504   9.744  1.00  0.00    -0.364 N 
HETATM    6  C   UNL     1      43.095  -8.360  10.789  1.00  0.00     0.143 C 
HETATM    7  C   UNL     1      43.792  -9.718  10.999  1.00  0.00     0.068 C 
HETATM    8  C   UNL     1      44.345 -10.285   9.677  1.00  0.00     0.221 C 
HETATM    9  C   UNL     1      41.599  -9.489   7.511  1.00  0.00     0.089 A 
HETATM   10  H   UNL     1      41.431  -7.719   9.672  1.00  0.00     0.162 HD
ENDROOT
BRANCH   1  11
HETATM   11  C   UNL     1      41.977 -11.043   5.481  1.00  0.00     0.276 C 
HETATM   12  N   UNL     1      41.478 -12.329   5.556  1.00  0.00    -0.322 N 
HETATM   13  H   UNL     1      41.420 -12.687   6.507  1.00  0.00     0.169 HD
HETATM   14  O   UNL     1      42.158 -10.386   4.461  1.00  0.00    -0.266 OA
BRANCH  12  15
HETATM   15  C   UNL     1      41.110 -13.184   4.500  1.00  0.00     0.037 A 
HETATM   16  C   UNL     1      41.708 -14.421   4.257  1.00  0.00     0.059 A 
HETATM   17  C   UNL     1      41.280 -15.266   3.212  1.00  0.00     0.042 A 
HETATM   18  C   UNL     1      40.275 -14.816   2.341  1.00  0.00    -0.035 A 
HETATM   19  C   UNL     1      39.816 -15.543   1.108  1.00  0.00     0.050 C 
HETATM   20  C   UNL     1      39.666 -13.573   2.603  1.00  0.00     0.011 A 
HETATM   21  C   UNL     1      40.077 -12.767   3.667  1.00  0.00     0.030 A 
BRANCH  17  22
HETATM   22  N   UNL     1      41.973 -16.499   3.132  1.00  0.00    -0.327 N 
HETATM   23  C   UNL     1      43.038 -16.830   2.317  1.00  0.00     0.218 C 
HETATM   24  C   UNL     1      43.531 -18.233   2.575  1.00  0.00     0.117 C 
HETATM   25  O   UNL     1      43.563 -16.133   1.458  1.00  0.00    -0.274 OA
HETATM   26  H   UNL     1      41.478 -17.290   3.526  1.00  0.00     0.169 HD
ENDBRANCH  17  22
ENDBRANCH  12  15
ENDBRANCH   1  11
BRANCH   8  27
HETATM   27  C   UNL     1      45.622  -9.595   9.250  1.00  0.00     0.409 C 
HETATM   28  F   UNL     1      45.394  -8.497   8.496  1.00  0.00    -0.169 F 
HETATM   29  F   UNL     1      46.399  -9.227  10.291  1.00  0.00    -0.169 F 
HETATM   30  F   UNL     1      46.367 -10.435   8.486  1.00  0.00    -0.169 F 
ENDBRANCH   8  27
BRANCH   6  31
HETATM   31  C   UNL     1      42.527  -7.871  12.085  1.00  0.00     0.075 A 
HETATM   32  O   UNL     1      41.197  -7.566  12.091  1.00  0.00    -0.325 OA
HETATM   33  C   UNL     1      40.886  -7.167  13.352  1.00  0.00     0.142 A 
HETATM   34  C   UNL     1      42.001  -7.203  14.156  1.00  0.00     0.027 A 
HETATM   35  C   UNL     1      43.064  -7.655  13.338  1.00  0.00     0.037 A 
ENDBRANCH   6  31
TORSDOF 5
ENDMDL
MODEL 5
REMARK VINA RESULT:      -8.4      5.996      9.521
REMARK  5 active torsions:
REMARK  status: ('A' for Active; 'I' for Inactive)
REMARK    1  A    between atoms: C_3  and  N_4 
REMARK       I    between atoms: N_4  and  C_5 
REMARK    2  A    between atoms: C_9  and  N_10 
REMARK       I    between atoms: N_10  and  C_11 
REMARK    3  A    between atoms: C_11  and  C_12 
REMARK    4  A    between atoms: C_17  and  C_18 
REMARK    5  A    between atoms: C_24  and  C_25 
ROOT
HETATM    1  C   UNL     1      40.888 -13.572   5.439  1.00  0.00     0.148 A 
HETATM    2  N   UNL     1      40.833 -13.822   4.110  1.00  0.00    -0.165 NA
HETATM    3  N   UNL     1      41.578 -14.935   3.971  1.00  0.00    -0.240 N 
HETATM    4  C   UNL     1      42.076 -15.422   5.148  1.00  0.00     0.123 A 
HETATM    5  N   UNL     1      42.806 -16.557   5.192  1.00  0.00    -0.364 N 
HETATM    6  C   UNL     1      43.287 -17.189   3.961  1.00  0.00     0.143 C 
HETATM    7  C   UNL     1      42.214 -17.032   2.866  1.00  0.00     0.068 C 
HETATM    8  C   UNL     1      41.804 -15.558   2.679  1.00  0.00     0.221 C 
HETATM    9  C   UNL     1      41.653 -14.558   6.121  1.00  0.00     0.089 A 
HETATM   10  H   UNL     1      43.353 -16.778   6.023  1.00  0.00     0.162 HD
ENDROOT
BRANCH   1  11
HETATM   11  C   UNL     1      40.227 -12.405   6.049  1.00  0.00     0.276 C 
HETATM   12  N   UNL     1      41.116 -11.379   6.308  1.00  0.00    -0.322 N 
HETATM   13  H   UNL     1      42.072 -11.592   6.033  1.00  0.00     0.169 HD
HETATM   14  O   UNL     1      39.025 -12.410   6.293  1.00  0.00    -0.266 OA
BRANCH  12  15
HETATM   15  C   UNL     1      40.865 -10.145   6.935  1.00  0.00     0.037 A 
HETATM   16  C   UNL     1      41.556  -9.688   8.058  1.00  0.00     0.059 A 
HETATM   17  C   UNL     1      41.301  -8.425   8.631  1.00  0.00     0.042 A 
HETATM   18  C   UNL     1      40.265  -7.635   8.106  1.00  0.00    -0.035 A 
HETATM   19  C   UNL     1      39.789  -6.337   8.695  1.00  0.00     0.050 C 
HETATM   20  C   UNL     1      39.582  -8.097   6.964  1.00  0.00     0.011 A 
HETATM   21  C   UNL     1      39.876  -9.334   6.386  1.00  0.00     0.030 A 
BRANCH  17  22
HETATM   22  N   UNL     1      42.120  -8.108   9.742  1.00  0.00    -0.327 N 
HETATM   23  C   UNL     1      42.057  -8.617  11.025  1.00  0.00     0.218 C 
HETATM   24  C   UNL     1      43.148  -8.062  11.907  1.00  0.00     0.117 C 
HETATM   25  O   UNL     1      41.238  -9.410  11.470  1.00  0.00    -0.274 OA
HETATM   26  H   UNL     1      42.636  -7.240   9.656  1.00  0.00     0.169 HD
ENDBRANCH  17  22
ENDBRANCH  12  15
ENDBRANCH   1  11
BRANCH   8  27
HETATM   27  C   UNL     1      42.837 -14.770   1.904  1.00  0.00     0.409 C 
HETATM   28  F   UNL     1      43.671 -15.563   1.195  1.00  0.00    -0.169 F 
HETATM   29  F   UNL     1      42.293 -13.876   1.053  1.00  0.00    -0.169 F 
HETATM   30  F   UNL     1      43.619 -14.066   2.763  1.00  0.00    -0.169 F 
ENDBRANCH   8  27
BRANCH   6  31
HETATM   31  C   UNL     1      43.619 -18.637   4.147  1.00  0.00     0.075 A 
HETATM   32  O   UNL     1      43.561 -19.424   3.034  1.00  0.00    -0.325 OA
HETATM   33  C   UNL     1      43.914 -20.679   3.416  1.00  0.00     0.142 A 
HETATM   34  C   UNL     1      44.191 -20.712   4.762  1.00  0.00     0.027 A 
HETATM   35  C   UNL     1      43.999 -19.394   5.238  1.00  0.00     0.037 A 
ENDBRANCH   6  31
TORSDOF 5
ENDMDL
MODEL 6
REMARK VINA RESULT:      -8.4      4.749      6.305
REMARK  5 active torsions:
REMARK  status: ('A' for Active; 'I' for Inactive)
REMARK    1  A    between atoms: C_3  and  N_4 
REMARK       I    between atoms: N_4  and  C_5 
REMARK    2  A    between atoms: C_9  and  N_10 
REMARK       I    between atoms: N_10  and  C_11 
REMARK    3  A    between atoms: C_11  and  C_12 
REMARK    4  A    between atoms: C_17  and  C_18 
REMARK    5  A    between atoms: C_24  and  C_25 
ROOT
HETATM    1  C   UNL     1      42.069 -13.059   3.954  1.00  0.00     0.148 A 
HETATM    2  N   UNL     1      42.167 -14.140   3.145  1.00  0.00    -0.165 NA
HETATM    3  N   UNL     1      41.324 -13.850   2.136  1.00  0.00    -0.240 N 
HETATM    4  C   UNL     1      40.722 -12.628   2.247  1.00  0.00     0.123 A 
HETATM    5  N   UNL     1      39.883 -12.163   1.296  1.00  0.00    -0.364 N 
HETATM    6  C   UNL     1      39.405 -13.038   0.223  1.00  0.00     0.143 C 
HETATM    7  C   UNL     1      40.542 -13.995  -0.186  1.00  0.00     0.068 C 
HETATM    8  C   UNL     1      41.104 -14.762   1.027  1.00  0.00     0.221 C 
HETATM    9  C   UNL     1      41.178 -12.089   3.419  1.00  0.00     0.089 A 
HETATM   10  H   UNL     1      39.275 -11.369   1.497  1.00  0.00     0.162 HD
ENDROOT
BRANCH   1  11
HETATM   11  C   UNL     1      42.810 -12.956   5.224  1.00  0.00     0.276 C 
HETATM   12  N   UNL     1      43.023 -11.642   5.597  1.00  0.00    -0.322 N 
HETATM   13  H   UNL     1      42.633 -10.967   4.943  1.00  0.00     0.169 HD
HETATM   14  O   UNL     1      43.184 -13.957   5.826  1.00  0.00    -0.266 OA
BRANCH  12  15
HETATM   15  C   UNL     1      43.738 -11.157   6.707  1.00  0.00     0.037 A 
HETATM   16  C   UNL     1      43.143 -10.779   7.912  1.00  0.00     0.059 A 
HETATM   17  C   UNL     1      43.902 -10.337   9.015  1.00  0.00     0.042 A 
HETATM   18  C   UNL     1      45.292 -10.197   8.873  1.00  0.00    -0.035 A 
HETATM   19  C   UNL     1      46.208  -9.609   9.910  1.00  0.00     0.050 C 
HETATM   20  C   UNL     1      45.887 -10.595   7.660  1.00  0.00     0.011 A 
HETATM   21  C   UNL     1      45.122 -11.068   6.591  1.00  0.00     0.030 A 
BRANCH  17  22
HETATM   22  N   UNL     1      43.139 -10.030  10.168  1.00  0.00    -0.327 N 
HETATM   23  C   UNL     1      43.245 -10.572  11.434  1.00  0.00     0.218 C 
HETATM   24  C   UNL     1      42.281  -9.934  12.404  1.00  0.00     0.117 C 
HETATM   25  O   UNL     1      43.993 -11.471  11.798  1.00  0.00    -0.274 OA
HETATM   26  H   UNL     1      42.264  -9.554   9.983  1.00  0.00     0.169 HD
ENDBRANCH  17  22
ENDBRANCH  12  15
ENDBRANCH   1  11
BRANCH   8  27
HETATM   27  C   UNL     1      40.193 -15.888   1.463  1.00  0.00     0.409 C 
HETATM   28  F   UNL     1      39.357 -15.524   2.460  1.00  0.00    -0.169 F 
HETATM   29  F   UNL     1      39.444 -16.384   0.456  1.00  0.00    -0.169 F 
HETATM   30  F   UNL     1      40.934 -16.921   1.943  1.00  0.00    -0.169 F 
ENDBRANCH   8  27
BRANCH   6  31
HETATM   31  C   UNL     1      38.923 -12.276  -0.972  1.00  0.00     0.075 A 
HETATM   32  O   UNL     1      39.841 -12.037  -1.953  1.00  0.00    -0.325 OA
HETATM   33  C   UNL     1      39.199 -11.360  -2.941  1.00  0.00     0.142 A 
HETATM   34  C   UNL     1      37.882 -11.153  -2.605  1.00  0.00     0.027 A 
HETATM   35  C   UNL     1      37.701 -11.742  -1.332  1.00  0.00     0.037 A 
ENDBRANCH   6  31
TORSDOF 5
ENDMDL
MODEL 7
REMARK VINA RESULT:      -8.3     13.100     16.645
REMARK  5 active torsions:
REMARK  status: ('A' for Active; 'I' for Inactive)
REMARK    1  A    between atoms: C_3  and  N_4 
REMARK       I    between atoms: N_4  and  C_5 
REMARK    2  A    between atoms: C_9  and  N_10 
REMARK       I    between atoms: N_10  and  C_11 
REMARK    3  A    between atoms: C_11  and  C_12 
REMARK    4  A    between atoms: C_17  and  C_18 
REMARK    5  A    between atoms: C_24  and  C_25 
ROOT
HETATM    1  C   UNL     1      42.039  -7.670  15.206  1.00  0.00     0.148 A 
HETATM    2  N   UNL     1      41.438  -8.800  14.766  1.00  0.00    -0.165 NA
HETATM    3  N   UNL     1      41.930  -8.949  13.521  1.00  0.00    -0.240 N 
HETATM    4  C   UNL     1      42.835  -7.990  13.161  1.00  0.00     0.123 A 
HETATM    5  N   UNL     1      43.458  -8.019  11.964  1.00  0.00    -0.364 N 
HETATM    6  C   UNL     1      43.024  -8.944  10.913  1.00  0.00     0.143 C 
HETATM    7  C   UNL     1      42.592 -10.272  11.564  1.00  0.00     0.068 C 
HETATM    8  C   UNL     1      41.534 -10.051  12.662  1.00  0.00     0.221 C 
HETATM    9  C   UNL     1      42.926  -7.139  14.229  1.00  0.00     0.089 A 
HETATM   10  H   UNL     1      43.946  -7.191  11.623  1.00  0.00     0.162 HD
ENDROOT
BRANCH   1  11
HETATM   11  C   UNL     1      41.766  -7.098  16.537  1.00  0.00     0.276 C 
HETATM   12  N   UNL     1      41.301  -8.048  17.426  1.00  0.00    -0.322 N 
HETATM   13  H   UNL     1      41.228  -8.979  17.023  1.00  0.00     0.169 HD
HETATM   14  O   UNL     1      41.934  -5.904  16.763  1.00  0.00    -0.266 OA
BRANCH  12  15
HETATM   15  C   UNL     1      40.881  -7.865  18.756  1.00  0.00     0.037 A 
HETATM   16  C   UNL     1      41.610  -7.154  19.711  1.00  0.00     0.059 A 
HETATM   17  C   UNL     1      41.132  -6.958  21.024  1.00  0.00     0.042 A 
HETATM   18  C   UNL     1      39.924  -7.562  21.406  1.00  0.00    -0.035 A 
HETATM   19  C   UNL     1      39.363  -7.558  22.800  1.00  0.00     0.050 C 
HETATM   20  C   UNL     1      39.187  -8.265  20.432  1.00  0.00     0.011 A 
HETATM   21  C   UNL     1      39.657  -8.415  19.126  1.00  0.00     0.030 A 
BRANCH  17  22
HETATM   22  N   UNL     1      41.984  -6.183  21.848  1.00  0.00    -0.327 N 
HETATM   23  C   UNL     1      43.098  -6.594  22.554  1.00  0.00     0.218 C 
HETATM   24  C   UNL     1      43.767  -5.448  23.271  1.00  0.00     0.117 C 
HETATM   25  O   UNL     1      43.541  -7.732  22.648  1.00  0.00    -0.274 OA
HETATM   26  H   UNL     1      41.591  -5.300  22.154  1.00  0.00     0.169 HD
ENDBRANCH  17  22
ENDBRANCH  12  15
ENDBRANCH   1  11
BRANCH   8  27
HETATM   27  C   UNL     1      40.160  -9.783  12.086  1.00  0.00     0.409 C 
HETATM   28  F   UNL     1      39.886  -8.464  11.988  1.00  0.00    -0.169 F 
HETATM   29  F   UNL     1      39.980 -10.335  10.869  1.00  0.00    -0.169 F 
HETATM   30  F   UNL     1      39.209 -10.312  12.900  1.00  0.00    -0.169 F 
ENDBRANCH   8  27
BRANCH   6  31
HETATM   31  C   UNL     1      44.088  -9.197   9.891  1.00  0.00     0.075 A 
HETATM   32  O   UNL     1      44.498 -10.490   9.745  1.00  0.00    -0.325 OA
HETATM   33  C   UNL     1      45.440 -10.499   8.766  1.00  0.00     0.142 A 
HETATM   34  C   UNL     1      45.648  -9.228   8.285  1.00  0.00     0.027 A 
HETATM   35  C   UNL     1      44.776  -8.383   9.012  1.00  0.00     0.037 A 
ENDBRANCH   6  31
TORSDOF 5
ENDMDL
MODEL 8
REMARK VINA RESULT:      -8.3      7.846     11.694
REMARK  5 active torsions:
REMARK  status: ('A' for Active; 'I' for Inactive)
REMARK    1  A    between atoms: C_3  and  N_4 
REMARK       I    between atoms: N_4  and  C_5 
REMARK    2  A    between atoms: C_9  and  N_10 
REMARK       I    between atoms: N_10  and  C_11 
REMARK    3  A    between atoms: C_11  and  C_12 
REMARK    4  A    between atoms: C_17  and  C_18 
REMARK    5  A    between atoms: C_24  and  C_25 
ROOT
HETATM    1  C   UNL     1      42.157  -9.836   7.047  1.00  0.00     0.148 A 
HETATM    2  N   UNL     1      43.237 -10.431   7.604  1.00  0.00    -0.165 NA
HETATM    3  N   UNL     1      43.276  -9.909   8.844  1.00  0.00    -0.240 N 
HETATM    4  C   UNL     1      42.257  -9.038   9.114  1.00  0.00     0.123 A 
HETATM    5  N   UNL     1      42.122  -8.461  10.327  1.00  0.00    -0.364 N 
HETATM    6  C   UNL     1      43.184  -8.564  11.331  1.00  0.00     0.143 C 
HETATM    7  C   UNL     1      43.830  -9.960  11.235  1.00  0.00     0.068 C 
HETATM    8  C   UNL     1      44.307 -10.269   9.802  1.00  0.00     0.221 C 
HETATM    9  C   UNL     1      41.514  -8.962   7.967  1.00  0.00     0.089 A 
HETATM   10  H   UNL     1      41.508  -7.656  10.442  1.00  0.00     0.162 HD
ENDROOT
BRANCH   1  11
HETATM   11  C   UNL     1      41.746 -10.091   5.655  1.00  0.00     0.276 C 
HETATM   12  N   UNL     1      40.414 -10.448   5.562  1.00  0.00    -0.322 N 
HETATM   13  H   UNL     1      39.938 -10.472   6.460  1.00  0.00     0.169 HD
HETATM   14  O   UNL     1      42.545  -9.997   4.729  1.00  0.00    -0.266 OA
BRANCH  12  15
HETATM   15  C   UNL     1      39.690 -10.821   4.415  1.00  0.00     0.037 A 
HETATM   16  C   UNL     1      39.718 -12.101   3.860  1.00  0.00     0.059 A 
HETATM   17  C   UNL     1      38.943 -12.445   2.732  1.00  0.00     0.042 A 
HETATM   18  C   UNL     1      38.182 -11.449   2.100  1.00  0.00    -0.035 A 
HETATM   19  C   UNL     1      37.421 -11.632   0.817  1.00  0.00     0.050 C 
HETATM   20  C   UNL     1      38.148 -10.164   2.675  1.00  0.00     0.011 A 
HETATM   21  C   UNL     1      38.890  -9.853   3.816  1.00  0.00     0.030 A 
BRANCH  17  22
HETATM   22  N   UNL     1      39.066 -13.796   2.326  1.00  0.00    -0.327 N 
HETATM   23  C   UNL     1      40.056 -14.371   1.553  1.00  0.00     0.218 C 
HETATM   24  C   UNL     1      39.854 -15.858   1.391  1.00  0.00     0.117 C 
HETATM   25  O   UNL     1      41.003 -13.809   1.019  1.00  0.00    -0.274 OA
HETATM   26  H   UNL     1      38.213 -14.339   2.395  1.00  0.00     0.169 HD
ENDBRANCH  17  22
ENDBRANCH  12  15
ENDBRANCH   1  11
BRANCH   8  27
HETATM   27  C   UNL     1      45.595  -9.552   9.461  1.00  0.00     0.409 C 
HETATM   28  F   UNL     1      45.383  -8.359   8.864  1.00  0.00    -0.169 F 
HETATM   29  F   UNL     1      46.384  -9.342  10.535  1.00  0.00    -0.169 F 
HETATM   30  F   UNL     1      46.318 -10.296   8.585  1.00  0.00    -0.169 F 
ENDBRANCH   8  27
BRANCH   6  31
HETATM   31  C   UNL     1      42.689  -8.324  12.723  1.00  0.00     0.075 A 
HETATM   32  O   UNL     1      41.709  -9.160  13.173  1.00  0.00    -0.325 OA
HETATM   33  C   UNL     1      41.423  -8.786  14.448  1.00  0.00     0.142 A 
HETATM   34  C   UNL     1      42.201  -7.715  14.822  1.00  0.00     0.027 A 
HETATM   35  C   UNL     1      43.018  -7.413  13.707  1.00  0.00     0.037 A 
ENDBRANCH   6  31
TORSDOF 5
ENDMDL
MODEL 9
REMARK VINA RESULT:      -8.3      7.474     10.127
REMARK  5 active torsions:
REMARK  status: ('A' for Active; 'I' for Inactive)
REMARK    1  A    between atoms: C_3  and  N_4 
REMARK       I    between atoms: N_4  and  C_5 
REMARK    2  A    between atoms: C_9  and  N_10 
REMARK       I    between atoms: N_10  and  C_11 
REMARK    3  A    between atoms: C_11  and  C_12 
REMARK    4  A    between atoms: C_17  and  C_18 
REMARK    5  A    between atoms: C_24  and  C_25 
ROOT
HETATM    1  C   UNL     1      43.297 -11.657   7.112  1.00  0.00     0.148 A 
HETATM    2  N   UNL     1      43.740 -12.934   7.035  1.00  0.00    -0.165 NA
HETATM    3  N   UNL     1      43.035 -13.447   6.009  1.00  0.00    -0.240 N 
HETATM    4  C   UNL     1      42.191 -12.553   5.411  1.00  0.00     0.123 A 
HETATM    5  N   UNL     1      41.445 -12.893   4.338  1.00  0.00    -0.364 N 
HETATM    6  C   UNL     1      41.335 -14.290   3.911  1.00  0.00     0.143 C 
HETATM    7  C   UNL     1      42.692 -14.987   4.130  1.00  0.00     0.068 C 
HETATM    8  C   UNL     1      43.187 -14.826   5.580  1.00  0.00     0.221 C 
HETATM    9  C   UNL     1      42.331 -11.382   6.105  1.00  0.00     0.089 A 
HETATM   10  H   UNL     1      40.666 -12.300   4.051  1.00  0.00     0.162 HD
ENDROOT
BRANCH   1  11
HETATM   11  C   UNL     1      43.782 -10.715   8.135  1.00  0.00     0.276 C 
HETATM   12  N   UNL     1      42.826 -10.453   9.098  1.00  0.00    -0.322 N 
HETATM   13  H   UNL     1      41.952 -10.953   8.947  1.00  0.00     0.169 HD
HETATM   14  O   UNL     1      44.910 -10.236   8.076  1.00  0.00    -0.266 OA
BRANCH  12  15
HETATM   15  C   UNL     1      42.905  -9.565  10.186  1.00  0.00     0.037 A 
HETATM   16  C   UNL     1      42.780  -8.180  10.071  1.00  0.00     0.059 A 
HETATM   17  C   UNL     1      42.823  -7.328  11.194  1.00  0.00     0.042 A 
HETATM   18  C   UNL     1      43.079  -7.882  12.459  1.00  0.00    -0.035 A 
HETATM   19  C   UNL     1      43.290  -7.090  13.718  1.00  0.00     0.050 C 
HETATM   20  C   UNL     1      43.188  -9.282  12.569  1.00  0.00     0.011 A 
HETATM   21  C   UNL     1      43.103 -10.113  11.450  1.00  0.00     0.030 A 
BRANCH  17  22
HETATM   22  N   UNL     1      42.643  -5.956  10.897  1.00  0.00    -0.327 N 
HETATM   23  C   UNL     1      41.528  -5.171  11.121  1.00  0.00     0.218 C 
HETATM   24  C   UNL     1      41.756  -3.736  10.711  1.00  0.00     0.117 C 
HETATM   25  O   UNL     1      40.448  -5.525  11.575  1.00  0.00    -0.274 OA
HETATM   26  H   UNL     1      43.300  -5.577  10.225  1.00  0.00     0.169 HD
ENDBRANCH  17  22
ENDBRANCH  12  15
ENDBRANCH   1  11
BRANCH   8  27
HETATM   27  C   UNL     1      42.460 -15.744   6.538  1.00  0.00     0.409 C 
HETATM   28  F   UNL     1      43.249 -16.170   7.549  1.00  0.00    -0.169 F 
HETATM   29  F   UNL     1      41.362 -15.180   7.081  1.00  0.00    -0.169 F 
HETATM   30  F   UNL     1      42.044 -16.858   5.882  1.00  0.00    -0.169 F 
ENDBRANCH   8  27
BRANCH   6  31
HETATM   31  C   UNL     1      40.915 -14.425   2.481  1.00  0.00     0.075 A 
HETATM   32  O   UNL     1      41.155 -13.353   1.671  1.00  0.00    -0.325 OA
HETATM   33  C   UNL     1      40.722 -13.690   0.428  1.00  0.00     0.142 A 
HETATM   34  C   UNL     1      40.198 -14.962   0.428  1.00  0.00     0.027 A 
HETATM   35  C   UNL     1      40.319 -15.438   1.755  1.00  0.00     0.037 A 
ENDBRANCH   6  31
TORSDOF 5
ENDMDL
MODEL 10
REMARK VINA RESULT:      -8.2      7.604      9.880
REMARK  5 active torsions:
REMARK  status: ('A' for Active; 'I' for Inactive)
REMARK    1  A    between atoms: C_3  and  N_4 
REMARK       I    between atoms: N_4  and  C_5 
REMARK    2  A    between atoms: C_9  and  N_10 
REMARK       I    between atoms: N_10  and  C_11 
REMARK    3  A    between atoms: C_11  and  C_12 
REMARK    4  A    between atoms: C_17  and  C_18 
REMARK    5  A    between atoms: C_24  and  C_25 
ROOT
HETATM    1  C   UNL     1      41.882 -10.601   6.669  1.00  0.00     0.148 A 
HETATM    2  N   UNL     1      42.902 -11.460   6.435  1.00  0.00    -0.165 NA
HETATM    3  N   UNL     1      42.431 -12.241   5.445  1.00  0.00    -0.240 N 
HETATM    4  C   UNL     1      41.178 -11.902   5.017  1.00  0.00     0.123 A 
HETATM    5  N   UNL     1      40.577 -12.555   3.999  1.00  0.00    -0.364 N 
HETATM    6  C   UNL     1      41.143 -13.796   3.464  1.00  0.00     0.143 C 
HETATM    7  C   UNL     1      42.681 -13.692   3.482  1.00  0.00     0.068 C 
HETATM    8  C   UNL     1      43.211 -13.329   4.883  1.00  0.00     0.221 C 
HETATM    9  C   UNL     1      40.788 -10.845   5.794  1.00  0.00     0.089 A 
HETATM   10  H   UNL     1      39.575 -12.447   3.846  1.00  0.00     0.162 HD
ENDROOT
BRANCH   1  11
HETATM   11  C   UNL     1      41.946  -9.568   7.718  1.00  0.00     0.276 C 
HETATM   12  N   UNL     1      42.281 -10.096   8.950  1.00  0.00    -0.322 N 
HETATM   13  H   UNL     1      42.432 -11.102   8.932  1.00  0.00     0.169 HD
HETATM   14  O   UNL     1      41.702  -8.392   7.468  1.00  0.00    -0.266 OA
BRANCH  12  15
HETATM   15  C   UNL     1      42.377  -9.431  10.186  1.00  0.00     0.037 A 
HETATM   16  C   UNL     1      41.274  -8.977  10.912  1.00  0.00     0.059 A 
HETATM   17  C   UNL     1      41.412  -8.352  12.169  1.00  0.00     0.042 A 
HETATM   18  C   UNL     1      42.701  -8.107  12.670  1.00  0.00    -0.035 A 
HETATM   19  C   UNL     1      43.005  -7.331  13.921  1.00  0.00     0.050 C 
HETATM   20  C   UNL     1      43.807  -8.581  11.938  1.00  0.00     0.011 A 
HETATM   21  C   UNL     1      43.649  -9.234  10.714  1.00  0.00     0.030 A 
BRANCH  17  22
HETATM   22  N   UNL     1      40.188  -7.989  12.782  1.00  0.00    -0.327 N 
HETATM   23  C   UNL     1      39.528  -6.777  12.722  1.00  0.00     0.218 C 
HETATM   24  C   UNL     1      38.217  -6.810  13.469  1.00  0.00     0.117 C 
HETATM   25  O   UNL     1      39.902  -5.753  12.165  1.00  0.00    -0.274 OA
HETATM   26  H   UNL     1      39.899  -8.592  13.543  1.00  0.00     0.169 HD
ENDBRANCH  17  22
ENDBRANCH  12  15
ENDBRANCH   1  11
BRANCH   8  27
HETATM   27  C   UNL     1      43.191 -14.513   5.825  1.00  0.00     0.409 C 
HETATM   28  F   UNL     1      42.079 -14.549   6.592  1.00  0.00    -0.169 F 
HETATM   29  F   UNL     1      43.292 -15.698   5.188  1.00  0.00    -0.169 F 
HETATM   30  F   UNL     1      44.243 -14.439   6.681  1.00  0.00    -0.169 F 
ENDBRANCH   8  27
BRANCH   6  31
HETATM   31  C   UNL     1      40.667 -14.097   2.077  1.00  0.00     0.075 A 
HETATM   32  O   UNL     1      40.681 -13.060   1.189  1.00  0.00    -0.325 OA
HETATM   33  C   UNL     1      40.235 -13.548   0.002  1.00  0.00     0.142 A 
HETATM   34  C   UNL     1      39.928 -14.884   0.115  1.00  0.00     0.027 A 
HETATM   35  C   UNL     1      40.203 -15.240   1.457  1.00  0.00     0.037 A 
ENDBRANCH   6  31
TORSDOF 5
ENDMDL
