MODEL 1
REMARK VINA RESULT:      -9.3      0.000      0.000
REMARK  4 active torsions:
REMARK  status: ('A' for Active; 'I' for Inactive)
REMARK    1  A    between atoms: C_4  and  S_5 
REMARK    2  A    between atoms: S_5  and  C_6 
REMARK    3  A    between atoms: C_6  and  C_7 
REMARK    4  A    between atoms: C_23  and  N_24 
ROOT
HETATM    1  C   UNL     1      42.057 -14.525   2.932  1.00  0.00    -0.029 C 
HETATM    2  C   UNL     1      42.758 -15.510   3.827  1.00  0.00     0.016 A 
HETATM    3  C   UNL     1      43.143 -15.014   5.088  1.00  0.00     0.091 A 
HETATM    4  C   UNL     1      43.896 -15.744   6.003  1.00  0.00     0.039 A 
HETATM    5  C   UNL     1      44.286 -17.030   5.682  1.00  0.00     0.015 A 
HETATM    6  C   UNL     1      43.892 -17.612   4.476  1.00  0.00    -0.025 A 
HETATM    7  C   UNL     1      43.097 -16.888   3.533  1.00  0.00    -0.012 A 
HETATM    8  C   UNL     1      44.293 -18.939   4.238  1.00  0.00     0.012 A 
HETATM    9  C   UNL     1      43.912 -19.614   3.086  1.00  0.00     0.001 A 
HETATM   10  C   UNL     1      43.102 -18.972   2.170  1.00  0.00     0.001 A 
HETATM   11  C   UNL     1      42.698 -17.649   2.397  1.00  0.00     0.013 A 
HETATM   12  O   UNL     1      42.770 -13.742   5.565  1.00  0.00    -0.275 OA
HETATM   13  C   UNL     1      41.932 -12.930   4.842  1.00  0.00     0.288 C 
HETATM   14  O   UNL     1      41.479 -11.882   5.285  1.00  0.00    -0.260 OA
HETATM   15  C   UNL     1      41.657 -13.357   3.470  1.00  0.00     0.091 C 
ENDROOT
BRANCH   1  16
HETATM   16  C   UNL     1      41.849 -14.836   1.464  1.00  0.00     0.122 C 
BRANCH  16  17
HETATM   17  S   UNL     1      40.140 -15.173   0.938  1.00  0.00    -0.085 SA
BRANCH  17  18
HETATM   18  C   UNL     1      40.075 -14.140  -0.507  1.00  0.00     0.190 A 
HETATM   19  N   UNL     1      40.708 -12.959  -0.423  1.00  0.00    -0.228 NA
HETATM   20  C   UNL     1      40.650 -12.161  -1.506  1.00  0.00     0.036 A 
HETATM   21  C   UNL     1      41.339 -10.833  -1.425  1.00  0.00     0.070 C 
HETATM   22  C   UNL     1      39.987 -12.534  -2.656  1.00  0.00     0.071 A 
HETATM   23  C   UNL     1      39.389 -13.773  -2.649  1.00  0.00     0.105 A 
HETATM   24  N   UNL     1      39.411 -14.583  -1.587  1.00  0.00    -0.211 NA
BRANCH  23  25
HETATM   25  N   UNL     1      38.676 -14.220  -3.761  1.00  0.00    -0.287 NA
HETATM   26  H   UNL     1      37.777 -13.748  -3.767  1.00  0.00     0.125 HD
HETATM   27  H   UNL     1      38.571 -15.229  -3.764  1.00  0.00     0.125 HD
ENDBRANCH  23  25
ENDBRANCH  17  18
ENDBRANCH  16  17
ENDBRANCH   1  16
TORSDOF 4
ENDMDL
MODEL 2
REMARK VINA RESULT:      -9.2      0.714      1.705
REMARK  4 active torsions:
REMARK  status: ('A' for Active; 'I' for Inactive)
REMARK    1  A    between atoms: C_4  and  S_5 
REMARK    2  A    between atoms: S_5  and  C_6 
REMARK    3  A    between atoms: C_6  and  C_7 
REMARK    4  A    between atoms: C_23  and  N_24 
ROOT
HETATM    1  C   UNL     1      42.081 -14.391   3.252  1.00  0.00    -0.029 C 
HETATM    2  C   UNL     1      42.800 -15.425   4.076  1.00  0.00     0.016 A 
HETATM    3  C   UNL     1      43.208 -15.001   5.356  1.00  0.00     0.091 A 
HETATM    4  C   UNL     1      43.979 -15.780   6.213  1.00  0.00     0.039 A 
HETATM    5  C   UNL     1      44.363 -17.046   5.812  1.00  0.00     0.015 A 
HETATM    6  C   UNL     1      43.946 -17.558   4.583  1.00  0.00    -0.025 A 
HETATM    7  C   UNL     1      43.133 -16.784   3.698  1.00  0.00    -0.012 A 
HETATM    8  C   UNL     1      44.343 -18.869   4.262  1.00  0.00     0.012 A 
HETATM    9  C   UNL     1      43.941 -19.478   3.082  1.00  0.00     0.001 A 
HETATM   10  C   UNL     1      43.113 -18.786   2.219  1.00  0.00     0.001 A 
HETATM   11  C   UNL     1      42.712 -17.480   2.528  1.00  0.00     0.013 A 
HETATM   12  O   UNL     1      42.845 -13.758   5.911  1.00  0.00    -0.275 OA
HETATM   13  C   UNL     1      41.992 -12.908   5.251  1.00  0.00     0.288 C 
HETATM   14  O   UNL     1      41.547 -11.887   5.761  1.00  0.00    -0.260 OA
HETATM   15  C   UNL     1      41.691 -13.256   3.863  1.00  0.00     0.091 C 
ENDROOT
BRANCH   1  16
HETATM   16  C   UNL     1      41.845 -14.619   1.773  1.00  0.00     0.122 C 
BRANCH  16  17
HETATM   17  S   UNL     1      40.159 -15.096   1.282  1.00  0.00    -0.085 SA
BRANCH  17  18
HETATM   18  C   UNL     1      40.056 -14.233  -0.269  1.00  0.00     0.190 A 
HETATM   19  N   UNL     1      39.280 -14.793  -1.210  1.00  0.00    -0.228 NA
HETATM   20  C   UNL     1      39.209 -14.157  -2.396  1.00  0.00     0.036 A 
HETATM   21  C   UNL     1      38.358 -14.776  -3.463  1.00  0.00     0.070 C 
HETATM   22  C   UNL     1      39.885 -12.980  -2.637  1.00  0.00     0.071 A 
HETATM   23  C   UNL     1      40.636 -12.477  -1.600  1.00  0.00     0.105 A 
HETATM   24  N   UNL     1      40.744 -13.090  -0.418  1.00  0.00    -0.211 NA
BRANCH  23  25
HETATM   25  N   UNL     1      41.372 -11.304  -1.765  1.00  0.00    -0.287 NA
HETATM   26  H   UNL     1      41.293 -10.761  -0.910  1.00  0.00     0.125 HD
HETATM   27  H   UNL     1      41.067 -10.775  -2.575  1.00  0.00     0.125 HD
ENDBRANCH  23  25
ENDBRANCH  17  18
ENDBRANCH  16  17
ENDBRANCH   1  16
TORSDOF 4
ENDMDL
MODEL 3
REMARK VINA RESULT:      -8.9      2.387      4.298
REMARK  4 active torsions:
REMARK  status: ('A' for Active; 'I' for Inactive)
REMARK    1  A    between atoms: C_4  and  S_5 
REMARK    2  A    between atoms: S_5  and  C_6 
REMARK    3  A    between atoms: C_6  and  C_7 
REMARK    4  A    between atoms: C_23  and  N_24 
ROOT
HETATM    1  C   UNL     1      42.936 -17.134   2.580  1.00  0.00    -0.029 C 
HETATM    2  C   UNL     1      43.225 -16.977   4.049  1.00  0.00     0.016 A 
HETATM    3  C   UNL     1      43.519 -18.169   4.738  1.00  0.00     0.091 A 
HETATM    4  C   UNL     1      43.703 -18.233   6.116  1.00  0.00     0.039 A 
HETATM    5  C   UNL     1      43.610 -17.076   6.865  1.00  0.00     0.015 A 
HETATM    6  C   UNL     1      43.381 -15.846   6.245  1.00  0.00    -0.025 A 
HETATM    7  C   UNL     1      43.214 -15.754   4.827  1.00  0.00    -0.012 A 
HETATM    8  C   UNL     1      43.339 -14.706   7.067  1.00  0.00     0.012 A 
HETATM    9  C   UNL     1      43.161 -13.437   6.536  1.00  0.00     0.001 A 
HETATM   10  C   UNL     1      43.045 -13.294   5.166  1.00  0.00     0.001 A 
HETATM   11  C   UNL     1      43.084 -14.423   4.338  1.00  0.00     0.013 A 
HETATM   12  O   UNL     1      43.694 -19.411   4.096  1.00  0.00    -0.275 OA
HETATM   13  C   UNL     1      43.661 -19.513   2.727  1.00  0.00     0.288 C 
HETATM   14  O   UNL     1      43.945 -20.545   2.132  1.00  0.00    -0.260 OA
HETATM   15  C   UNL     1      43.199 -18.325   2.010  1.00  0.00     0.091 C 
ENDROOT
BRANCH   1  16
HETATM   16  C   UNL     1      42.333 -15.990   1.791  1.00  0.00     0.122 C 
BRANCH  16  17
HETATM   17  S   UNL     1      40.525 -15.806   1.879  1.00  0.00    -0.085 SA
BRANCH  17  18
HETATM   18  C   UNL     1      40.285 -14.677   0.526  1.00  0.00     0.190 A 
HETATM   19  N   UNL     1      39.622 -15.156  -0.538  1.00  0.00    -0.228 NA
HETATM   20  C   UNL     1      39.450 -14.315  -1.576  1.00  0.00     0.036 A 
HETATM   21  C   UNL     1      38.724 -14.838  -2.777  1.00  0.00     0.070 C 
HETATM   22  C   UNL     1      39.916 -13.018  -1.552  1.00  0.00     0.071 A 
HETATM   23  C   UNL     1      40.564 -12.617  -0.406  1.00  0.00     0.105 A 
HETATM   24  N   UNL     1      40.768 -13.429   0.635  1.00  0.00    -0.211 NA
BRANCH  23  25
HETATM   25  N   UNL     1      41.089 -11.329  -0.306  1.00  0.00    -0.287 NA
HETATM   26  H   UNL     1      41.362 -11.176   0.661  1.00  0.00     0.125 HD
HETATM   27  H   UNL     1      40.433 -10.625  -0.626  1.00  0.00     0.125 HD
ENDBRANCH  23  25
ENDBRANCH  17  18
ENDBRANCH  16  17
ENDBRANCH   1  16
TORSDOF 4
ENDMDL
MODEL 4
REMARK VINA RESULT:      -8.5      1.493      2.442
REMARK  4 active torsions:
REMARK  status: ('A' for Active; 'I' for Inactive)
REMARK    1  A    between atoms: C_4  and  S_5 
REMARK    2  A    between atoms: S_5  and  C_6 
REMARK    3  A    between atoms: C_6  and  C_7 
REMARK    4  A    between atoms: C_23  and  N_24 
ROOT
HETATM    1  C   UNL     1      42.632 -13.655   3.791  1.00  0.00    -0.029 C 
HETATM    2  C   UNL     1      43.134 -14.895   4.481  1.00  0.00     0.016 A 
HETATM    3  C   UNL     1      43.542 -14.720   5.817  1.00  0.00     0.091 A 
HETATM    4  C   UNL     1      44.134 -15.725   6.577  1.00  0.00     0.039 A 
HETATM    5  C   UNL     1      44.328 -16.971   6.013  1.00  0.00     0.015 A 
HETATM    6  C   UNL     1      43.895 -17.238   4.714  1.00  0.00    -0.025 A 
HETATM    7  C   UNL     1      43.261 -16.227   3.925  1.00  0.00    -0.012 A 
HETATM    8  C   UNL     1      44.091 -18.542   4.223  1.00  0.00     0.012 A 
HETATM    9  C   UNL     1      43.653 -18.912   2.958  1.00  0.00     0.001 A 
HETATM   10  C   UNL     1      42.992 -17.982   2.179  1.00  0.00     0.001 A 
HETATM   11  C   UNL     1      42.792 -16.681   2.658  1.00  0.00     0.013 A 
HETATM   12  O   UNL     1      43.356 -13.520   6.532  1.00  0.00    -0.275 OA
HETATM   13  C   UNL     1      42.685 -12.459   5.975  1.00  0.00     0.288 C 
HETATM   14  O   UNL     1      42.387 -11.456   6.611  1.00  0.00    -0.260 OA
HETATM   15  C   UNL     1      42.401 -12.563   4.544  1.00  0.00     0.091 C 
ENDROOT
BRANCH   1  16
HETATM   16  C   UNL     1      42.436 -13.640   2.288  1.00  0.00     0.122 C 
BRANCH  16  17
HETATM   17  S   UNL     1      40.736 -13.384   1.693  1.00  0.00    -0.085 SA
BRANCH  17  18
HETATM   18  C   UNL     1      41.049 -12.153   0.450  1.00  0.00     0.190 A 
HETATM   19  N   UNL     1      40.891 -12.542  -0.825  1.00  0.00    -0.228 NA
HETATM   20  C   UNL     1      41.142 -11.623  -1.777  1.00  0.00     0.036 A 
HETATM   21  C   UNL     1      40.985 -12.044  -3.206  1.00  0.00     0.070 C 
HETATM   22  C   UNL     1      41.530 -10.336  -1.467  1.00  0.00     0.071 A 
HETATM   23  C   UNL     1      41.642 -10.031  -0.130  1.00  0.00     0.105 A 
HETATM   24  N   UNL     1      41.418 -10.923   0.839  1.00  0.00    -0.211 NA
BRANCH  23  25
HETATM   25  N   UNL     1      42.053  -8.761   0.272  1.00  0.00    -0.287 NA
HETATM   26  H   UNL     1      41.313  -8.104   0.041  1.00  0.00     0.125 HD
HETATM   27  H   UNL     1      42.936  -8.496  -0.150  1.00  0.00     0.125 HD
ENDBRANCH  23  25
ENDBRANCH  17  18
ENDBRANCH  16  17
ENDBRANCH   1  16
TORSDOF 4
ENDMDL
MODEL 5
REMARK VINA RESULT:      -8.3      3.781      7.055
REMARK  4 active torsions:
REMARK  status: ('A' for Active; 'I' for Inactive)
REMARK    1  A    between atoms: C_4  and  S_5 
REMARK    2  A    between atoms: S_5  and  C_6 
REMARK    3  A    between atoms: C_6  and  C_7 
REMARK    4  A    between atoms: C_23  and  N_24 
ROOT
HETATM    1  C   UNL     1      41.130 -15.024   1.730  1.00  0.00    -0.029 C 
HETATM    2  C   UNL     1      41.563 -13.664   2.207  1.00  0.00     0.016 A 
HETATM    3  C   UNL     1      41.288 -12.598   1.328  1.00  0.00     0.091 A 
HETATM    4  C   UNL     1      41.713 -11.292   1.549  1.00  0.00     0.039 A 
HETATM    5  C   UNL     1      42.431 -11.000   2.693  1.00  0.00     0.015 A 
HETATM    6  C   UNL     1      42.690 -11.991   3.641  1.00  0.00    -0.025 A 
HETATM    7  C   UNL     1      42.241 -13.335   3.445  1.00  0.00    -0.012 A 
HETATM    8  C   UNL     1      43.392 -11.609   4.798  1.00  0.00     0.012 A 
HETATM    9  C   UNL     1      43.657 -12.516   5.815  1.00  0.00     0.001 A 
HETATM   10  C   UNL     1      43.199 -13.814   5.692  1.00  0.00     0.001 A 
HETATM   11  C   UNL     1      42.500 -14.205   4.543  1.00  0.00     0.013 A 
HETATM   12  O   UNL     1      40.523 -12.742   0.153  1.00  0.00    -0.275 OA
HETATM   13  C   UNL     1      39.928 -13.938  -0.163  1.00  0.00     0.288 C 
HETATM   14  O   UNL     1      39.147 -14.063  -1.098  1.00  0.00    -0.260 OA
HETATM   15  C   UNL     1      40.333 -15.087   0.646  1.00  0.00     0.091 C 
ENDROOT
BRANCH   1  16
HETATM   16  C   UNL     1      41.613 -16.274   2.435  1.00  0.00     0.122 C 
BRANCH  16  17
HETATM   17  S   UNL     1      43.268 -16.876   1.980  1.00  0.00    -0.085 SA
BRANCH  17  18
HETATM   18  C   UNL     1      43.509 -18.065   3.279  1.00  0.00     0.190 A 
HETATM   19  N   UNL     1      43.434 -17.598   4.535  1.00  0.00    -0.228 NA
HETATM   20  C   UNL     1      43.632 -18.487   5.528  1.00  0.00     0.036 A 
HETATM   21  C   UNL     1      43.566 -17.979   6.935  1.00  0.00     0.070 C 
HETATM   22  C   UNL     1      43.886 -19.819   5.277  1.00  0.00     0.071 A 
HETATM   23  C   UNL     1      43.920 -20.202   3.956  1.00  0.00     0.105 A 
HETATM   24  N   UNL     1      43.747 -19.344   2.947  1.00  0.00    -0.211 NA
BRANCH  23  25
HETATM   25  N   UNL     1      44.195 -21.525   3.611  1.00  0.00    -0.287 NA
HETATM   26  H   UNL     1      43.312 -21.991   3.427  1.00  0.00     0.125 HD
HETATM   27  H   UNL     1      44.729 -22.002   4.330  1.00  0.00     0.125 HD
ENDBRANCH  23  25
ENDBRANCH  17  18
ENDBRANCH  16  17
ENDBRANCH   1  16
TORSDOF 4
ENDMDL
MODEL 6
REMARK VINA RESULT:      -8.3      4.982      7.625
REMARK  4 active torsions:
REMARK  status: ('A' for Active; 'I' for Inactive)
REMARK    1  A    between atoms: C_4  and  S_5 
REMARK    2  A    between atoms: S_5  and  C_6 
REMARK    3  A    between atoms: C_6  and  C_7 
REMARK    4  A    between atoms: C_23  and  N_24 
ROOT
HETATM    1  C   UNL     1      42.971 -12.752   4.742  1.00  0.00    -0.029 C 
HETATM    2  C   UNL     1      42.942 -14.099   4.072  1.00  0.00     0.016 A 
HETATM    3  C   UNL     1      42.484 -14.102   2.740  1.00  0.00     0.091 A 
HETATM    4  C   UNL     1      42.285 -15.264   2.000  1.00  0.00     0.039 A 
HETATM    5  C   UNL     1      42.560 -16.488   2.579  1.00  0.00     0.015 A 
HETATM    6  C   UNL     1      43.075 -16.562   3.874  1.00  0.00    -0.025 A 
HETATM    7  C   UNL     1      43.310 -15.379   4.643  1.00  0.00    -0.012 A 
HETATM    8  C   UNL     1      43.367 -17.841   4.380  1.00  0.00     0.012 A 
HETATM    9  C   UNL     1      43.922 -18.010   5.641  1.00  0.00     0.001 A 
HETATM   10  C   UNL     1      44.213 -16.893   6.401  1.00  0.00     0.001 A 
HETATM   11  C   UNL     1      43.925 -15.614   5.906  1.00  0.00     0.013 A 
HETATM   12  O   UNL     1      42.216 -12.926   2.011  1.00  0.00    -0.275 OA
HETATM   13  C   UNL     1      42.466 -11.687   2.547  1.00  0.00     0.288 C 
HETATM   14  O   UNL     1      42.376 -10.653   1.896  1.00  0.00    -0.260 OA
HETATM   15  C   UNL     1      42.785 -11.661   3.974  1.00  0.00     0.091 C 
ENDROOT
BRANCH   1  16
HETATM   16  C   UNL     1      43.165 -12.644   6.241  1.00  0.00     0.122 C 
BRANCH  16  17
HETATM   17  S   UNL     1      44.788 -12.051   6.810  1.00  0.00    -0.085 SA
BRANCH  17  18
HETATM   18  C   UNL     1      44.251 -10.832   7.987  1.00  0.00     0.190 A 
HETATM   19  N   UNL     1      44.186 -11.230   9.268  1.00  0.00    -0.228 NA
HETATM   20  C   UNL     1      43.764 -10.319  10.166  1.00  0.00     0.036 A 
HETATM   21  C   UNL     1      43.672 -10.751  11.598  1.00  0.00     0.070 C 
HETATM   22  C   UNL     1      43.426  -9.033   9.802  1.00  0.00     0.071 A 
HETATM   23  C   UNL     1      43.548  -8.718   8.468  1.00  0.00     0.105 A 
HETATM   24  N   UNL     1      43.946  -9.601   7.547  1.00  0.00    -0.211 NA
BRANCH  23  25
HETATM   25  N   UNL     1      43.204  -7.448   8.008  1.00  0.00    -0.287 NA
HETATM   26  H   UNL     1      42.901  -6.897   8.806  1.00  0.00     0.125 HD
HETATM   27  H   UNL     1      42.492  -7.485   7.286  1.00  0.00     0.125 HD
ENDBRANCH  23  25
ENDBRANCH  17  18
ENDBRANCH  16  17
ENDBRANCH   1  16
TORSDOF 4
ENDMDL
MODEL 7
REMARK VINA RESULT:      -8.1      3.040      3.990
REMARK  4 active torsions:
REMARK  status: ('A' for Active; 'I' for Inactive)
REMARK    1  A    between atoms: C_4  and  S_5 
REMARK    2  A    between atoms: S_5  and  C_6 
REMARK    3  A    between atoms: C_6  and  C_7 
REMARK    4  A    between atoms: C_23  and  N_24 
ROOT
HETATM    1  C   UNL     1      43.213 -16.138   4.512  1.00  0.00    -0.029 C 
HETATM    2  C   UNL     1      43.389 -17.608   4.779  1.00  0.00     0.016 A 
HETATM    3  C   UNL     1      43.489 -17.968   6.137  1.00  0.00     0.091 A 
HETATM    4  C   UNL     1      43.764 -19.262   6.569  1.00  0.00     0.039 A 
HETATM    5  C   UNL     1      43.938 -20.264   5.634  1.00  0.00     0.015 A 
HETATM    6  C   UNL     1      43.794 -19.996   4.272  1.00  0.00    -0.025 A 
HETATM    7  C   UNL     1      43.487 -18.679   3.807  1.00  0.00    -0.012 A 
HETATM    8  C   UNL     1      43.946 -21.075   3.382  1.00  0.00     0.012 A 
HETATM    9  C   UNL     1      43.778 -20.913   2.014  1.00  0.00     0.001 A 
HETATM   10  C   UNL     1      43.431 -19.669   1.523  1.00  0.00     0.001 A 
HETATM   11  C   UNL     1      43.279 -18.587   2.401  1.00  0.00     0.013 A 
HETATM   12  O   UNL     1      43.283 -17.061   7.195  1.00  0.00    -0.275 OA
HETATM   13  C   UNL     1      42.891 -15.767   6.954  1.00  0.00     0.288 C 
HETATM   14  O   UNL     1      42.570 -14.994   7.849  1.00  0.00    -0.260 OA
HETATM   15  C   UNL     1      42.940 -15.335   5.558  1.00  0.00     0.091 C 
ENDROOT
BRANCH   1  16
HETATM   16  C   UNL     1      43.377 -15.588   3.110  1.00  0.00     0.122 C 
BRANCH  16  17
HETATM   17  S   UNL     1      41.853 -15.337   2.150  1.00  0.00    -0.085 SA
BRANCH  17  18
HETATM   18  C   UNL     1      41.459 -13.681   2.662  1.00  0.00     0.190 A 
HETATM   19  N   UNL     1      40.632 -13.564   3.713  1.00  0.00    -0.228 NA
HETATM   20  C   UNL     1      40.313 -12.314   4.099  1.00  0.00     0.036 A 
HETATM   21  C   UNL     1      39.379 -12.165   5.261  1.00  0.00     0.070 C 
HETATM   22  C   UNL     1      40.818 -11.200   3.462  1.00  0.00     0.071 A 
HETATM   23  C   UNL     1      41.675 -11.427   2.410  1.00  0.00     0.105 A 
HETATM   24  N   UNL     1      41.999 -12.652   1.988  1.00  0.00    -0.211 NA
BRANCH  23  25
HETATM   25  N   UNL     1      42.212 -10.358   1.693  1.00  0.00    -0.287 NA
HETATM   26  H   UNL     1      41.458  -9.918   1.173  1.00  0.00     0.125 HD
HETATM   27  H   UNL     1      42.967 -10.651   1.083  1.00  0.00     0.125 HD
ENDBRANCH  23  25
ENDBRANCH  17  18
ENDBRANCH  16  17
ENDBRANCH   1  16
TORSDOF 4
ENDMDL
MODEL 8
REMARK VINA RESULT:      -8.1      4.563      7.318
REMARK  4 active torsions:
REMARK  status: ('A' for Active; 'I' for Inactive)
REMARK    1  A    between atoms: C_4  and  S_5 
REMARK    2  A    between atoms: S_5  and  C_6 
REMARK    3  A    between atoms: C_6  and  C_7 
REMARK    4  A    between atoms: C_23  and  N_24 
ROOT
HETATM    1  C   UNL     1      42.529 -14.613   6.018  1.00  0.00    -0.029 C 
HETATM    2  C   UNL     1      42.366 -15.501   4.814  1.00  0.00     0.016 A 
HETATM    3  C   UNL     1      43.108 -16.698   4.841  1.00  0.00     0.091 A 
HETATM    4  C   UNL     1      43.168 -17.587   3.772  1.00  0.00     0.039 A 
HETATM    5  C   UNL     1      42.460 -17.306   2.619  1.00  0.00     0.015 A 
HETATM    6  C   UNL     1      41.655 -16.169   2.540  1.00  0.00    -0.025 A 
HETATM    7  C   UNL     1      41.559 -15.255   3.636  1.00  0.00    -0.012 A 
HETATM    8  C   UNL     1      40.933 -15.971   1.350  1.00  0.00     0.012 A 
HETATM    9  C   UNL     1      40.073 -14.892   1.196  1.00  0.00     0.001 A 
HETATM   10  C   UNL     1      39.910 -14.010   2.247  1.00  0.00     0.001 A 
HETATM   11  C   UNL     1      40.625 -14.197   3.437  1.00  0.00     0.013 A 
HETATM   12  O   UNL     1      43.832 -17.135   5.968  1.00  0.00    -0.275 OA
HETATM   13  C   UNL     1      43.791 -16.438   7.151  1.00  0.00     0.288 C 
HETATM   14  O   UNL     1      44.294 -16.859   8.185  1.00  0.00    -0.260 OA
HETATM   15  C   UNL     1      43.164 -15.118   7.093  1.00  0.00     0.091 C 
ENDROOT
BRANCH   1  16
HETATM   16  C   UNL     1      42.023 -13.186   5.993  1.00  0.00     0.122 C 
BRANCH  16  17
HETATM   17  S   UNL     1      43.029 -11.982   5.072  1.00  0.00    -0.085 SA
BRANCH  17  18
HETATM   18  C   UNL     1      43.972 -11.306   6.419  1.00  0.00     0.190 A 
HETATM   19  N   UNL     1      43.271 -10.871   7.478  1.00  0.00    -0.228 NA
HETATM   20  C   UNL     1      43.974 -10.341   8.497  1.00  0.00     0.036 A 
HETATM   21  C   UNL     1      43.205  -9.837   9.680  1.00  0.00     0.070 C 
HETATM   22  C   UNL     1      45.350 -10.258   8.471  1.00  0.00     0.071 A 
HETATM   23  C   UNL     1      45.977 -10.752   7.351  1.00  0.00     0.105 A 
HETATM   24  N   UNL     1      45.310 -11.267   6.314  1.00  0.00    -0.211 NA
BRANCH  23  25
HETATM   25  N   UNL     1      47.364 -10.685   7.230  1.00  0.00    -0.287 NA
HETATM   26  H   UNL     1      47.771 -11.027   8.096  1.00  0.00     0.125 HD
HETATM   27  H   UNL     1      47.682  -9.747   7.011  1.00  0.00     0.125 HD
ENDBRANCH  23  25
ENDBRANCH  17  18
ENDBRANCH  16  17
ENDBRANCH   1  16
TORSDOF 4
ENDMDL
MODEL 9
REMARK VINA RESULT:      -8.0      9.111     11.296
REMARK  4 active torsions:
REMARK  status: ('A' for Active; 'I' for Inactive)
REMARK    1  A    between atoms: C_4  and  S_5 
REMARK    2  A    between atoms: S_5  and  C_6 
REMARK    3  A    between atoms: C_6  and  C_7 
REMARK    4  A    between atoms: C_23  and  N_24 
ROOT
HETATM    1  C   UNL     1      43.942  -8.245   9.298  1.00  0.00    -0.029 C 
HETATM    2  C   UNL     1      43.635  -8.921  10.607  1.00  0.00     0.016 A 
HETATM    3  C   UNL     1      43.980 -10.285  10.679  1.00  0.00     0.091 A 
HETATM    4  C   UNL     1      43.672 -11.098  11.766  1.00  0.00     0.039 A 
HETATM    5  C   UNL     1      43.005 -10.555  12.847  1.00  0.00     0.015 A 
HETATM    6  C   UNL     1      42.683  -9.197  12.874  1.00  0.00    -0.025 A 
HETATM    7  C   UNL     1      43.013  -8.339  11.779  1.00  0.00    -0.012 A 
HETATM    8  C   UNL     1      42.041  -8.709  14.026  1.00  0.00     0.012 A 
HETATM    9  C   UNL     1      41.721  -7.365  14.161  1.00  0.00     0.001 A 
HETATM   10  C   UNL     1      42.065  -6.489  13.150  1.00  0.00     0.001 A 
HETATM   11  C   UNL     1      42.705  -6.965  11.998  1.00  0.00     0.013 A 
HETATM   12  O   UNL     1      44.706 -10.954   9.673  1.00  0.00    -0.275 OA
HETATM   13  C   UNL     1      45.192 -10.278   8.581  1.00  0.00     0.288 C 
HETATM   14  O   UNL     1      45.940 -10.795   7.760  1.00  0.00    -0.260 OA
HETATM   15  C   UNL     1      44.707  -8.909   8.410  1.00  0.00     0.091 C 
ENDROOT
BRANCH   1  16
HETATM   16  C   UNL     1      43.370  -6.877   8.988  1.00  0.00     0.122 C 
BRANCH  16  17
HETATM   17  S   UNL     1      42.064  -6.810   7.723  1.00  0.00    -0.085 SA
BRANCH  17  18
HETATM   18  C   UNL     1      40.840  -7.823   8.519  1.00  0.00     0.190 A 
HETATM   19  N   UNL     1      40.352  -7.364   9.682  1.00  0.00    -0.228 NA
HETATM   20  C   UNL     1      39.436  -8.132  10.303  1.00  0.00     0.036 A 
HETATM   21  C   UNL     1      38.891  -7.641  11.609  1.00  0.00     0.070 C 
HETATM   22  C   UNL     1      39.003  -9.328   9.772  1.00  0.00     0.071 A 
HETATM   23  C   UNL     1      39.549  -9.700   8.565  1.00  0.00     0.105 A 
HETATM   24  N   UNL     1      40.472  -8.972   7.930  1.00  0.00    -0.211 NA
BRANCH  23  25
HETATM   25  N   UNL     1      39.186 -10.907   7.968  1.00  0.00    -0.287 NA
HETATM   26  H   UNL     1      38.609 -10.696   7.159  1.00  0.00     0.125 HD
HETATM   27  H   UNL     1      38.711 -11.525   8.617  1.00  0.00     0.125 HD
ENDBRANCH  23  25
ENDBRANCH  17  18
ENDBRANCH  16  17
ENDBRANCH   1  16
TORSDOF 4
ENDMDL
MODEL 10
REMARK VINA RESULT:      -7.9     14.947     16.481
REMARK  4 active torsions:
REMARK  status: ('A' for Active; 'I' for Inactive)
REMARK    1  A    between atoms: C_4  and  S_5 
REMARK    2  A    between atoms: S_5  and  C_6 
REMARK    3  A    between atoms: C_6  and  C_7 
REMARK    4  A    between atoms: C_23  and  N_24 
ROOT
HETATM    1  C   UNL     1      44.823 -30.153   1.484  1.00  0.00    -0.029 C 
HETATM    2  C   UNL     1      45.583 -29.405   0.423  1.00  0.00     0.016 A 
HETATM    3  C   UNL     1      46.760 -28.765   0.859  1.00  0.00     0.091 A 
HETATM    4  C   UNL     1      47.531 -27.939   0.046  1.00  0.00     0.039 A 
HETATM    5  C   UNL     1      47.147 -27.733  -1.265  1.00  0.00     0.015 A 
HETATM    6  C   UNL     1      46.026 -28.381  -1.786  1.00  0.00    -0.025 A 
HETATM    7  C   UNL     1      45.234 -29.254  -0.976  1.00  0.00    -0.012 A 
HETATM    8  C   UNL     1      45.721 -28.153  -3.140  1.00  0.00     0.012 A 
HETATM    9  C   UNL     1      44.651 -28.787  -3.758  1.00  0.00     0.001 A 
HETATM   10  C   UNL     1      43.888 -29.678  -3.027  1.00  0.00     0.001 A 
HETATM   11  C   UNL     1      44.183 -29.911  -1.677  1.00  0.00     0.013 A 
HETATM   12  O   UNL     1      47.295 -28.928   2.152  1.00  0.00    -0.275 OA
HETATM   13  C   UNL     1      46.728 -29.798   3.050  1.00  0.00     0.288 C 
HETATM   14  O   UNL     1      47.243 -30.067   4.128  1.00  0.00    -0.260 OA
HETATM   15  C   UNL     1      45.423 -30.343   2.674  1.00  0.00     0.091 C 
ENDROOT
BRANCH   1  16
HETATM   16  C   UNL     1      43.412 -30.638   1.219  1.00  0.00     0.122 C 
BRANCH  16  17
HETATM   17  S   UNL     1      42.062 -29.568   1.802  1.00  0.00    -0.085 SA
BRANCH  17  18
HETATM   18  C   UNL     1      41.448 -30.579   3.130  1.00  0.00     0.190 A 
HETATM   19  N   UNL     1      40.492 -31.465   2.809  1.00  0.00    -0.228 NA
HETATM   20  C   UNL     1      40.007 -32.224   3.810  1.00  0.00     0.036 A 
HETATM   21  C   UNL     1      38.929 -33.208   3.473  1.00  0.00     0.070 C 
HETATM   22  C   UNL     1      40.472 -32.115   5.104  1.00  0.00     0.071 A 
HETATM   23  C   UNL     1      41.469 -31.192   5.324  1.00  0.00     0.105 A 
HETATM   24  N   UNL     1      41.961 -30.410   4.359  1.00  0.00    -0.211 NA
BRANCH  23  25
HETATM   25  N   UNL     1      41.981 -30.999   6.606  1.00  0.00    -0.287 NA
HETATM   26  H   UNL     1      42.731 -30.317   6.545  1.00  0.00     0.125 HD
HETATM   27  H   UNL     1      42.297 -31.867   7.024  1.00  0.00     0.125 HD
ENDBRANCH  23  25
ENDBRANCH  17  18
ENDBRANCH  16  17
ENDBRANCH   1  16
TORSDOF 4
ENDMDL
