MODEL 1
REMARK VINA RESULT:     -10.3      0.000      0.000
REMARK  6 active torsions:
REMARK  status: ('A' for Active; 'I' for Inactive)
REMARK    1  A    between atoms: C_5  and  C_6 
REMARK    2  A    between atoms: C_12  and  C_13 
REMARK       I    between atoms: C_13  and  N_14 
REMARK    3  A    between atoms: N_14  and  C_15 
REMARK    4  A    between atoms: C_18  and  C_19 
REMARK    5  A    between atoms: C_19  and  O_20 
REMARK    6  A    between atoms: C_25  and  C_26 
ROOT
HETATM    1  C   UNL     1      42.384 -15.856   2.789  1.00  0.00     0.097 C 
HETATM    2  N   UNL     1      43.094 -14.631   3.222  1.00  0.00    -0.268 NA
HETATM    3  C   UNL     1      42.652 -13.436   2.724  1.00  0.00     0.118 A 
HETATM    4  N   UNL     1      41.847 -13.397   1.606  1.00  0.00    -0.245 N 
HETATM    5  N   UNL     1      41.573 -12.160   1.172  1.00  0.00    -0.182 NA
HETATM    6  C   UNL     1      42.161 -11.381   2.083  1.00  0.00     0.159 A 
HETATM    7  C   UNL     1      42.871 -12.114   3.070  1.00  0.00     0.091 A 
HETATM    8  C   UNL     1      41.452 -14.553   0.824  1.00  0.00     0.221 C 
HETATM    9  C   UNL     1      42.251 -15.799   1.256  1.00  0.00     0.061 C 
HETATM   10  H   UNL     1      44.107 -14.776   3.204  1.00  0.00     0.130 HD
ENDROOT
BRANCH   7  11
HETATM   11  C   UNL     1      43.638 -11.515   4.152  1.00  0.00     0.261 C 
HETATM   12  N   UNL     1      42.914 -11.272   5.304  1.00  0.00    -0.323 N 
HETATM   13  H   UNL     1      41.918 -11.443   5.234  1.00  0.00     0.169 HD
HETATM   14  O   UNL     1      44.834 -11.296   4.000  1.00  0.00    -0.267 OA
BRANCH  12  15
HETATM   15  C   UNL     1      43.424 -10.902   6.567  1.00  0.00     0.035 A 
HETATM   16  C   UNL     1      44.625 -11.380   7.092  1.00  0.00     0.030 A 
HETATM   17  C   UNL     1      45.035 -11.036   8.387  1.00  0.00     0.012 A 
HETATM   18  C   UNL     1      44.247 -10.209   9.195  1.00  0.00    -0.030 A 
HETATM   19  C   UNL     1      43.056  -9.703   8.648  1.00  0.00     0.012 A 
HETATM   20  C   UNL     1      42.652 -10.040   7.350  1.00  0.00     0.030 A 
BRANCH  18  21
HETATM   21  C   UNL     1      44.615  -9.840  10.618  1.00  0.00     0.147 C 
HETATM   22  C   UNL     1      43.711  -8.826  11.314  1.00  0.00     0.044 C 
BRANCH  21  23
HETATM   23  O   UNL     1      44.637 -11.021  11.422  1.00  0.00    -0.391 OA
HETATM   24  H   UNL     1      44.033 -10.874  12.170  1.00  0.00     0.210 HD
ENDBRANCH  21  23
ENDBRANCH  18  21
ENDBRANCH  12  15
ENDBRANCH   7  11
BRANCH   1  25
HETATM   25  C   UNL     1      43.059 -17.097   3.361  1.00  0.00    -0.040 A 
HETATM   26  C   UNL     1      43.310 -17.172   4.743  1.00  0.00     0.009 A 
HETATM   27  C   UNL     1      43.821 -18.335   5.328  1.00  0.00     0.007 A 
HETATM   28  C   UNL     1      44.085 -19.464   4.548  1.00  0.00    -0.062 A 
HETATM   29  C   UNL     1      44.553 -20.738   5.186  1.00  0.00     0.048 C 
HETATM   30  C   UNL     1      43.826 -19.408   3.177  1.00  0.00     0.007 A 
HETATM   31  C   UNL     1      43.325 -18.241   2.591  1.00  0.00     0.009 A 
ENDBRANCH   1  25
BRANCH   8  32
HETATM   32  C   UNL     1      39.958 -14.775   0.932  1.00  0.00     0.409 C 
HETATM   33  F   UNL     1      39.426 -14.293   2.073  1.00  0.00    -0.169 F 
HETATM   34  F   UNL     1      39.329 -14.128  -0.085  1.00  0.00    -0.169 F 
HETATM   35  F   UNL     1      39.615 -16.077   0.827  1.00  0.00    -0.169 F 
ENDBRANCH   8  32
TORSDOF 6
ENDMDL
MODEL 2
REMARK VINA RESULT:      -9.8      1.495      2.122
REMARK  6 active torsions:
REMARK  status: ('A' for Active; 'I' for Inactive)
REMARK    1  A    between atoms: C_5  and  C_6 
REMARK    2  A    between atoms: C_12  and  C_13 
REMARK       I    between atoms: C_13  and  N_14 
REMARK    3  A    between atoms: N_14  and  C_15 
REMARK    4  A    between atoms: C_18  and  C_19 
REMARK    5  A    between atoms: C_19  and  O_20 
REMARK    6  A    between atoms: C_25  and  C_26 
ROOT
HETATM    1  C   UNL     1      42.821 -15.542   3.591  1.00  0.00     0.097 C 
HETATM    2  N   UNL     1      43.333 -14.567   4.581  1.00  0.00    -0.268 NA
HETATM    3  C   UNL     1      43.197 -13.238   4.286  1.00  0.00     0.118 A 
HETATM    4  N   UNL     1      42.945 -12.829   2.995  1.00  0.00    -0.245 N 
HETATM    5  N   UNL     1      42.935 -11.499   2.835  1.00  0.00    -0.182 NA
HETATM    6  C   UNL     1      43.114 -11.042   4.076  1.00  0.00     0.159 A 
HETATM    7  C   UNL     1      43.306 -12.076   5.029  1.00  0.00     0.091 A 
HETATM    8  C   UNL     1      42.869 -13.707   1.843  1.00  0.00     0.221 C 
HETATM    9  C   UNL     1      43.354 -15.124   2.208  1.00  0.00     0.061 C 
HETATM   10  H   UNL     1      44.252 -14.856   4.930  1.00  0.00     0.130 HD
ENDROOT
BRANCH   7  11
HETATM   11  C   UNL     1      43.567 -11.857   6.445  1.00  0.00     0.261 C 
HETATM   12  N   UNL     1      43.644 -10.529   6.816  1.00  0.00    -0.323 N 
HETATM   13  H   UNL     1      43.610  -9.863   6.053  1.00  0.00     0.169 HD
HETATM   14  O   UNL     1      43.671 -12.818   7.200  1.00  0.00    -0.267 OA
BRANCH  12  15
HETATM   15  C   UNL     1      43.674 -10.013   8.129  1.00  0.00     0.035 A 
HETATM   16  C   UNL     1      44.788 -10.080   8.967  1.00  0.00     0.030 A 
HETATM   17  C   UNL     1      44.727  -9.621  10.288  1.00  0.00     0.012 A 
HETATM   18  C   UNL     1      43.544  -9.087  10.810  1.00  0.00    -0.030 A 
HETATM   19  C   UNL     1      42.437  -8.988   9.952  1.00  0.00     0.012 A 
HETATM   20  C   UNL     1      42.501  -9.440   8.628  1.00  0.00     0.030 A 
BRANCH  18  21
HETATM   21  C   UNL     1      43.404  -8.616  12.245  1.00  0.00     0.147 C 
HETATM   22  C   UNL     1      42.639  -7.314  12.462  1.00  0.00     0.044 C 
BRANCH  21  23
HETATM   23  O   UNL     1      42.756  -9.630  13.013  1.00  0.00    -0.391 OA
HETATM   24  H   UNL     1      43.412  -9.985  13.638  1.00  0.00     0.210 HD
ENDBRANCH  21  23
ENDBRANCH  18  21
ENDBRANCH  12  15
ENDBRANCH   7  11
BRANCH   1  25
HETATM   25  C   UNL     1      43.135 -16.967   4.031  1.00  0.00    -0.040 A 
HETATM   26  C   UNL     1      43.510 -17.920   3.067  1.00  0.00     0.009 A 
HETATM   27  C   UNL     1      43.918 -19.206   3.435  1.00  0.00     0.007 A 
HETATM   28  C   UNL     1      43.976 -19.574   4.781  1.00  0.00    -0.062 A 
HETATM   29  C   UNL     1      44.494 -20.923   5.182  1.00  0.00     0.048 C 
HETATM   30  C   UNL     1      43.621 -18.632   5.750  1.00  0.00     0.007 A 
HETATM   31  C   UNL     1      43.203 -17.350   5.381  1.00  0.00     0.009 A 
ENDBRANCH   1  25
BRANCH   8  32
HETATM   32  C   UNL     1      41.462 -13.719   1.283  1.00  0.00     0.409 C 
HETATM   33  F   UNL     1      41.257 -12.789   0.329  1.00  0.00    -0.169 F 
HETATM   34  F   UNL     1      41.215 -14.923   0.701  1.00  0.00    -0.169 F 
HETATM   35  F   UNL     1      40.519 -13.556   2.236  1.00  0.00    -0.169 F 
ENDBRANCH   8  32
TORSDOF 6
ENDMDL
MODEL 3
REMARK VINA RESULT:      -9.5      3.945      7.908
REMARK  6 active torsions:
REMARK  status: ('A' for Active; 'I' for Inactive)
REMARK    1  A    between atoms: C_5  and  C_6 
REMARK    2  A    between atoms: C_12  and  C_13 
REMARK       I    between atoms: C_13  and  N_14 
REMARK    3  A    between atoms: N_14  and  C_15 
REMARK    4  A    between atoms: C_18  and  C_19 
REMARK    5  A    between atoms: C_19  and  O_20 
REMARK    6  A    between atoms: C_25  and  C_26 
ROOT
HETATM    1  C   UNL     1      42.944 -15.041   4.526  1.00  0.00     0.097 C 
HETATM    2  N   UNL     1      41.748 -14.408   3.923  1.00  0.00    -0.268 NA
HETATM    3  C   UNL     1      41.321 -13.226   4.462  1.00  0.00     0.118 A 
HETATM    4  N   UNL     1      41.739 -12.835   5.716  1.00  0.00    -0.245 N 
HETATM    5  N   UNL     1      41.166 -11.708   6.157  1.00  0.00    -0.182 NA
HETATM    6  C   UNL     1      40.412 -11.326   5.124  1.00  0.00     0.159 A 
HETATM    7  C   UNL     1      40.446 -12.241   4.039  1.00  0.00     0.091 A 
HETATM    8  C   UNL     1      42.582 -13.623   6.595  1.00  0.00     0.221 C 
HETATM    9  C   UNL     1      42.742 -15.057   6.053  1.00  0.00     0.061 C 
HETATM   10  H   UNL     1      41.022 -15.107   3.745  1.00  0.00     0.130 HD
ENDROOT
BRANCH   7  11
HETATM   11  C   UNL     1      39.682 -12.093   2.809  1.00  0.00     0.261 C 
HETATM   12  N   UNL     1      40.350 -12.492   1.667  1.00  0.00    -0.323 N 
HETATM   13  H   UNL     1      41.322 -12.746   1.800  1.00  0.00     0.169 HD
HETATM   14  O   UNL     1      38.533 -11.669   2.854  1.00  0.00    -0.267 OA
BRANCH  12  15
HETATM   15  C   UNL     1      39.802 -12.663   0.377  1.00  0.00     0.035 A 
HETATM   16  C   UNL     1      39.172 -11.647  -0.342  1.00  0.00     0.030 A 
HETATM   17  C   UNL     1      38.578 -11.902  -1.584  1.00  0.00     0.012 A 
HETATM   18  C   UNL     1      38.593 -13.187  -2.138  1.00  0.00    -0.030 A 
HETATM   19  C   UNL     1      39.260 -14.198  -1.426  1.00  0.00     0.012 A 
HETATM   20  C   UNL     1      39.862 -13.939  -0.188  1.00  0.00     0.030 A 
BRANCH  18  21
HETATM   21  C   UNL     1      37.928 -13.534  -3.456  1.00  0.00     0.147 C 
HETATM   22  C   UNL     1      38.011 -14.993  -3.896  1.00  0.00     0.044 C 
BRANCH  21  23
HETATM   23  O   UNL     1      36.546 -13.181  -3.394  1.00  0.00    -0.391 OA
HETATM   24  H   UNL     1      36.047 -13.880  -3.850  1.00  0.00     0.210 HD
ENDBRANCH  21  23
ENDBRANCH  18  21
ENDBRANCH  12  15
ENDBRANCH   7  11
BRANCH   1  25
HETATM   25  C   UNL     1      43.225 -16.387   3.870  1.00  0.00    -0.040 A 
HETATM   26  C   UNL     1      43.991 -17.345   4.560  1.00  0.00     0.009 A 
HETATM   27  C   UNL     1      44.178 -18.633   4.049  1.00  0.00     0.007 A 
HETATM   28  C   UNL     1      43.592 -19.007   2.837  1.00  0.00    -0.062 A 
HETATM   29  C   UNL     1      43.721 -20.413   2.330  1.00  0.00     0.048 C 
HETATM   30  C   UNL     1      42.816 -18.071   2.149  1.00  0.00     0.007 A 
HETATM   31  C   UNL     1      42.639 -16.780   2.656  1.00  0.00     0.009 A 
ENDBRANCH   1  25
BRANCH   8  32
HETATM   32  C   UNL     1      43.919 -12.941   6.793  1.00  0.00     0.409 C 
HETATM   33  F   UNL     1      44.956 -13.801   6.852  1.00  0.00    -0.169 F 
HETATM   34  F   UNL     1      44.169 -12.117   5.739  1.00  0.00    -0.169 F 
HETATM   35  F   UNL     1      43.953 -12.167   7.899  1.00  0.00    -0.169 F 
ENDBRANCH   8  32
TORSDOF 6
ENDMDL
MODEL 4
REMARK VINA RESULT:      -9.0      1.360      1.856
REMARK  6 active torsions:
REMARK  status: ('A' for Active; 'I' for Inactive)
REMARK    1  A    between atoms: C_5  and  C_6 
REMARK    2  A    between atoms: C_12  and  C_13 
REMARK       I    between atoms: C_13  and  N_14 
REMARK    3  A    between atoms: N_14  and  C_15 
REMARK    4  A    between atoms: C_18  and  C_19 
REMARK    5  A    between atoms: C_19  and  O_20 
REMARK    6  A    between atoms: C_25  and  C_26 
ROOT
HETATM    1  C   UNL     1      42.494 -15.567   3.129  1.00  0.00     0.097 C 
HETATM    2  N   UNL     1      42.915 -14.457   4.014  1.00  0.00    -0.268 NA
HETATM    3  C   UNL     1      42.504 -13.196   3.683  1.00  0.00     0.118 A 
HETATM    4  N   UNL     1      42.046 -12.917   2.413  1.00  0.00    -0.245 N 
HETATM    5  N   UNL     1      41.771 -11.624   2.202  1.00  0.00    -0.182 NA
HETATM    6  C   UNL     1      41.990 -11.068   3.395  1.00  0.00     0.159 A 
HETATM    7  C   UNL     1      42.470 -11.990   4.362  1.00  0.00     0.091 A 
HETATM    8  C   UNL     1      42.016 -13.863   1.314  1.00  0.00     0.221 C 
HETATM    9  C   UNL     1      42.793 -15.144   1.678  1.00  0.00     0.061 C 
HETATM   10  H   UNL     1      43.903 -14.554   4.268  1.00  0.00     0.130 HD
ENDROOT
BRANCH   7  11
HETATM   11  C   UNL     1      42.831 -11.642   5.728  1.00  0.00     0.261 C 
HETATM   12  N   UNL     1      42.588 -10.326   6.069  1.00  0.00    -0.323 N 
HETATM   13  H   UNL     1      42.283  -9.730   5.308  1.00  0.00     0.169 HD
HETATM   14  O   UNL     1      43.283 -12.503   6.476  1.00  0.00    -0.267 OA
BRANCH  12  15
HETATM   15  C   UNL     1      42.636  -9.759   7.361  1.00  0.00     0.035 A 
HETATM   16  C   UNL     1      41.513  -9.549   8.162  1.00  0.00     0.030 A 
HETATM   17  C   UNL     1      41.620  -8.907   9.402  1.00  0.00     0.012 A 
HETATM   18  C   UNL     1      42.855  -8.450   9.871  1.00  0.00    -0.030 A 
HETATM   19  C   UNL     1      43.988  -8.695   9.077  1.00  0.00     0.012 A 
HETATM   20  C   UNL     1      43.882  -9.345   7.841  1.00  0.00     0.030 A 
BRANCH  18  21
HETATM   21  C   UNL     1      43.026  -7.708  11.183  1.00  0.00     0.147 C 
HETATM   22  C   UNL     1      42.266  -6.393  11.325  1.00  0.00     0.044 C 
BRANCH  21  23
HETATM   23  O   UNL     1      42.626  -8.557  12.260  1.00  0.00    -0.391 OA
HETATM   24  H   UNL     1      43.244  -9.307  12.284  1.00  0.00     0.210 HD
ENDBRANCH  21  23
ENDBRANCH  18  21
ENDBRANCH  12  15
ENDBRANCH   7  11
BRANCH   1  25
HETATM   25  C   UNL     1      43.113 -16.882   3.587  1.00  0.00    -0.040 A 
HETATM   26  C   UNL     1      43.303 -17.114   4.961  1.00  0.00     0.009 A 
HETATM   27  C   UNL     1      43.760 -18.348   5.435  1.00  0.00     0.007 A 
HETATM   28  C   UNL     1      44.028 -19.393   4.548  1.00  0.00    -0.062 A 
HETATM   29  C   UNL     1      44.436 -20.742   5.060  1.00  0.00     0.048 C 
HETATM   30  C   UNL     1      43.829 -19.182   3.181  1.00  0.00     0.007 A 
HETATM   31  C   UNL     1      43.383 -17.943   2.708  1.00  0.00     0.009 A 
ENDBRANCH   1  25
BRANCH   8  32
HETATM   32  C   UNL     1      40.586 -14.164   0.918  1.00  0.00     0.409 C 
HETATM   33  F   UNL     1      40.125 -13.371  -0.071  1.00  0.00    -0.169 F 
HETATM   34  F   UNL     1      40.502 -15.440   0.454  1.00  0.00    -0.169 F 
HETATM   35  F   UNL     1      39.727 -14.078   1.957  1.00  0.00    -0.169 F 
ENDBRANCH   8  32
TORSDOF 6
ENDMDL
MODEL 5
REMARK VINA RESULT:      -9.0      4.364      7.756
REMARK  6 active torsions:
REMARK  status: ('A' for Active; 'I' for Inactive)
REMARK    1  A    between atoms: C_5  and  C_6 
REMARK    2  A    between atoms: C_12  and  C_13 
REMARK       I    between atoms: C_13  and  N_14 
REMARK    3  A    between atoms: N_14  and  C_15 
REMARK    4  A    between atoms: C_18  and  C_19 
REMARK    5  A    between atoms: C_19  and  O_20 
REMARK    6  A    between atoms: C_25  and  C_26 
ROOT
HETATM    1  C   UNL     1      43.126 -14.168   4.225  1.00  0.00     0.097 C 
HETATM    2  N   UNL     1      42.396 -13.298   3.274  1.00  0.00    -0.268 NA
HETATM    3  C   UNL     1      42.260 -11.978   3.604  1.00  0.00     0.118 A 
HETATM    4  N   UNL     1      42.454 -11.555   4.901  1.00  0.00    -0.245 N 
HETATM    5  N   UNL     1      42.191 -10.257   5.099  1.00  0.00    -0.182 NA
HETATM    6  C   UNL     1      41.889  -9.818   3.875  1.00  0.00     0.159 A 
HETATM    7  C   UNL     1      41.892 -10.847   2.896  1.00  0.00     0.091 A 
HETATM    8  C   UNL     1      42.742 -12.425   6.025  1.00  0.00     0.221 C 
HETATM    9  C   UNL     1      42.554 -13.903   5.631  1.00  0.00     0.061 C 
HETATM   10  H   UNL     1      41.550 -13.765   2.936  1.00  0.00     0.130 HD
ENDROOT
BRANCH   7  11
HETATM   11  C   UNL     1      41.555 -10.654   1.493  1.00  0.00     0.261 C 
HETATM   12  N   UNL     1      41.498  -9.333   1.092  1.00  0.00    -0.323 N 
HETATM   13  H   UNL     1      41.598  -8.650   1.835  1.00  0.00     0.169 HD
HETATM   14  O   UNL     1      41.376 -11.629   0.772  1.00  0.00    -0.267 OA
BRANCH  12  15
HETATM   15  C   UNL     1      41.406  -8.849  -0.230  1.00  0.00     0.035 A 
HETATM   16  C   UNL     1      40.247  -8.915  -1.004  1.00  0.00     0.030 A 
HETATM   17  C   UNL     1      40.245  -8.489  -2.339  1.00  0.00     0.012 A 
HETATM   18  C   UNL     1      41.408  -7.991  -2.937  1.00  0.00    -0.030 A 
HETATM   19  C   UNL     1      42.562  -7.894  -2.142  1.00  0.00     0.012 A 
HETATM   20  C   UNL     1      42.561  -8.312  -0.805  1.00  0.00     0.030 A 
BRANCH  18  21
HETATM   21  C   UNL     1      41.479  -7.558  -4.388  1.00  0.00     0.147 C 
HETATM   22  C   UNL     1      42.803  -6.961  -4.857  1.00  0.00     0.044 C 
BRANCH  21  23
HETATM   23  O   UNL     1      41.188  -8.676  -5.229  1.00  0.00    -0.391 OA
HETATM   24  H   UNL     1      40.811  -8.328  -6.055  1.00  0.00     0.210 HD
ENDBRANCH  21  23
ENDBRANCH  18  21
ENDBRANCH  12  15
ENDBRANCH   7  11
BRANCH   1  25
HETATM   25  C   UNL     1      43.104 -15.616   3.752  1.00  0.00    -0.040 A 
HETATM   26  C   UNL     1      42.883 -15.895   2.390  1.00  0.00     0.009 A 
HETATM   27  C   UNL     1      42.968 -17.198   1.891  1.00  0.00     0.007 A 
HETATM   28  C   UNL     1      43.291 -18.262   2.737  1.00  0.00    -0.062 A 
HETATM   29  C   UNL     1      43.466 -19.646   2.188  1.00  0.00     0.048 C 
HETATM   30  C   UNL     1      43.528 -17.998   4.088  1.00  0.00     0.007 A 
HETATM   31  C   UNL     1      43.431 -16.695   4.589  1.00  0.00     0.009 A 
ENDBRANCH   1  25
BRANCH   8  32
HETATM   32  C   UNL     1      44.135 -12.156   6.556  1.00  0.00     0.409 C 
HETATM   33  F   UNL     1      44.143 -11.451   7.705  1.00  0.00    -0.169 F 
HETATM   34  F   UNL     1      44.753 -13.336   6.829  1.00  0.00    -0.169 F 
HETATM   35  F   UNL     1      44.918 -11.512   5.664  1.00  0.00    -0.169 F 
ENDBRANCH   8  32
TORSDOF 6
ENDMDL
MODEL 6
REMARK VINA RESULT:      -8.8      3.207      7.534
REMARK  6 active torsions:
REMARK  status: ('A' for Active; 'I' for Inactive)
REMARK    1  A    between atoms: C_5  and  C_6 
REMARK    2  A    between atoms: C_12  and  C_13 
REMARK       I    between atoms: C_13  and  N_14 
REMARK    3  A    between atoms: N_14  and  C_15 
REMARK    4  A    between atoms: C_18  and  C_19 
REMARK    5  A    between atoms: C_19  and  O_20 
REMARK    6  A    between atoms: C_25  and  C_26 
ROOT
HETATM    1  C   UNL     1      39.721 -12.027   2.130  1.00  0.00     0.097 C 
HETATM    2  N   UNL     1      40.855 -12.696   2.809  1.00  0.00    -0.268 NA
HETATM    3  C   UNL     1      41.322 -12.129   3.963  1.00  0.00     0.118 A 
HETATM    4  N   UNL     1      41.016 -10.822   4.277  1.00  0.00    -0.245 N 
HETATM    5  N   UNL     1      41.620 -10.369   5.382  1.00  0.00    -0.182 NA
HETATM    6  C   UNL     1      42.277 -11.441   5.830  1.00  0.00     0.159 A 
HETATM    7  C   UNL     1      42.151 -12.570   4.979  1.00  0.00     0.091 A 
HETATM    8  C   UNL     1      40.259  -9.919   3.431  1.00  0.00     0.221 C 
HETATM    9  C   UNL     1      40.059 -10.527   2.029  1.00  0.00     0.061 C 
HETATM   10  H   UNL     1      41.567 -12.978   2.129  1.00  0.00     0.130 HD
ENDROOT
BRANCH   7  11
HETATM   11  C   UNL     1      42.801 -13.853   5.205  1.00  0.00     0.261 C 
HETATM   12  N   UNL     1      42.306 -14.891   4.439  1.00  0.00    -0.323 N 
HETATM   13  H   UNL     1      41.488 -14.668   3.885  1.00  0.00     0.169 HD
HETATM   14  O   UNL     1      43.728 -13.932   6.004  1.00  0.00    -0.267 OA
BRANCH  12  15
HETATM   15  C   UNL     1      42.866 -16.177   4.287  1.00  0.00     0.035 A 
HETATM   16  C   UNL     1      43.182 -16.747   3.053  1.00  0.00     0.030 A 
HETATM   17  C   UNL     1      43.660 -18.061   2.965  1.00  0.00     0.012 A 
HETATM   18  C   UNL     1      43.828 -18.843   4.113  1.00  0.00    -0.030 A 
HETATM   19  C   UNL     1      43.542 -18.252   5.355  1.00  0.00     0.012 A 
HETATM   20  C   UNL     1      43.072 -16.936   5.442  1.00  0.00     0.030 A 
BRANCH  18  21
HETATM   21  C   UNL     1      44.298 -20.285   4.078  1.00  0.00     0.147 C 
HETATM   22  C   UNL     1      43.949 -21.144   5.290  1.00  0.00     0.044 C 
BRANCH  21  23
HETATM   23  O   UNL     1      43.757 -20.929   2.923  1.00  0.00    -0.391 OA
HETATM   24  H   UNL     1      43.815 -20.298   2.185  1.00  0.00     0.210 HD
ENDBRANCH  21  23
ENDBRANCH  18  21
ENDBRANCH  12  15
ENDBRANCH   7  11
BRANCH   1  25
HETATM   25  C   UNL     1      39.390 -12.732   0.820  1.00  0.00    -0.040 A 
HETATM   26  C   UNL     1      38.607 -12.069  -0.142  1.00  0.00     0.009 A 
HETATM   27  C   UNL     1      38.373 -12.628  -1.402  1.00  0.00     0.007 A 
HETATM   28  C   UNL     1      38.928 -13.864  -1.743  1.00  0.00    -0.062 A 
HETATM   29  C   UNL     1      38.750 -14.426  -3.122  1.00  0.00     0.048 C 
HETATM   30  C   UNL     1      39.721 -14.526  -0.803  1.00  0.00     0.007 A 
HETATM   31  C   UNL     1      39.945 -13.971   0.462  1.00  0.00     0.009 A 
ENDBRANCH   1  25
BRANCH   8  32
HETATM   32  C   UNL     1      38.941  -9.565   4.086  1.00  0.00     0.409 C 
HETATM   33  F   UNL     1      38.489 -10.515   4.929  1.00  0.00    -0.169 F 
HETATM   34  F   UNL     1      39.093  -8.437   4.831  1.00  0.00    -0.169 F 
HETATM   35  F   UNL     1      37.966  -9.302   3.190  1.00  0.00    -0.169 F 
ENDBRANCH   8  32
TORSDOF 6
ENDMDL
MODEL 7
REMARK VINA RESULT:      -8.8     16.436     18.287
REMARK  6 active torsions:
REMARK  status: ('A' for Active; 'I' for Inactive)
REMARK    1  A    between atoms: C_5  and  C_6 
REMARK    2  A    between atoms: C_12  and  C_13 
REMARK       I    between atoms: C_13  and  N_14 
REMARK    3  A    between atoms: N_14  and  C_15 
REMARK    4  A    between atoms: C_18  and  C_19 
REMARK    5  A    between atoms: C_19  and  O_20 
REMARK    6  A    between atoms: C_25  and  C_26 
ROOT
HETATM    1  C   UNL     1      47.575 -29.646   1.458  1.00  0.00     0.097 C 
HETATM    2  N   UNL     1      46.263 -30.001   2.046  1.00  0.00    -0.268 NA
HETATM    3  C   UNL     1      45.148 -29.761   1.290  1.00  0.00     0.118 A 
HETATM    4  N   UNL     1      45.202 -28.904   0.212  1.00  0.00    -0.245 N 
HETATM    5  N   UNL     1      44.018 -28.687  -0.374  1.00  0.00    -0.182 NA
HETATM    6  C   UNL     1      43.192 -29.487   0.304  1.00  0.00     0.159 A 
HETATM    7  C   UNL     1      43.829 -30.172   1.372  1.00  0.00     0.091 A 
HETATM    8  C   UNL     1      46.368 -28.139  -0.185  1.00  0.00     0.221 C 
HETATM    9  C   UNL     1      47.463 -28.215   0.899  1.00  0.00     0.061 C 
HETATM   10  H   UNL     1      46.213 -29.702   3.024  1.00  0.00     0.130 HD
ENDROOT
BRANCH   7  11
HETATM   11  C   UNL     1      43.154 -31.071   2.297  1.00  0.00     0.261 C 
HETATM   12  N   UNL     1      41.859 -30.707   2.608  1.00  0.00    -0.323 N 
HETATM   13  H   UNL     1      41.560 -29.811   2.241  1.00  0.00     0.169 HD
HETATM   14  O   UNL     1      43.735 -32.070   2.707  1.00  0.00    -0.267 OA
BRANCH  12  15
HETATM   15  C   UNL     1      40.900 -31.481   3.297  1.00  0.00     0.035 A 
HETATM   16  C   UNL     1      40.011 -32.356   2.672  1.00  0.00     0.030 A 
HETATM   17  C   UNL     1      39.029 -33.034   3.406  1.00  0.00     0.012 A 
HETATM   18  C   UNL     1      38.907 -32.849   4.787  1.00  0.00    -0.030 A 
HETATM   19  C   UNL     1      39.828 -31.995   5.416  1.00  0.00     0.012 A 
HETATM   20  C   UNL     1      40.815 -31.324   4.683  1.00  0.00     0.030 A 
BRANCH  18  21
HETATM   21  C   UNL     1      37.837 -33.519   5.627  1.00  0.00     0.147 C 
HETATM   22  C   UNL     1      38.009 -33.438   7.141  1.00  0.00     0.044 C 
BRANCH  21  23
HETATM   23  O   UNL     1      36.564 -32.955   5.307  1.00  0.00    -0.391 OA
HETATM   24  H   UNL     1      36.718 -32.044   5.003  1.00  0.00     0.210 HD
ENDBRANCH  21  23
ENDBRANCH  18  21
ENDBRANCH  12  15
ENDBRANCH   7  11
BRANCH   1  25
HETATM   25  C   UNL     1      48.695 -29.889   2.462  1.00  0.00    -0.040 A 
HETATM   26  C   UNL     1      48.372 -30.185   3.799  1.00  0.00     0.009 A 
HETATM   27  C   UNL     1      49.359 -30.528   4.728  1.00  0.00     0.007 A 
HETATM   28  C   UNL     1      50.700 -30.597   4.345  1.00  0.00    -0.062 A 
HETATM   29  C   UNL     1      51.750 -31.047   5.317  1.00  0.00     0.048 C 
HETATM   30  C   UNL     1      51.034 -30.320   3.017  1.00  0.00     0.007 A 
HETATM   31  C   UNL     1      50.047 -29.967   2.091  1.00  0.00     0.009 A 
ENDBRANCH   1  25
BRANCH   8  32
HETATM   32  C   UNL     1      46.874 -28.612  -1.532  1.00  0.00     0.409 C 
HETATM   33  F   UNL     1      46.333 -27.945  -2.571  1.00  0.00    -0.169 F 
HETATM   34  F   UNL     1      48.217 -28.411  -1.608  1.00  0.00    -0.169 F 
HETATM   35  F   UNL     1      46.673 -29.932  -1.730  1.00  0.00    -0.169 F 
ENDBRANCH   8  32
TORSDOF 6
ENDMDL
MODEL 8
REMARK VINA RESULT:      -8.7      3.799      8.767
REMARK  6 active torsions:
REMARK  status: ('A' for Active; 'I' for Inactive)
REMARK    1  A    between atoms: C_5  and  C_6 
REMARK    2  A    between atoms: C_12  and  C_13 
REMARK       I    between atoms: C_13  and  N_14 
REMARK    3  A    between atoms: N_14  and  C_15 
REMARK    4  A    between atoms: C_18  and  C_19 
REMARK    5  A    between atoms: C_19  and  O_20 
REMARK    6  A    between atoms: C_25  and  C_26 
ROOT
HETATM    1  C   UNL     1      43.377 -13.451   6.201  1.00  0.00     0.097 C 
HETATM    2  N   UNL     1      43.066 -13.363   4.756  1.00  0.00    -0.268 NA
HETATM    3  C   UNL     1      42.640 -14.504   4.133  1.00  0.00     0.118 A 
HETATM    4  N   UNL     1      42.844 -15.738   4.712  1.00  0.00    -0.245 N 
HETATM    5  N   UNL     1      42.466 -16.770   3.947  1.00  0.00    -0.182 NA
HETATM    6  C   UNL     1      41.937 -16.177   2.875  1.00  0.00     0.159 A 
HETATM    7  C   UNL     1      42.032 -14.761   2.917  1.00  0.00     0.091 A 
HETATM    8  C   UNL     1      43.559 -15.967   5.952  1.00  0.00     0.221 C 
HETATM    9  C   UNL     1      44.279 -14.682   6.409  1.00  0.00     0.061 C 
HETATM   10  H   UNL     1      43.786 -12.827   4.264  1.00  0.00     0.130 HD
ENDROOT
BRANCH   7  11
HETATM   11  C   UNL     1      41.577 -13.870   1.859  1.00  0.00     0.261 C 
HETATM   12  N   UNL     1      40.400 -14.259   1.248  1.00  0.00    -0.323 N 
HETATM   13  H   UNL     1      40.042 -15.163   1.532  1.00  0.00     0.169 HD
HETATM   14  O   UNL     1      42.216 -12.857   1.600  1.00  0.00    -0.267 OA
BRANCH  12  15
HETATM   15  C   UNL     1      39.616 -13.500   0.352  1.00  0.00     0.035 A 
HETATM   16  C   UNL     1      38.972 -12.311   0.696  1.00  0.00     0.030 A 
HETATM   17  C   UNL     1      38.142 -11.649  -0.217  1.00  0.00     0.012 A 
HETATM   18  C   UNL     1      37.928 -12.165  -1.500  1.00  0.00    -0.030 A 
HETATM   19  C   UNL     1      38.607 -13.343  -1.853  1.00  0.00     0.012 A 
HETATM   20  C   UNL     1      39.444 -14.000  -0.941  1.00  0.00     0.030 A 
BRANCH  18  21
HETATM   21  C   UNL     1      37.006 -11.519  -2.516  1.00  0.00     0.147 C 
HETATM   22  C   UNL     1      37.569 -10.326  -3.284  1.00  0.00     0.044 C 
BRANCH  21  23
HETATM   23  O   UNL     1      36.601 -12.497  -3.474  1.00  0.00    -0.391 OA
HETATM   24  H   UNL     1      37.408 -12.859  -3.879  1.00  0.00     0.210 HD
ENDBRANCH  21  23
ENDBRANCH  18  21
ENDBRANCH  12  15
ENDBRANCH   7  11
BRANCH   1  25
HETATM   25  C   UNL     1      43.923 -12.123   6.713  1.00  0.00    -0.040 A 
HETATM   26  C   UNL     1      43.038 -11.176   7.259  1.00  0.00     0.009 A 
HETATM   27  C   UNL     1      43.504  -9.995   7.844  1.00  0.00     0.007 A 
HETATM   28  C   UNL     1      44.875  -9.731   7.912  1.00  0.00    -0.062 A 
HETATM   29  C   UNL     1      45.381  -8.507   8.615  1.00  0.00     0.048 C 
HETATM   30  C   UNL     1      45.766 -10.670   7.388  1.00  0.00     0.007 A 
HETATM   31  C   UNL     1      45.298 -11.846   6.793  1.00  0.00     0.009 A 
ENDBRANCH   1  25
BRANCH   8  32
HETATM   32  C   UNL     1      42.617 -16.494   7.014  1.00  0.00     0.409 C 
HETATM   33  F   UNL     1      41.315 -16.296   6.721  1.00  0.00    -0.169 F 
HETATM   34  F   UNL     1      42.779 -17.839   7.138  1.00  0.00    -0.169 F 
HETATM   35  F   UNL     1      42.856 -15.966   8.233  1.00  0.00    -0.169 F 
ENDBRANCH   8  32
TORSDOF 6
ENDMDL
MODEL 9
REMARK VINA RESULT:      -8.6      4.310      7.910
REMARK  6 active torsions:
REMARK  status: ('A' for Active; 'I' for Inactive)
REMARK    1  A    between atoms: C_5  and  C_6 
REMARK    2  A    between atoms: C_12  and  C_13 
REMARK       I    between atoms: C_13  and  N_14 
REMARK    3  A    between atoms: N_14  and  C_15 
REMARK    4  A    between atoms: C_18  and  C_19 
REMARK    5  A    between atoms: C_19  and  O_20 
REMARK    6  A    between atoms: C_25  and  C_26 
ROOT
HETATM    1  C   UNL     1      43.010 -14.985   4.160  1.00  0.00     0.097 C 
HETATM    2  N   UNL     1      42.061 -14.257   3.289  1.00  0.00    -0.268 NA
HETATM    3  C   UNL     1      41.674 -13.006   3.684  1.00  0.00     0.118 A 
HETATM    4  N   UNL     1      41.855 -12.594   4.987  1.00  0.00    -0.245 N 
HETATM    5  N   UNL     1      41.342 -11.387   5.255  1.00  0.00    -0.182 NA
HETATM    6  C   UNL     1      40.882 -10.981   4.070  1.00  0.00     0.159 A 
HETATM    7  C   UNL     1      41.039 -11.954   3.047  1.00  0.00     0.091 A 
HETATM    8  C   UNL     1      42.384 -13.421   6.054  1.00  0.00     0.221 C 
HETATM    9  C   UNL     1      42.481 -14.893   5.604  1.00  0.00     0.061 C 
HETATM   10  H   UNL     1      41.310 -14.879   2.975  1.00  0.00     0.130 HD
ENDROOT
BRANCH   7  11
HETATM   11  C   UNL     1      40.585 -11.790   1.674  1.00  0.00     0.261 C 
HETATM   12  N   UNL     1      39.214 -11.851   1.511  1.00  0.00    -0.323 N 
HETATM   13  H   UNL     1      38.690 -12.101   2.341  1.00  0.00     0.169 HD
HETATM   14  O   UNL     1      41.402 -11.587   0.783  1.00  0.00    -0.267 OA
BRANCH  12  15
HETATM   15  C   UNL     1      38.480 -11.521   0.352  1.00  0.00     0.035 A 
HETATM   16  C   UNL     1      37.752 -10.340   0.201  1.00  0.00     0.030 A 
HETATM   17  C   UNL     1      36.978 -10.110  -0.943  1.00  0.00     0.012 A 
HETATM   18  C   UNL     1      36.906 -11.062  -1.966  1.00  0.00    -0.030 A 
HETATM   19  C   UNL     1      37.668 -12.233  -1.825  1.00  0.00     0.012 A 
HETATM   20  C   UNL     1      38.449 -12.459  -0.684  1.00  0.00     0.030 A 
BRANCH  18  21
HETATM   21  C   UNL     1      36.050 -10.889  -3.206  1.00  0.00     0.147 C 
HETATM   22  C   UNL     1      34.713 -10.179  -3.017  1.00  0.00     0.044 C 
BRANCH  21  23
HETATM   23  O   UNL     1      36.788 -10.164  -4.191  1.00  0.00    -0.391 OA
HETATM   24  H   UNL     1      36.846  -9.241  -3.889  1.00  0.00     0.210 HD
ENDBRANCH  21  23
ENDBRANCH  18  21
ENDBRANCH  12  15
ENDBRANCH   7  11
BRANCH   1  25
HETATM   25  C   UNL     1      43.260 -16.390   3.625  1.00  0.00    -0.040 A 
HETATM   26  C   UNL     1      43.999 -17.303   4.399  1.00  0.00     0.009 A 
HETATM   27  C   UNL     1      44.156 -18.635   4.002  1.00  0.00     0.007 A 
HETATM   28  C   UNL     1      43.566 -19.097   2.822  1.00  0.00    -0.062 A 
HETATM   29  C   UNL     1      43.662 -20.543   2.438  1.00  0.00     0.048 C 
HETATM   30  C   UNL     1      42.817 -18.205   2.052  1.00  0.00     0.007 A 
HETATM   31  C   UNL     1      42.670 -16.870   2.444  1.00  0.00     0.009 A 
ENDBRANCH   1  25
BRANCH   8  32
HETATM   32  C   UNL     1      43.720 -12.884   6.523  1.00  0.00     0.409 C 
HETATM   33  F   UNL     1      44.608 -13.851   6.829  1.00  0.00    -0.169 F 
HETATM   34  F   UNL     1      44.286 -12.147   5.530  1.00  0.00    -0.169 F 
HETATM   35  F   UNL     1      43.608 -12.065   7.591  1.00  0.00    -0.169 F 
ENDBRANCH   8  32
TORSDOF 6
ENDMDL
MODEL 10
REMARK VINA RESULT:      -8.4      2.218      3.669
REMARK  6 active torsions:
REMARK  status: ('A' for Active; 'I' for Inactive)
REMARK    1  A    between atoms: C_5  and  C_6 
REMARK    2  A    between atoms: C_12  and  C_13 
REMARK       I    between atoms: C_13  and  N_14 
REMARK    3  A    between atoms: N_14  and  C_15 
REMARK    4  A    between atoms: C_18  and  C_19 
REMARK    5  A    between atoms: C_19  and  O_20 
REMARK    6  A    between atoms: C_25  and  C_26 
ROOT
HETATM    1  C   UNL     1      42.416 -13.850   4.493  1.00  0.00     0.097 C 
HETATM    2  N   UNL     1      42.899 -12.990   5.597  1.00  0.00    -0.268 NA
HETATM    3  C   UNL     1      42.619 -11.653   5.523  1.00  0.00     0.118 A 
HETATM    4  N   UNL     1      42.245 -11.080   4.327  1.00  0.00    -0.245 N 
HETATM    5  N   UNL     1      42.099  -9.750   4.379  1.00  0.00    -0.182 NA
HETATM    6  C   UNL     1      42.316  -9.471   5.667  1.00  0.00     0.159 A 
HETATM    7  C   UNL     1      42.667 -10.612   6.434  1.00  0.00     0.091 A 
HETATM    8  C   UNL     1      42.176 -11.776   3.056  1.00  0.00     0.221 C 
HETATM    9  C   UNL     1      42.815 -13.174   3.167  1.00  0.00     0.061 C 
HETATM   10  H   UNL     1      43.861 -13.232   5.849  1.00  0.00     0.130 HD
ENDROOT
BRANCH   7  11
HETATM   11  C   UNL     1      42.999 -10.586   7.851  1.00  0.00     0.261 C 
HETATM   12  N   UNL     1      42.417  -9.552   8.558  1.00  0.00    -0.323 N 
HETATM   13  H   UNL     1      41.911  -8.875   7.999  1.00  0.00     0.169 HD
HETATM   14  O   UNL     1      43.719 -11.458   8.323  1.00  0.00    -0.267 OA
BRANCH  12  15
HETATM   15  C   UNL     1      42.383  -9.393   9.960  1.00  0.00     0.035 A 
HETATM   16  C   UNL     1      41.262  -9.658  10.747  1.00  0.00     0.030 A 
HETATM   17  C   UNL     1      41.268  -9.402  12.124  1.00  0.00     0.012 A 
HETATM   18  C   UNL     1      42.399  -8.866  12.750  1.00  0.00    -0.030 A 
HETATM   19  C   UNL     1      43.537  -8.635  11.960  1.00  0.00     0.012 A 
HETATM   20  C   UNL     1      43.532  -8.899  10.585  1.00  0.00     0.030 A 
BRANCH  18  21
HETATM   21  C   UNL     1      42.450  -8.526  14.227  1.00  0.00     0.147 C 
HETATM   22  C   UNL     1      42.915  -7.117  14.585  1.00  0.00     0.044 C 
BRANCH  21  23
HETATM   23  O   UNL     1      41.155  -8.712  14.800  1.00  0.00    -0.391 OA
HETATM   24  H   UNL     1      40.696  -9.384  14.268  1.00  0.00     0.210 HD
ENDBRANCH  21  23
ENDBRANCH  18  21
ENDBRANCH  12  15
ENDBRANCH   7  11
BRANCH   1  25
HETATM   25  C   UNL     1      42.891 -15.285   4.685  1.00  0.00    -0.040 A 
HETATM   26  C   UNL     1      42.599 -16.248   3.701  1.00  0.00     0.009 A 
HETATM   27  C   UNL     1      43.111 -17.546   3.778  1.00  0.00     0.007 A 
HETATM   28  C   UNL     1      43.943 -17.919   4.837  1.00  0.00    -0.062 A 
HETATM   29  C   UNL     1      44.561 -19.285   4.877  1.00  0.00     0.048 C 
HETATM   30  C   UNL     1      44.254 -16.969   5.813  1.00  0.00     0.007 A 
HETATM   31  C   UNL     1      43.732 -15.673   5.741  1.00  0.00     0.009 A 
ENDBRANCH   1  25
BRANCH   8  32
HETATM   32  C   UNL     1      40.742 -11.847   2.573  1.00  0.00     0.409 C 
HETATM   33  F   UNL     1      39.838 -11.835   3.574  1.00  0.00    -0.169 F 
HETATM   34  F   UNL     1      40.469 -10.762   1.801  1.00  0.00    -0.169 F 
HETATM   35  F   UNL     1      40.503 -12.932   1.806  1.00  0.00    -0.169 F 
ENDBRANCH   8  32
TORSDOF 6
ENDMDL
