MODEL 1
REMARK VINA RESULT:      -8.6      0.000      0.000
REMARK  9 active torsions:
REMARK  status: ('A' for Active; 'I' for Inactive)
REMARK    1  A    between atoms: C_5  and  C_6 
REMARK    2  A    between atoms: C_8  and  N_9 
REMARK       I    between atoms: N_9  and  C_10 
REMARK    3  A    between atoms: C_10  and  C_11 
REMARK    4  A    between atoms: C_11  and  N_12 
REMARK    5  A    between atoms: N_12  and  C_14 
REMARK    6  A    between atoms: C_14  and  C_15 
REMARK       I    between atoms: C_15  and  N_16 
REMARK    7  A    between atoms: N_16  and  C_17 
REMARK    8  A    between atoms: C_20  and  O_21 
REMARK    9  A    between atoms: O_21  and  C_22 
ROOT
HETATM    1  N   UNL     1      41.195 -11.208   4.726  1.00  0.00    -0.058 N 
HETATM    2  H   UNL     1      41.015 -11.369   3.729  1.00  0.00     0.280 HD
HETATM    3  C   UNL     1      40.258 -10.078   5.093  1.00  0.00     0.270 C 
ENDROOT
BRANCH   1   4
HETATM    4  C   UNL     1      42.673 -10.812   4.808  1.00  0.00     0.337 C 
BRANCH   4   5
HETATM    5  C   UNL     1      43.366 -10.994   6.164  1.00  0.00     0.248 C 
HETATM    6  N   UNL     1      43.319  -9.875   6.975  1.00  0.00    -0.326 N 
HETATM    7  H   UNL     1      43.052  -8.987   6.573  1.00  0.00     0.169 HD
HETATM    8  O   UNL     1      43.906 -12.067   6.416  1.00  0.00    -0.271 OA
BRANCH   6   9
HETATM    9  C   UNL     1      43.703  -9.798   8.334  1.00  0.00     0.035 A 
HETATM   10  C   UNL     1      42.800  -9.733   9.401  1.00  0.00     0.043 A 
HETATM   11  C   UNL     1      43.250  -9.589  10.729  1.00  0.00    -0.005 A 
HETATM   12  C   UNL     1      44.631  -9.541  10.965  1.00  0.00     0.014 A 
HETATM   13  C   UNL     1      45.538  -9.614   9.908  1.00  0.00     0.003 A 
HETATM   14  C   UNL     1      45.074  -9.730   8.599  1.00  0.00     0.029 A 
BRANCH  11  15
HETATM   15  C   UNL     1      42.269  -9.474  11.811  1.00  0.00     0.074 A 
HETATM   16  C   UNL     1      40.963  -9.922  11.751  1.00  0.00     0.084 A 
HETATM   17  S   UNL     1      40.150  -9.602  13.227  1.00  0.00    -0.085 SA
HETATM   18  C   UNL     1      41.586  -8.900  13.849  1.00  0.00     0.071 A 
HETATM   19  C   UNL     1      41.614  -8.339  15.227  1.00  0.00     0.078 C 
HETATM   20  N   UNL     1      42.613  -8.891  13.026  1.00  0.00    -0.245 NA
ENDBRANCH  11  15
ENDBRANCH   6   9
ENDBRANCH   4   5
ENDBRANCH   1   4
BRANCH   1  21
HETATM   21  C   UNL     1      40.860 -12.531   5.418  1.00  0.00     0.337 C 
BRANCH  21  22
HETATM   22  C   UNL     1      41.098 -13.792   4.579  1.00  0.00     0.248 C 
HETATM   23  N   UNL     1      42.339 -14.376   4.774  1.00  0.00    -0.326 N 
HETATM   24  H   UNL     1      43.047 -13.865   5.292  1.00  0.00     0.169 HD
HETATM   25  O   UNL     1      40.205 -14.214   3.856  1.00  0.00    -0.271 OA
BRANCH  23  26
HETATM   26  C   UNL     1      42.806 -15.569   4.170  1.00  0.00     0.034 A 
HETATM   27  C   UNL     1      42.964 -15.743   2.796  1.00  0.00     0.032 A 
HETATM   28  C   UNL     1      43.453 -16.951   2.285  1.00  0.00     0.039 A 
HETATM   29  C   UNL     1      43.797 -18.005   3.133  1.00  0.00     0.078 A 
HETATM   30  C   UNL     1      43.616 -17.846   4.505  1.00  0.00     0.039 A 
HETATM   31  C   UNL     1      43.124 -16.637   5.018  1.00  0.00     0.032 A 
BRANCH  29  32
HETATM   32  O   UNL     1      44.282 -19.109   2.496  1.00  0.00    -0.255 OA
BRANCH  32  33
HETATM   33  C   UNL     1      43.382 -20.178   2.248  1.00  0.00     0.530 C 
HETATM   34  F   UNL     1      42.140 -19.718   1.987  1.00  0.00    -0.144 F 
HETATM   35  F   UNL     1      43.809 -20.929   1.210  1.00  0.00    -0.144 F 
HETATM   36  F   UNL     1      43.324 -20.962   3.344  1.00  0.00    -0.144 F 
ENDBRANCH  32  33
ENDBRANCH  29  32
ENDBRANCH  23  26
ENDBRANCH  21  22
ENDBRANCH   1  21
TORSDOF 9
ENDMDL
MODEL 2
REMARK VINA RESULT:      -8.6      3.936      7.958
REMARK  9 active torsions:
REMARK  status: ('A' for Active; 'I' for Inactive)
REMARK    1  A    between atoms: C_5  and  C_6 
REMARK    2  A    between atoms: C_8  and  N_9 
REMARK       I    between atoms: N_9  and  C_10 
REMARK    3  A    between atoms: C_10  and  C_11 
REMARK    4  A    between atoms: C_11  and  N_12 
REMARK    5  A    between atoms: N_12  and  C_14 
REMARK    6  A    between atoms: C_14  and  C_15 
REMARK       I    between atoms: C_15  and  N_16 
REMARK    7  A    between atoms: N_16  and  C_17 
REMARK    8  A    between atoms: C_20  and  O_21 
REMARK    9  A    between atoms: O_21  and  C_22 
ROOT
HETATM    1  N   UNL     1      42.501 -10.471   7.595  1.00  0.00    -0.058 N 
HETATM    2  H   UNL     1      41.726 -11.115   7.788  1.00  0.00     0.280 HD
HETATM    3  C   UNL     1      42.241  -9.294   8.510  1.00  0.00     0.270 C 
ENDROOT
BRANCH   1   4
HETATM    4  C   UNL     1      42.367 -10.116   6.110  1.00  0.00     0.337 C 
BRANCH   4   5
HETATM    5  C   UNL     1      41.825 -11.209   5.181  1.00  0.00     0.248 C 
HETATM    6  N   UNL     1      42.492 -11.304   3.974  1.00  0.00    -0.326 N 
HETATM    7  H   UNL     1      43.107 -10.553   3.691  1.00  0.00     0.169 HD
HETATM    8  O   UNL     1      40.868 -11.883   5.551  1.00  0.00    -0.271 OA
BRANCH   6   9
HETATM    9  C   UNL     1      42.345 -12.321   3.002  1.00  0.00     0.035 A 
HETATM   10  C   UNL     1      41.391 -12.296   1.979  1.00  0.00     0.043 A 
HETATM   11  C   UNL     1      41.254 -13.376   1.084  1.00  0.00    -0.005 A 
HETATM   12  C   UNL     1      42.116 -14.473   1.222  1.00  0.00     0.014 A 
HETATM   13  C   UNL     1      43.076 -14.501   2.234  1.00  0.00     0.003 A 
HETATM   14  C   UNL     1      43.180 -13.436   3.126  1.00  0.00     0.029 A 
BRANCH  11  15
HETATM   15  C   UNL     1      40.207 -13.330   0.059  1.00  0.00     0.074 A 
HETATM   16  C   UNL     1      39.289 -12.309  -0.094  1.00  0.00     0.084 A 
HETATM   17  S   UNL     1      38.243 -12.635  -1.414  1.00  0.00    -0.085 SA
HETATM   18  C   UNL     1      39.085 -14.102  -1.700  1.00  0.00     0.071 A 
HETATM   19  C   UNL     1      38.670 -15.004  -2.808  1.00  0.00     0.078 C 
HETATM   20  N   UNL     1      40.079 -14.353  -0.874  1.00  0.00    -0.245 NA
ENDBRANCH  11  15
ENDBRANCH   6   9
ENDBRANCH   4   5
ENDBRANCH   1   4
BRANCH   1  21
HETATM   21  C   UNL     1      43.771 -11.249   7.942  1.00  0.00     0.337 C 
BRANCH  21  22
HETATM   22  C   UNL     1      44.041 -12.489   7.083  1.00  0.00     0.248 C 
HETATM   23  N   UNL     1      43.107 -13.501   7.238  1.00  0.00    -0.326 N 
HETATM   24  H   UNL     1      42.439 -13.440   8.000  1.00  0.00     0.169 HD
HETATM   25  O   UNL     1      44.995 -12.496   6.314  1.00  0.00    -0.271 OA
BRANCH  23  26
HETATM   26  C   UNL     1      43.083 -14.732   6.537  1.00  0.00     0.034 A 
HETATM   27  C   UNL     1      41.943 -15.277   5.951  1.00  0.00     0.032 A 
HETATM   28  C   UNL     1      42.013 -16.492   5.257  1.00  0.00     0.039 A 
HETATM   29  C   UNL     1      43.220 -17.181   5.133  1.00  0.00     0.078 A 
HETATM   30  C   UNL     1      44.357 -16.652   5.739  1.00  0.00     0.039 A 
HETATM   31  C   UNL     1      44.288 -15.438   6.437  1.00  0.00     0.032 A 
BRANCH  29  32
HETATM   32  O   UNL     1      43.141 -18.335   4.410  1.00  0.00    -0.255 OA
BRANCH  32  33
HETATM   33  C   UNL     1      43.287 -18.245   3.001  1.00  0.00     0.530 C 
HETATM   34  F   UNL     1      42.124 -17.894   2.413  1.00  0.00    -0.144 F 
HETATM   35  F   UNL     1      44.243 -17.347   2.677  1.00  0.00    -0.144 F 
HETATM   36  F   UNL     1      43.658 -19.451   2.524  1.00  0.00    -0.144 F 
ENDBRANCH  32  33
ENDBRANCH  29  32
ENDBRANCH  23  26
ENDBRANCH  21  22
ENDBRANCH   1  21
TORSDOF 9
ENDMDL
MODEL 3
REMARK VINA RESULT:      -8.6      2.071      2.908
REMARK  9 active torsions:
REMARK  status: ('A' for Active; 'I' for Inactive)
REMARK    1  A    between atoms: C_5  and  C_6 
REMARK    2  A    between atoms: C_8  and  N_9 
REMARK       I    between atoms: N_9  and  C_10 
REMARK    3  A    between atoms: C_10  and  C_11 
REMARK    4  A    between atoms: C_11  and  N_12 
REMARK    5  A    between atoms: N_12  and  C_14 
REMARK    6  A    between atoms: C_14  and  C_15 
REMARK       I    between atoms: C_15  and  N_16 
REMARK    7  A    between atoms: N_16  and  C_17 
REMARK    8  A    between atoms: C_20  and  O_21 
REMARK    9  A    between atoms: O_21  and  C_22 
ROOT
HETATM    1  N   UNL     1      40.897 -12.391   2.122  1.00  0.00    -0.058 N 
HETATM    2  H   UNL     1      41.826 -12.820   2.201  1.00  0.00     0.280 HD
HETATM    3  C   UNL     1      40.964 -11.598   0.835  1.00  0.00     0.270 C 
ENDROOT
BRANCH   1   4
HETATM    4  C   UNL     1      40.758 -11.505   3.365  1.00  0.00     0.337 C 
BRANCH   4   5
HETATM    5  C   UNL     1      41.635 -11.859   4.572  1.00  0.00     0.248 C 
HETATM    6  N   UNL     1      42.677 -10.976   4.789  1.00  0.00    -0.326 N 
HETATM    7  H   UNL     1      42.927 -10.321   4.061  1.00  0.00     0.169 HD
HETATM    8  O   UNL     1      41.374 -12.867   5.221  1.00  0.00    -0.271 OA
BRANCH   6   9
HETATM    9  C   UNL     1      43.531 -10.936   5.916  1.00  0.00     0.035 A 
HETATM   10  C   UNL     1      43.159 -10.426   7.164  1.00  0.00     0.043 A 
HETATM   11  C   UNL     1      44.081 -10.353   8.227  1.00  0.00    -0.005 A 
HETATM   12  C   UNL     1      45.383 -10.830   8.016  1.00  0.00     0.014 A 
HETATM   13  C   UNL     1      45.760 -11.347   6.777  1.00  0.00     0.003 A 
HETATM   14  C   UNL     1      44.842 -11.388   5.730  1.00  0.00     0.029 A 
BRANCH  11  15
HETATM   15  C   UNL     1      43.662  -9.766   9.502  1.00  0.00     0.074 A 
HETATM   16  C   UNL     1      43.628 -10.433  10.712  1.00  0.00     0.084 A 
HETATM   17  S   UNL     1      43.087  -9.388  11.959  1.00  0.00    -0.085 SA
HETATM   18  C   UNL     1      42.945  -8.119  10.814  1.00  0.00     0.071 A 
HETATM   19  C   UNL     1      42.467  -6.774  11.237  1.00  0.00     0.078 C 
HETATM   20  N   UNL     1      43.270  -8.434   9.578  1.00  0.00    -0.245 NA
ENDBRANCH  11  15
ENDBRANCH   6   9
ENDBRANCH   4   5
ENDBRANCH   1   4
BRANCH   1  21
HETATM   21  C   UNL     1      39.913 -13.560   2.072  1.00  0.00     0.337 C 
BRANCH  21  22
HETATM   22  C   UNL     1      40.479 -14.918   2.503  1.00  0.00     0.248 C 
HETATM   23  N   UNL     1      41.831 -14.900   2.803  1.00  0.00    -0.326 N 
HETATM   24  H   UNL     1      42.377 -14.079   2.560  1.00  0.00     0.169 HD
HETATM   25  O   UNL     1      39.730 -15.883   2.596  1.00  0.00    -0.271 OA
BRANCH  23  26
HETATM   26  C   UNL     1      42.600 -15.994   3.271  1.00  0.00     0.034 A 
HETATM   27  C   UNL     1      43.067 -16.121   4.578  1.00  0.00     0.032 A 
HETATM   28  C   UNL     1      43.803 -17.250   4.961  1.00  0.00     0.039 A 
HETATM   29  C   UNL     1      44.083 -18.270   4.052  1.00  0.00     0.078 A 
HETATM   30  C   UNL     1      43.640 -18.135   2.738  1.00  0.00     0.039 A 
HETATM   31  C   UNL     1      42.905 -17.004   2.351  1.00  0.00     0.032 A 
BRANCH  29  32
HETATM   32  O   UNL     1      44.786 -19.315   4.573  1.00  0.00    -0.255 OA
BRANCH  32  33
HETATM   33  C   UNL     1      44.054 -20.424   5.069  1.00  0.00     0.530 C 
HETATM   34  F   UNL     1      43.170 -20.039   6.015  1.00  0.00    -0.144 F 
HETATM   35  F   UNL     1      43.396 -21.048   4.069  1.00  0.00    -0.144 F 
HETATM   36  F   UNL     1      44.915 -21.303   5.624  1.00  0.00    -0.144 F 
ENDBRANCH  32  33
ENDBRANCH  29  32
ENDBRANCH  23  26
ENDBRANCH  21  22
ENDBRANCH   1  21
TORSDOF 9
ENDMDL
MODEL 4
REMARK VINA RESULT:      -8.3      1.555      1.917
REMARK  9 active torsions:
REMARK  status: ('A' for Active; 'I' for Inactive)
REMARK    1  A    between atoms: C_5  and  C_6 
REMARK    2  A    between atoms: C_8  and  N_9 
REMARK       I    between atoms: N_9  and  C_10 
REMARK    3  A    between atoms: C_10  and  C_11 
REMARK    4  A    between atoms: C_11  and  N_12 
REMARK    5  A    between atoms: N_12  and  C_14 
REMARK    6  A    between atoms: C_14  and  C_15 
REMARK       I    between atoms: C_15  and  N_16 
REMARK    7  A    between atoms: N_16  and  C_17 
REMARK    8  A    between atoms: C_20  and  O_21 
REMARK    9  A    between atoms: O_21  and  C_22 
ROOT
HETATM    1  N   UNL     1      40.908 -11.978   4.075  1.00  0.00    -0.058 N 
HETATM    2  H   UNL     1      40.145 -11.303   3.950  1.00  0.00     0.280 HD
HETATM    3  C   UNL     1      40.583 -12.665   5.384  1.00  0.00     0.270 C 
ENDROOT
BRANCH   1   4
HETATM    4  C   UNL     1      42.184 -11.130   4.145  1.00  0.00     0.337 C 
BRANCH   4   5
HETATM    5  C   UNL     1      42.482 -10.433   5.477  1.00  0.00     0.248 C 
HETATM    6  N   UNL     1      43.445 -11.066   6.242  1.00  0.00    -0.326 N 
HETATM    7  H   UNL     1      43.717 -12.011   6.006  1.00  0.00     0.169 HD
HETATM    8  O   UNL     1      41.860  -9.416   5.768  1.00  0.00    -0.271 OA
BRANCH   6   9
HETATM    9  C   UNL     1      44.056 -10.569   7.416  1.00  0.00     0.035 A 
HETATM   10  C   UNL     1      43.360 -10.243   8.585  1.00  0.00     0.043 A 
HETATM   11  C   UNL     1      44.022  -9.688   9.698  1.00  0.00    -0.005 A 
HETATM   12  C   UNL     1      45.408  -9.492   9.621  1.00  0.00     0.014 A 
HETATM   13  C   UNL     1      46.111  -9.822   8.463  1.00  0.00     0.003 A 
HETATM   14  C   UNL     1      45.436 -10.346   7.363  1.00  0.00     0.029 A 
BRANCH  11  15
HETATM   15  C   UNL     1      43.245  -9.315  10.883  1.00  0.00     0.074 A 
HETATM   16  C   UNL     1      41.971  -9.764  11.172  1.00  0.00     0.084 A 
HETATM   17  S   UNL     1      41.421  -9.097  12.654  1.00  0.00    -0.085 SA
HETATM   18  C   UNL     1      42.913  -8.266  12.817  1.00  0.00     0.071 A 
HETATM   19  C   UNL     1      43.161  -7.389  13.993  1.00  0.00     0.078 C 
HETATM   20  N   UNL     1      43.775  -8.456  11.840  1.00  0.00    -0.245 NA
ENDBRANCH  11  15
ENDBRANCH   6   9
ENDBRANCH   4   5
ENDBRANCH   1   4
BRANCH   1  21
HETATM   21  C   UNL     1      40.836 -12.904   2.861  1.00  0.00     0.337 C 
BRANCH  21  22
HETATM   22  C   UNL     1      41.150 -14.379   3.137  1.00  0.00     0.248 C 
HETATM   23  N   UNL     1      42.500 -14.652   3.291  1.00  0.00    -0.326 N 
HETATM   24  H   UNL     1      43.177 -13.936   3.047  1.00  0.00     0.169 HD
HETATM   25  O   UNL     1      40.232 -15.183   3.244  1.00  0.00    -0.271 OA
BRANCH  23  26
HETATM   26  C   UNL     1      43.069 -15.912   3.599  1.00  0.00     0.034 A 
HETATM   27  C   UNL     1      43.192 -16.960   2.689  1.00  0.00     0.032 A 
HETATM   28  C   UNL     1      43.788 -18.168   3.074  1.00  0.00     0.039 A 
HETATM   29  C   UNL     1      44.275 -18.350   4.369  1.00  0.00     0.078 A 
HETATM   30  C   UNL     1      44.130 -17.315   5.290  1.00  0.00     0.039 A 
HETATM   31  C   UNL     1      43.531 -16.106   4.907  1.00  0.00     0.032 A 
BRANCH  29  32
HETATM   32  O   UNL     1      44.851 -19.566   4.591  1.00  0.00    -0.255 OA
BRANCH  32  33
HETATM   33  C   UNL     1      44.040 -20.591   5.145  1.00  0.00     0.530 C 
HETATM   34  F   UNL     1      43.161 -20.087   6.038  1.00  0.00    -0.144 F 
HETATM   35  F   UNL     1      43.368 -21.245   4.174  1.00  0.00    -0.144 F 
HETATM   36  F   UNL     1      44.833 -21.477   5.784  1.00  0.00    -0.144 F 
ENDBRANCH  32  33
ENDBRANCH  29  32
ENDBRANCH  23  26
ENDBRANCH  21  22
ENDBRANCH   1  21
TORSDOF 9
ENDMDL
MODEL 5
REMARK VINA RESULT:      -8.1      3.912      4.819
REMARK  9 active torsions:
REMARK  status: ('A' for Active; 'I' for Inactive)
REMARK    1  A    between atoms: C_5  and  C_6 
REMARK    2  A    between atoms: C_8  and  N_9 
REMARK       I    between atoms: N_9  and  C_10 
REMARK    3  A    between atoms: C_10  and  C_11 
REMARK    4  A    between atoms: C_11  and  N_12 
REMARK    5  A    between atoms: N_12  and  C_14 
REMARK    6  A    between atoms: C_14  and  C_15 
REMARK       I    between atoms: C_15  and  N_16 
REMARK    7  A    between atoms: N_16  and  C_17 
REMARK    8  A    between atoms: C_20  and  O_21 
REMARK    9  A    between atoms: O_21  and  C_22 
ROOT
HETATM    1  N   UNL     1      41.959 -14.693   6.905  1.00  0.00    -0.058 N 
HETATM    2  H   UNL     1      41.649 -14.045   7.637  1.00  0.00     0.280 HD
HETATM    3  C   UNL     1      42.689 -15.783   7.660  1.00  0.00     0.270 C 
ENDROOT
BRANCH   1   4
HETATM    4  C   UNL     1      42.883 -13.866   6.004  1.00  0.00     0.337 C 
BRANCH   4   5
HETATM    5  C   UNL     1      43.128 -12.409   6.413  1.00  0.00     0.248 C 
HETATM    6  N   UNL     1      43.846 -12.266   7.586  1.00  0.00    -0.326 N 
HETATM    7  H   UNL     1      43.965 -13.067   8.191  1.00  0.00     0.169 HD
HETATM    8  O   UNL     1      42.675 -11.511   5.710  1.00  0.00    -0.271 OA
BRANCH   6   9
HETATM    9  C   UNL     1      44.379 -11.066   8.112  1.00  0.00     0.035 A 
HETATM   10  C   UNL     1      43.746 -10.288   9.086  1.00  0.00     0.043 A 
HETATM   11  C   UNL     1      44.300  -9.066   9.518  1.00  0.00    -0.005 A 
HETATM   12  C   UNL     1      45.523  -8.656   8.968  1.00  0.00     0.014 A 
HETATM   13  C   UNL     1      46.165  -9.431   8.002  1.00  0.00     0.003 A 
HETATM   14  C   UNL     1      45.589 -10.623   7.569  1.00  0.00     0.029 A 
BRANCH  11  15
HETATM   15  C   UNL     1      43.578  -8.258  10.504  1.00  0.00     0.074 A 
HETATM   16  C   UNL     1      42.761  -7.183  10.206  1.00  0.00     0.084 A 
HETATM   17  S   UNL     1      42.100  -6.516  11.641  1.00  0.00    -0.085 SA
HETATM   18  C   UNL     1      42.932  -7.702  12.559  1.00  0.00     0.071 A 
HETATM   19  C   UNL     1      42.815  -7.723  14.042  1.00  0.00     0.078 C 
HETATM   20  N   UNL     1      43.663  -8.546  11.862  1.00  0.00    -0.245 NA
ENDBRANCH  11  15
ENDBRANCH   6   9
ENDBRANCH   4   5
ENDBRANCH   1   4
BRANCH   1  21
HETATM   21  C   UNL     1      40.680 -15.174   6.219  1.00  0.00     0.337 C 
BRANCH  21  22
HETATM   22  C   UNL     1      40.797 -15.437   4.713  1.00  0.00     0.248 C 
HETATM   23  N   UNL     1      40.186 -14.479   3.921  1.00  0.00    -0.326 N 
HETATM   24  H   UNL     1      39.575 -13.796   4.359  1.00  0.00     0.169 HD
HETATM   25  O   UNL     1      41.431 -16.407   4.317  1.00  0.00    -0.271 OA
BRANCH  23  26
HETATM   26  C   UNL     1      40.179 -14.444   2.505  1.00  0.00     0.034 A 
HETATM   27  C   UNL     1      39.858 -15.533   1.696  1.00  0.00     0.032 A 
HETATM   28  C   UNL     1      39.855 -15.404   0.302  1.00  0.00     0.039 A 
HETATM   29  C   UNL     1      40.168 -14.189  -0.310  1.00  0.00     0.078 A 
HETATM   30  C   UNL     1      40.515 -13.106   0.494  1.00  0.00     0.039 A 
HETATM   31  C   UNL     1      40.521 -13.234   1.890  1.00  0.00     0.032 A 
BRANCH  29  32
HETATM   32  O   UNL     1      40.100 -14.207  -1.672  1.00  0.00    -0.255 OA
BRANCH  32  33
HETATM   33  C   UNL     1      39.052 -13.479  -2.292  1.00  0.00     0.530 C 
HETATM   34  F   UNL     1      38.786 -13.964  -3.524  1.00  0.00    -0.144 F 
HETATM   35  F   UNL     1      37.931 -13.524  -1.541  1.00  0.00    -0.144 F 
HETATM   36  F   UNL     1      39.430 -12.190  -2.415  1.00  0.00    -0.144 F 
ENDBRANCH  32  33
ENDBRANCH  29  32
ENDBRANCH  23  26
ENDBRANCH  21  22
ENDBRANCH   1  21
TORSDOF 9
ENDMDL
MODEL 6
REMARK VINA RESULT:      -8.1      6.494     11.513
REMARK  9 active torsions:
REMARK  status: ('A' for Active; 'I' for Inactive)
REMARK    1  A    between atoms: C_5  and  C_6 
REMARK    2  A    between atoms: C_8  and  N_9 
REMARK       I    between atoms: N_9  and  C_10 
REMARK    3  A    between atoms: C_10  and  C_11 
REMARK    4  A    between atoms: C_11  and  N_12 
REMARK    5  A    between atoms: N_12  and  C_14 
REMARK    6  A    between atoms: C_14  and  C_15 
REMARK       I    between atoms: C_15  and  N_16 
REMARK    7  A    between atoms: N_16  and  C_17 
REMARK    8  A    between atoms: C_20  and  O_21 
REMARK    9  A    between atoms: O_21  and  C_22 
ROOT
HETATM    1  N   UNL     1      42.241 -11.005   6.748  1.00  0.00    -0.058 N 
HETATM    2  H   UNL     1      41.791 -10.419   7.461  1.00  0.00     0.280 HD
HETATM    3  C   UNL     1      42.320 -10.110   5.530  1.00  0.00     0.270 C 
ENDROOT
BRANCH   1   4
HETATM    4  C   UNL     1      41.296 -12.196   6.556  1.00  0.00     0.337 C 
BRANCH   4   5
HETATM    5  C   UNL     1      41.337 -12.902   5.196  1.00  0.00     0.248 C 
HETATM    6  N   UNL     1      42.518 -13.578   4.948  1.00  0.00    -0.326 N 
HETATM    7  H   UNL     1      43.322 -13.394   5.532  1.00  0.00     0.169 HD
HETATM    8  O   UNL     1      40.369 -12.808   4.448  1.00  0.00    -0.271 OA
BRANCH   6   9
HETATM    9  C   UNL     1      42.778 -14.463   3.876  1.00  0.00     0.035 A 
HETATM   10  C   UNL     1      42.933 -15.846   4.021  1.00  0.00     0.043 A 
HETATM   11  C   UNL     1      43.258 -16.663   2.920  1.00  0.00    -0.005 A 
HETATM   12  C   UNL     1      43.397 -16.063   1.660  1.00  0.00     0.014 A 
HETATM   13  C   UNL     1      43.236 -14.686   1.506  1.00  0.00     0.003 A 
HETATM   14  C   UNL     1      42.940 -13.890   2.610  1.00  0.00     0.029 A 
BRANCH  11  15
HETATM   15  C   UNL     1      43.460 -18.099   3.126  1.00  0.00     0.074 A 
HETATM   16  C   UNL     1      43.291 -19.073   2.160  1.00  0.00     0.084 A 
HETATM   17  S   UNL     1      43.635 -20.625   2.806  1.00  0.00    -0.085 SA
HETATM   18  C   UNL     1      43.995 -19.900   4.318  1.00  0.00     0.071 A 
HETATM   19  C   UNL     1      44.402 -20.741   5.476  1.00  0.00     0.078 C 
HETATM   20  N   UNL     1      43.869 -18.591   4.362  1.00  0.00    -0.245 NA
ENDBRANCH  11  15
ENDBRANCH   6   9
ENDBRANCH   4   5
ENDBRANCH   1   4
BRANCH   1  21
HETATM   21  C   UNL     1      43.607 -11.374   7.328  1.00  0.00     0.337 C 
BRANCH  21  22
HETATM   22  C   UNL     1      43.945 -10.732   8.679  1.00  0.00     0.248 C 
HETATM   23  N   UNL     1      42.859 -10.167   9.326  1.00  0.00    -0.326 N 
HETATM   24  H   UNL     1      41.987 -10.054   8.817  1.00  0.00     0.169 HD
HETATM   25  O   UNL     1      45.091 -10.793   9.106  1.00  0.00    -0.271 OA
BRANCH  23  26
HETATM   26  C   UNL     1      42.872  -9.552  10.602  1.00  0.00     0.034 A 
HETATM   27  C   UNL     1      43.178  -8.210  10.823  1.00  0.00     0.032 A 
HETATM   28  C   UNL     1      43.146  -7.679  12.118  1.00  0.00     0.039 A 
HETATM   29  C   UNL     1      42.806  -8.473  13.214  1.00  0.00     0.078 A 
HETATM   30  C   UNL     1      42.526  -9.821  13.002  1.00  0.00     0.039 A 
HETATM   31  C   UNL     1      42.560 -10.355  11.706  1.00  0.00     0.032 A 
BRANCH  29  32
HETATM   32  O   UNL     1      42.794  -7.814  14.408  1.00  0.00    -0.255 OA
BRANCH  32  33
HETATM   33  C   UNL     1      41.532  -7.483  14.968  1.00  0.00     0.530 C 
HETATM   34  F   UNL     1      41.517  -6.208  15.412  1.00  0.00    -0.144 F 
HETATM   35  F   UNL     1      40.548  -7.653  14.059  1.00  0.00    -0.144 F 
HETATM   36  F   UNL     1      41.291  -8.300  16.014  1.00  0.00    -0.144 F 
ENDBRANCH  32  33
ENDBRANCH  29  32
ENDBRANCH  23  26
ENDBRANCH  21  22
ENDBRANCH   1  21
TORSDOF 9
ENDMDL
MODEL 7
REMARK VINA RESULT:      -8.1      2.306      4.301
REMARK  9 active torsions:
REMARK  status: ('A' for Active; 'I' for Inactive)
REMARK    1  A    between atoms: C_5  and  C_6 
REMARK    2  A    between atoms: C_8  and  N_9 
REMARK       I    between atoms: N_9  and  C_10 
REMARK    3  A    between atoms: C_10  and  C_11 
REMARK    4  A    between atoms: C_11  and  N_12 
REMARK    5  A    between atoms: N_12  and  C_14 
REMARK    6  A    between atoms: C_14  and  C_15 
REMARK       I    between atoms: C_15  and  N_16 
REMARK    7  A    between atoms: N_16  and  C_17 
REMARK    8  A    between atoms: C_20  and  O_21 
REMARK    9  A    between atoms: O_21  and  C_22 
ROOT
HETATM    1  N   UNL     1      45.538 -10.340   8.747  1.00  0.00    -0.058 N 
HETATM    2  H   UNL     1      46.242 -11.038   8.480  1.00  0.00     0.280 HD
HETATM    3  C   UNL     1      45.985  -9.077   8.045  1.00  0.00     0.270 C 
ENDROOT
BRANCH   1   4
HETATM    4  C   UNL     1      45.632 -10.242  10.274  1.00  0.00     0.337 C 
BRANCH   4   5
HETATM    5  C   UNL     1      44.316 -10.325  11.056  1.00  0.00     0.248 C 
HETATM    6  N   UNL     1      43.673  -9.110  11.208  1.00  0.00    -0.326 N 
HETATM    7  H   UNL     1      44.180  -8.258  11.011  1.00  0.00     0.169 HD
HETATM    8  O   UNL     1      43.950 -11.413  11.490  1.00  0.00    -0.271 OA
BRANCH   6   9
HETATM    9  C   UNL     1      42.370  -8.899  11.714  1.00  0.00     0.035 A 
HETATM   10  C   UNL     1      42.095  -8.291  12.943  1.00  0.00     0.043 A 
HETATM   11  C   UNL     1      40.774  -8.172  13.420  1.00  0.00    -0.005 A 
HETATM   12  C   UNL     1      39.729  -8.655  12.619  1.00  0.00     0.014 A 
HETATM   13  C   UNL     1      39.994  -9.255  11.388  1.00  0.00     0.003 A 
HETATM   14  C   UNL     1      41.308  -9.387  10.945  1.00  0.00     0.029 A 
BRANCH  11  15
HETATM   15  C   UNL     1      40.536  -7.573  14.736  1.00  0.00     0.074 A 
HETATM   16  C   UNL     1      39.714  -6.488  14.979  1.00  0.00     0.084 A 
HETATM   17  S   UNL     1      39.704  -6.106  16.651  1.00  0.00    -0.085 SA
HETATM   18  C   UNL     1      40.780  -7.409  16.941  1.00  0.00     0.071 A 
HETATM   19  C   UNL     1      41.260  -7.696  18.320  1.00  0.00     0.078 C 
HETATM   20  N   UNL     1      41.139  -8.094  15.875  1.00  0.00    -0.245 NA
ENDBRANCH  11  15
ENDBRANCH   6   9
ENDBRANCH   4   5
ENDBRANCH   1   4
BRANCH   1  21
HETATM   21  C   UNL     1      44.207 -10.890   8.233  1.00  0.00     0.337 C 
BRANCH  21  22
HETATM   22  C   UNL     1      44.313 -12.024   7.207  1.00  0.00     0.248 C 
HETATM   23  N   UNL     1      43.244 -12.905   7.222  1.00  0.00    -0.326 N 
HETATM   24  H   UNL     1      42.580 -12.857   7.988  1.00  0.00     0.169 HD
HETATM   25  O   UNL     1      45.269 -12.058   6.441  1.00  0.00    -0.271 OA
BRANCH  23  26
HETATM   26  C   UNL     1      43.058 -14.010   6.356  1.00  0.00     0.034 A 
HETATM   27  C   UNL     1      43.516 -15.299   6.620  1.00  0.00     0.032 A 
HETATM   28  C   UNL     1      43.268 -16.339   5.716  1.00  0.00     0.039 A 
HETATM   29  C   UNL     1      42.558 -16.115   4.537  1.00  0.00     0.078 A 
HETATM   30  C   UNL     1      42.120 -14.822   4.256  1.00  0.00     0.039 A 
HETATM   31  C   UNL     1      42.370 -13.779   5.158  1.00  0.00     0.032 A 
BRANCH  29  32
HETATM   32  O   UNL     1      42.373 -17.225   3.767  1.00  0.00    -0.255 OA
BRANCH  32  33
HETATM   33  C   UNL     1      43.365 -17.533   2.800  1.00  0.00     0.530 C 
HETATM   34  F   UNL     1      43.759 -16.424   2.138  1.00  0.00    -0.144 F 
HETATM   35  F   UNL     1      44.436 -18.112   3.383  1.00  0.00    -0.144 F 
HETATM   36  F   UNL     1      42.847 -18.401   1.906  1.00  0.00    -0.144 F 
ENDBRANCH  32  33
ENDBRANCH  29  32
ENDBRANCH  23  26
ENDBRANCH  21  22
ENDBRANCH   1  21
TORSDOF 9
ENDMDL
MODEL 8
REMARK VINA RESULT:      -8.0      6.986     12.135
REMARK  9 active torsions:
REMARK  status: ('A' for Active; 'I' for Inactive)
REMARK    1  A    between atoms: C_5  and  C_6 
REMARK    2  A    between atoms: C_8  and  N_9 
REMARK       I    between atoms: N_9  and  C_10 
REMARK    3  A    between atoms: C_10  and  C_11 
REMARK    4  A    between atoms: C_11  and  N_12 
REMARK    5  A    between atoms: N_12  and  C_14 
REMARK    6  A    between atoms: C_14  and  C_15 
REMARK       I    between atoms: C_15  and  N_16 
REMARK    7  A    between atoms: N_16  and  C_17 
REMARK    8  A    between atoms: C_20  and  O_21 
REMARK    9  A    between atoms: O_21  and  C_22 
ROOT
HETATM    1  N   UNL     1      42.815 -10.269   8.062  1.00  0.00    -0.058 N 
HETATM    2  H   UNL     1      42.134 -10.576   8.766  1.00  0.00     0.280 HD
HETATM    3  C   UNL     1      42.022 -10.224   6.774  1.00  0.00     0.270 C 
ENDROOT
BRANCH   1   4
HETATM    4  C   UNL     1      43.901 -11.351   8.059  1.00  0.00     0.337 C 
BRANCH   4   5
HETATM    5  C   UNL     1      44.141 -12.090   6.738  1.00  0.00     0.248 C 
HETATM    6  N   UNL     1      43.312 -13.180   6.544  1.00  0.00    -0.326 N 
HETATM    7  H   UNL     1      42.787 -13.544   7.328  1.00  0.00     0.169 HD
HETATM    8  O   UNL     1      45.025 -11.692   5.986  1.00  0.00    -0.271 OA
BRANCH   6   9
HETATM    9  C   UNL     1      43.171 -13.937   5.358  1.00  0.00     0.035 A 
HETATM   10  C   UNL     1      43.391 -15.316   5.277  1.00  0.00     0.043 A 
HETATM   11  C   UNL     1      43.299 -15.998   4.047  1.00  0.00    -0.005 A 
HETATM   12  C   UNL     1      42.953 -15.267   2.901  1.00  0.00     0.014 A 
HETATM   13  C   UNL     1      42.725 -13.893   2.975  1.00  0.00     0.003 A 
HETATM   14  C   UNL     1      42.845 -13.231   4.195  1.00  0.00     0.029 A 
BRANCH  11  15
HETATM   15  C   UNL     1      43.586 -17.434   3.999  1.00  0.00     0.074 A 
HETATM   16  C   UNL     1      43.998 -18.199   5.074  1.00  0.00     0.084 A 
HETATM   17  S   UNL     1      44.218 -19.833   4.599  1.00  0.00    -0.085 SA
HETATM   18  C   UNL     1      43.744 -19.418   3.004  1.00  0.00     0.071 A 
HETATM   19  C   UNL     1      43.708 -20.454   1.937  1.00  0.00     0.078 C 
HETATM   20  N   UNL     1      43.441 -18.150   2.816  1.00  0.00    -0.245 NA
ENDBRANCH  11  15
ENDBRANCH   6   9
ENDBRANCH   4   5
ENDBRANCH   1   4
BRANCH   1  21
HETATM   21  C   UNL     1      43.297  -8.897   8.534  1.00  0.00     0.337 C 
BRANCH  21  22
HETATM   22  C   UNL     1      42.635  -8.369   9.813  1.00  0.00     0.248 C 
HETATM   23  N   UNL     1      42.890  -9.133  10.940  1.00  0.00    -0.326 N 
HETATM   24  H   UNL     1      43.324 -10.044  10.829  1.00  0.00     0.169 HD
HETATM   25  O   UNL     1      41.987  -7.331   9.773  1.00  0.00    -0.271 OA
BRANCH  23  26
HETATM   26  C   UNL     1      42.448  -8.854  12.257  1.00  0.00     0.034 A 
HETATM   27  C   UNL     1      41.350  -9.464  12.860  1.00  0.00     0.032 A 
HETATM   28  C   UNL     1      40.995  -9.144  14.177  1.00  0.00     0.039 A 
HETATM   29  C   UNL     1      41.729  -8.215  14.915  1.00  0.00     0.078 A 
HETATM   30  C   UNL     1      42.812  -7.584  14.307  1.00  0.00     0.039 A 
HETATM   31  C   UNL     1      43.167  -7.901  12.988  1.00  0.00     0.032 A 
BRANCH  29  32
HETATM   32  O   UNL     1      41.281  -8.024  16.189  1.00  0.00    -0.255 OA
BRANCH  32  33
HETATM   33  C   UNL     1      40.613  -6.806  16.479  1.00  0.00     0.530 C 
HETATM   34  F   UNL     1      39.941  -6.351  15.400  1.00  0.00    -0.144 F 
HETATM   35  F   UNL     1      39.754  -6.967  17.508  1.00  0.00    -0.144 F 
HETATM   36  F   UNL     1      41.529  -5.879  16.831  1.00  0.00    -0.144 F 
ENDBRANCH  32  33
ENDBRANCH  29  32
ENDBRANCH  23  26
ENDBRANCH  21  22
ENDBRANCH   1  21
TORSDOF 9
ENDMDL
MODEL 9
REMARK VINA RESULT:      -8.0      6.179     10.025
REMARK  9 active torsions:
REMARK  status: ('A' for Active; 'I' for Inactive)
REMARK    1  A    between atoms: C_5  and  C_6 
REMARK    2  A    between atoms: C_8  and  N_9 
REMARK       I    between atoms: N_9  and  C_10 
REMARK    3  A    between atoms: C_10  and  C_11 
REMARK    4  A    between atoms: C_11  and  N_12 
REMARK    5  A    between atoms: N_12  and  C_14 
REMARK    6  A    between atoms: C_14  and  C_15 
REMARK       I    between atoms: C_15  and  N_16 
REMARK    7  A    between atoms: N_16  and  C_17 
REMARK    8  A    between atoms: C_20  and  O_21 
REMARK    9  A    between atoms: O_21  and  C_22 
ROOT
HETATM    1  N   UNL     1      38.576 -12.412  -1.120  1.00  0.00    -0.058 N 
HETATM    2  H   UNL     1      37.938 -13.008  -0.580  1.00  0.00     0.280 HD
HETATM    3  C   UNL     1      37.794 -12.071  -2.370  1.00  0.00     0.270 C 
ENDROOT
BRANCH   1   4
HETATM    4  C   UNL     1      39.801 -13.289  -1.400  1.00  0.00     0.337 C 
BRANCH   4   5
HETATM    5  C   UNL     1      40.335 -14.128  -0.233  1.00  0.00     0.248 C 
HETATM    6  N   UNL     1      41.465 -13.603   0.367  1.00  0.00    -0.326 N 
HETATM    7  H   UNL     1      41.977 -12.870  -0.104  1.00  0.00     0.169 HD
HETATM    8  O   UNL     1      39.759 -15.171   0.062  1.00  0.00    -0.271 OA
BRANCH   6   9
HETATM    9  C   UNL     1      42.070 -14.046   1.566  1.00  0.00     0.035 A 
HETATM   10  C   UNL     1      42.464 -15.367   1.804  1.00  0.00     0.043 A 
HETATM   11  C   UNL     1      43.000 -15.755   3.048  1.00  0.00    -0.005 A 
HETATM   12  C   UNL     1      43.158 -14.779   4.042  1.00  0.00     0.014 A 
HETATM   13  C   UNL     1      42.776 -13.458   3.810  1.00  0.00     0.003 A 
HETATM   14  C   UNL     1      42.224 -13.097   2.583  1.00  0.00     0.029 A 
BRANCH  11  15
HETATM   15  C   UNL     1      43.353 -17.160   3.272  1.00  0.00     0.074 A 
HETATM   16  C   UNL     1      43.766 -17.694   4.478  1.00  0.00     0.084 A 
HETATM   17  S   UNL     1      44.073 -19.374   4.316  1.00  0.00    -0.085 SA
HETATM   18  C   UNL     1      43.628 -19.282   2.663  1.00  0.00     0.071 A 
HETATM   19  C   UNL     1      43.670 -20.497   1.804  1.00  0.00     0.078 C 
HETATM   20  N   UNL     1      43.275 -18.087   2.238  1.00  0.00    -0.245 NA
ENDBRANCH  11  15
ENDBRANCH   6   9
ENDBRANCH   4   5
ENDBRANCH   1   4
BRANCH   1  21
HETATM   21  C   UNL     1      38.859 -11.205  -0.225  1.00  0.00     0.337 C 
BRANCH  21  22
HETATM   22  C   UNL     1      38.377 -11.330   1.225  1.00  0.00     0.248 C 
HETATM   23  N   UNL     1      39.331 -10.992   2.171  1.00  0.00    -0.326 N 
HETATM   24  H   UNL     1      40.293 -10.863   1.874  1.00  0.00     0.169 HD
HETATM   25  O   UNL     1      37.220 -11.663   1.450  1.00  0.00    -0.271 OA
BRANCH  23  26
HETATM   26  C   UNL     1      39.146 -10.970   3.575  1.00  0.00     0.034 A 
HETATM   27  C   UNL     1      39.372 -12.061   4.412  1.00  0.00     0.032 A 
HETATM   28  C   UNL     1      39.184 -11.944   5.795  1.00  0.00     0.039 A 
HETATM   29  C   UNL     1      38.772 -10.740   6.367  1.00  0.00     0.078 A 
HETATM   30  C   UNL     1      38.520  -9.655   5.532  1.00  0.00     0.039 A 
HETATM   31  C   UNL     1      38.705  -9.770   4.146  1.00  0.00     0.032 A 
BRANCH  29  32
HETATM   32  O   UNL     1      38.655 -10.769   7.726  1.00  0.00    -0.255 OA
BRANCH  32  33
HETATM   33  C   UNL     1      39.432  -9.850   8.477  1.00  0.00     0.530 C 
HETATM   34  F   UNL     1      40.723  -9.865   8.080  1.00  0.00    -0.144 F 
HETATM   35  F   UNL     1      38.940  -8.598   8.354  1.00  0.00    -0.144 F 
HETATM   36  F   UNL     1      39.384 -10.200   9.779  1.00  0.00    -0.144 F 
ENDBRANCH  32  33
ENDBRANCH  29  32
ENDBRANCH  23  26
ENDBRANCH  21  22
ENDBRANCH   1  21
TORSDOF 9
ENDMDL
MODEL 10
REMARK VINA RESULT:      -8.0      5.064      8.577
REMARK  9 active torsions:
REMARK  status: ('A' for Active; 'I' for Inactive)
REMARK    1  A    between atoms: C_5  and  C_6 
REMARK    2  A    between atoms: C_8  and  N_9 
REMARK       I    between atoms: N_9  and  C_10 
REMARK    3  A    between atoms: C_10  and  C_11 
REMARK    4  A    between atoms: C_11  and  N_12 
REMARK    5  A    between atoms: N_12  and  C_14 
REMARK    6  A    between atoms: C_14  and  C_15 
REMARK       I    between atoms: C_15  and  N_16 
REMARK    7  A    between atoms: N_16  and  C_17 
REMARK    8  A    between atoms: C_20  and  O_21 
REMARK    9  A    between atoms: O_21  and  C_22 
ROOT
HETATM    1  N   UNL     1      40.673 -11.907   5.323  1.00  0.00    -0.058 N 
HETATM    2  H   UNL     1      40.025 -12.406   4.703  1.00  0.00     0.280 HD
HETATM    3  C   UNL     1      39.797 -10.907   6.047  1.00  0.00     0.270 C 
ENDROOT
BRANCH   1   4
HETATM    4  C   UNL     1      41.690 -11.244   4.388  1.00  0.00     0.337 C 
BRANCH   4   5
HETATM    5  C   UNL     1      41.556 -11.546   2.891  1.00  0.00     0.248 C 
HETATM    6  N   UNL     1      40.574 -12.472   2.589  1.00  0.00    -0.326 N 
HETATM    7  H   UNL     1      40.181 -13.032   3.332  1.00  0.00     0.169 HD
HETATM    8  O   UNL     1      42.307 -10.983   2.101  1.00  0.00    -0.271 OA
BRANCH   6   9
HETATM    9  C   UNL     1      40.096 -12.810   1.301  1.00  0.00     0.035 A 
HETATM   10  C   UNL     1      39.282 -11.980   0.524  1.00  0.00     0.043 A 
HETATM   11  C   UNL     1      38.785 -12.407  -0.724  1.00  0.00    -0.005 A 
HETATM   12  C   UNL     1      39.147 -13.679  -1.188  1.00  0.00     0.014 A 
HETATM   13  C   UNL     1      39.966 -14.510  -0.423  1.00  0.00     0.003 A 
HETATM   14  C   UNL     1      40.427 -14.081   0.820  1.00  0.00     0.029 A 
BRANCH  11  15
HETATM   15  C   UNL     1      37.894 -11.524  -1.482  1.00  0.00     0.074 A 
HETATM   16  C   UNL     1      37.096 -11.918  -2.540  1.00  0.00     0.084 A 
HETATM   17  S   UNL     1      36.202 -10.586  -3.145  1.00  0.00    -0.085 SA
HETATM   18  C   UNL     1      36.923  -9.580  -1.958  1.00  0.00     0.071 A 
HETATM   19  C   UNL     1      36.582  -8.133  -1.891  1.00  0.00     0.078 C 
HETATM   20  N   UNL     1      37.780 -10.177  -1.157  1.00  0.00    -0.245 NA
ENDBRANCH  11  15
ENDBRANCH   6   9
ENDBRANCH   4   5
ENDBRANCH   1   4
BRANCH   1  21
HETATM   21  C   UNL     1      41.266 -12.978   6.239  1.00  0.00     0.337 C 
BRANCH  21  22
HETATM   22  C   UNL     1      41.443 -14.363   5.606  1.00  0.00     0.248 C 
HETATM   23  N   UNL     1      42.636 -14.525   4.920  1.00  0.00    -0.326 N 
HETATM   24  H   UNL     1      43.209 -13.709   4.733  1.00  0.00     0.169 HD
HETATM   25  O   UNL     1      40.581 -15.218   5.772  1.00  0.00    -0.271 OA
BRANCH  23  26
HETATM   26  C   UNL     1      43.080 -15.709   4.283  1.00  0.00     0.034 A 
HETATM   27  C   UNL     1      43.626 -16.802   4.952  1.00  0.00     0.032 A 
HETATM   28  C   UNL     1      44.020 -17.944   4.243  1.00  0.00     0.039 A 
HETATM   29  C   UNL     1      43.874 -18.018   2.858  1.00  0.00     0.078 A 
HETATM   30  C   UNL     1      43.352 -16.918   2.181  1.00  0.00     0.039 A 
HETATM   31  C   UNL     1      42.960 -15.773   2.889  1.00  0.00     0.032 A 
BRANCH  29  32
HETATM   32  O   UNL     1      44.277 -19.199   2.308  1.00  0.00    -0.255 OA
BRANCH  32  33
HETATM   33  C   UNL     1      43.306 -20.221   2.147  1.00  0.00     0.530 C 
HETATM   34  F   UNL     1      43.521 -20.923   1.014  1.00  0.00    -0.144 F 
HETATM   35  F   UNL     1      43.316 -21.060   3.204  1.00  0.00    -0.144 F 
HETATM   36  F   UNL     1      42.084 -19.652   2.068  1.00  0.00    -0.144 F 
ENDBRANCH  32  33
ENDBRANCH  29  32
ENDBRANCH  23  26
ENDBRANCH  21  22
ENDBRANCH   1  21
TORSDOF 9
ENDMDL
