MODEL 1
REMARK VINA RESULT:      -9.5      0.000      0.000
REMARK  4 active torsions:
REMARK  status: ('A' for Active; 'I' for Inactive)
REMARK    1  A    between atoms: C_6  and  C_7 
REMARK    2  A    between atoms: C_15  and  C_16 
REMARK       I    between atoms: C_16  and  N_17 
REMARK    3  A    between atoms: N_17  and  N_18 
REMARK       I    between atoms: N_18  and  C_19 
REMARK       I    between atoms: C_19  and  N_20 
REMARK    4  A    between atoms: N_20  and  C_21 
ROOT
HETATM    1  C   UNL     1      40.039 -12.402   1.449  1.00  0.00     0.001 A 
HETATM    2  C   UNL     1      40.767 -12.629   2.616  1.00  0.00     0.015 A 
HETATM    3  C   UNL     1      41.354 -13.894   2.883  1.00  0.00     0.009 A 
HETATM    4  C   UNL     1      41.200 -14.924   1.937  1.00  0.00     0.068 A 
HETATM    5  N   UNL     1      41.738 -16.145   2.089  1.00  0.00    -0.248 NA
HETATM    6  C   UNL     1      42.463 -16.431   3.196  1.00  0.00     0.070 A 
HETATM    7  C   UNL     1      42.640 -15.501   4.205  1.00  0.00     0.050 A 
HETATM    8  C   UNL     1      42.111 -14.218   4.032  1.00  0.00     0.048 A 
HETATM    9  C   UNL     1      40.471 -14.672   0.782  1.00  0.00     0.032 A 
HETATM   10  C   UNL     1      39.889 -13.428   0.529  1.00  0.00     0.002 A 
ENDROOT
BRANCH   8  11
HETATM   11  C   UNL     1      42.397 -13.205   5.081  1.00  0.00     0.271 C 
HETATM   12  N   UNL     1      43.693 -12.730   5.080  1.00  0.00    -0.262 N 
HETATM   13  H   UNL     1      44.437 -13.116   4.505  1.00  0.00     0.190 HD
HETATM   14  O   UNL     1      41.528 -12.826   5.858  1.00  0.00    -0.266 OA
BRANCH  12  15
HETATM   15  N   UNL     1      44.089 -11.843   6.085  1.00  0.00    -0.249 N 
HETATM   16  C   UNL     1      45.297 -11.210   5.951  1.00  0.00     0.341 C 
HETATM   17  N   UNL     1      45.726 -10.437   6.985  1.00  0.00    -0.286 N 
HETATM   18  O   UNL     1      45.969 -11.279   4.919  1.00  0.00    -0.245 OA
HETATM   19  H   UNL     1      46.597  -9.950   6.845  1.00  0.00     0.172 HD
HETATM   20  H   UNL     1      43.734 -12.026   7.027  1.00  0.00     0.192 HD
BRANCH  17  21
HETATM   21  C   UNL     1      45.055 -10.235   8.154  1.00  0.00     0.174 A 
HETATM   22  S   UNL     1      44.910  -8.605   8.628  1.00  0.00    -0.062 SA
HETATM   23  C   UNL     1      44.022  -9.110  10.007  1.00  0.00     0.072 A 
HETATM   24  C   UNL     1      43.916 -10.486  10.008  1.00  0.00     0.126 A 
HETATM   25  N   UNL     1      44.515 -11.131   8.943  1.00  0.00    -0.236 NA
ENDBRANCH  17  21
ENDBRANCH  12  15
ENDBRANCH   8  11
BRANCH   6  26
HETATM   26  C   UNL     1      43.014 -17.798   3.250  1.00  0.00     0.014 A 
HETATM   27  C   UNL     1      43.777 -18.301   4.323  1.00  0.00     0.046 A 
HETATM   28 CL   UNL     1      44.213 -17.334   5.694  1.00  0.00    -0.083 Cl
HETATM   29  C   UNL     1      44.265 -19.615   4.307  1.00  0.00     0.025 A 
HETATM   30  C   UNL     1      44.020 -20.447   3.217  1.00  0.00     0.002 A 
HETATM   31  C   UNL     1      43.291 -19.967   2.135  1.00  0.00     0.001 A 
HETATM   32  C   UNL     1      42.796 -18.660   2.154  1.00  0.00     0.015 A 
ENDBRANCH   6  26
TORSDOF 4
ENDMDL
MODEL 2
REMARK VINA RESULT:      -9.3      3.885      7.023
REMARK  4 active torsions:
REMARK  status: ('A' for Active; 'I' for Inactive)
REMARK    1  A    between atoms: C_6  and  C_7 
REMARK    2  A    between atoms: C_15  and  C_16 
REMARK       I    between atoms: C_16  and  N_17 
REMARK    3  A    between atoms: N_17  and  N_18 
REMARK       I    between atoms: N_18  and  C_19 
REMARK       I    between atoms: C_19  and  N_20 
REMARK    4  A    between atoms: N_20  and  C_21 
ROOT
HETATM    1  C   UNL     1      42.660 -12.095   5.700  1.00  0.00     0.001 A 
HETATM    2  C   UNL     1      42.185 -12.710   4.543  1.00  0.00     0.015 A 
HETATM    3  C   UNL     1      42.448 -14.079   4.276  1.00  0.00     0.009 A 
HETATM    4  C   UNL     1      43.192 -14.820   5.212  1.00  0.00     0.068 A 
HETATM    5  N   UNL     1      43.471 -16.124   5.060  1.00  0.00    -0.248 NA
HETATM    6  C   UNL     1      43.033 -16.785   3.962  1.00  0.00     0.070 A 
HETATM    7  C   UNL     1      42.328 -16.139   2.962  1.00  0.00     0.050 A 
HETATM    8  C   UNL     1      42.006 -14.790   3.136  1.00  0.00     0.048 A 
HETATM    9  C   UNL     1      43.654 -14.184   6.358  1.00  0.00     0.032 A 
HETATM   10  C   UNL     1      43.398 -12.835   6.610  1.00  0.00     0.002 A 
ENDROOT
BRANCH   8  11
HETATM   11  C   UNL     1      41.163 -14.141   2.099  1.00  0.00     0.271 C 
HETATM   12  N   UNL     1      41.619 -14.301   0.806  1.00  0.00    -0.262 N 
HETATM   13  H   UNL     1      42.519 -14.714   0.571  1.00  0.00     0.190 HD
HETATM   14  O   UNL     1      40.138 -13.536   2.394  1.00  0.00    -0.266 OA
BRANCH  12  15
HETATM   15  N   UNL     1      40.950 -13.653  -0.234  1.00  0.00    -0.249 N 
HETATM   16  C   UNL     1      39.907 -14.303  -0.839  1.00  0.00     0.341 C 
HETATM   17  N   UNL     1      39.335 -13.714  -1.924  1.00  0.00    -0.286 N 
HETATM   18  O   UNL     1      39.449 -15.364  -0.407  1.00  0.00    -0.245 OA
HETATM   19  H   UNL     1      38.544 -14.193  -2.324  1.00  0.00     0.172 HD
HETATM   20  H   UNL     1      41.493 -12.981  -0.783  1.00  0.00     0.192 HD
BRANCH  17  21
HETATM   21  C   UNL     1      39.710 -12.522  -2.467  1.00  0.00     0.174 A 
HETATM   22  S   UNL     1      38.470 -11.357  -2.572  1.00  0.00    -0.062 SA
HETATM   23  C   UNL     1      39.598 -10.254  -3.248  1.00  0.00     0.072 A 
HETATM   24  C   UNL     1      40.832 -10.862  -3.354  1.00  0.00     0.126 A 
HETATM   25  N   UNL     1      40.892 -12.169  -2.908  1.00  0.00    -0.236 NA
ENDBRANCH  17  21
ENDBRANCH  12  15
ENDBRANCH   8  11
BRANCH   6  26
HETATM   26  C   UNL     1      43.388 -18.216   3.908  1.00  0.00     0.014 A 
HETATM   27  C   UNL     1      43.620 -19.017   5.044  1.00  0.00     0.046 A 
HETATM   28 CL   UNL     1      43.574 -18.385   6.658  1.00  0.00    -0.083 Cl
HETATM   29  C   UNL     1      43.949 -20.373   4.916  1.00  0.00     0.025 A 
HETATM   30  C   UNL     1      44.073 -20.954   3.656  1.00  0.00     0.002 A 
HETATM   31  C   UNL     1      43.873 -20.180   2.519  1.00  0.00     0.001 A 
HETATM   32  C   UNL     1      43.536 -18.830   2.646  1.00  0.00     0.015 A 
ENDBRANCH   6  26
TORSDOF 4
ENDMDL
MODEL 3
REMARK VINA RESULT:      -9.3      2.016      2.626
REMARK  4 active torsions:
REMARK  status: ('A' for Active; 'I' for Inactive)
REMARK    1  A    between atoms: C_6  and  C_7 
REMARK    2  A    between atoms: C_15  and  C_16 
REMARK       I    between atoms: C_16  and  N_17 
REMARK    3  A    between atoms: N_17  and  N_18 
REMARK       I    between atoms: N_18  and  C_19 
REMARK       I    between atoms: C_19  and  N_20 
REMARK    4  A    between atoms: N_20  and  C_21 
ROOT
HETATM    1  C   UNL     1      39.233 -11.324   3.163  1.00  0.00     0.001 A 
HETATM    2  C   UNL     1      40.379 -11.383   3.954  1.00  0.00     0.015 A 
HETATM    3  C   UNL     1      41.092 -12.599   4.128  1.00  0.00     0.009 A 
HETATM    4  C   UNL     1      40.629 -13.753   3.471  1.00  0.00     0.068 A 
HETATM    5  N   UNL     1      41.248 -14.942   3.553  1.00  0.00    -0.248 NA
HETATM    6  C   UNL     1      42.371 -15.068   4.300  1.00  0.00     0.070 A 
HETATM    7  C   UNL     1      42.886 -14.003   5.017  1.00  0.00     0.050 A 
HETATM    8  C   UNL     1      42.263 -12.756   4.904  1.00  0.00     0.048 A 
HETATM    9  C   UNL     1      39.485 -13.668   2.687  1.00  0.00     0.032 A 
HETATM   10  C   UNL     1      38.784 -12.471   2.528  1.00  0.00     0.002 A 
ENDROOT
BRANCH   8  11
HETATM   11  C   UNL     1      42.890 -11.604   5.602  1.00  0.00     0.271 C 
HETATM   12  N   UNL     1      42.671 -11.571   6.964  1.00  0.00    -0.262 N 
HETATM   13  H   UNL     1      42.034 -12.198   7.450  1.00  0.00     0.190 HD
HETATM   14  O   UNL     1      43.560 -10.776   4.994  1.00  0.00    -0.266 OA
BRANCH  12  15
HETATM   15  N   UNL     1      43.139 -10.479   7.699  1.00  0.00    -0.249 N 
HETATM   16  C   UNL     1      44.370 -10.578   8.294  1.00  0.00     0.341 C 
HETATM   17  N   UNL     1      44.768  -9.557   9.100  1.00  0.00    -0.286 N 
HETATM   18  O   UNL     1      45.132 -11.525   8.085  1.00  0.00    -0.245 OA
HETATM   19  H   UNL     1      45.693  -9.635   9.492  1.00  0.00     0.172 HD
HETATM   20  H   UNL     1      42.433  -9.878   8.131  1.00  0.00     0.192 HD
BRANCH  17  21
HETATM   21  C   UNL     1      44.046  -8.434   9.371  1.00  0.00     0.174 A 
HETATM   22  S   UNL     1      43.236  -8.444  10.870  1.00  0.00    -0.062 SA
HETATM   23  C   UNL     1      42.649  -6.866  10.536  1.00  0.00     0.072 A 
HETATM   24  C   UNL     1      43.105  -6.457   9.300  1.00  0.00     0.126 A 
HETATM   25  N   UNL     1      43.905  -7.362   8.630  1.00  0.00    -0.236 NA
ENDBRANCH  17  21
ENDBRANCH  12  15
ENDBRANCH   8  11
BRANCH   6  26
HETATM   26  C   UNL     1      42.972 -16.415   4.307  1.00  0.00     0.014 A 
HETATM   27  C   UNL     1      43.429 -17.083   3.154  1.00  0.00     0.046 A 
HETATM   28 CL   UNL     1      43.278 -16.411   1.562  1.00  0.00    -0.083 Cl
HETATM   29  C   UNL     1      43.995 -18.363   3.237  1.00  0.00     0.025 A 
HETATM   30  C   UNL     1      44.099 -19.011   4.467  1.00  0.00     0.002 A 
HETATM   31  C   UNL     1      43.633 -18.383   5.616  1.00  0.00     0.001 A 
HETATM   32  C   UNL     1      43.077 -17.103   5.535  1.00  0.00     0.015 A 
ENDBRANCH   6  26
TORSDOF 4
ENDMDL
MODEL 4
REMARK VINA RESULT:      -9.3      3.813      8.526
REMARK  4 active torsions:
REMARK  status: ('A' for Active; 'I' for Inactive)
REMARK    1  A    between atoms: C_6  and  C_7 
REMARK    2  A    between atoms: C_15  and  C_16 
REMARK       I    between atoms: C_16  and  N_17 
REMARK    3  A    between atoms: N_17  and  N_18 
REMARK       I    between atoms: N_18  and  C_19 
REMARK       I    between atoms: C_19  and  N_20 
REMARK    4  A    between atoms: N_20  and  C_21 
ROOT
HETATM    1  C   UNL     1      42.668 -17.183   5.589  1.00  0.00     0.001 A 
HETATM    2  C   UNL     1      42.588 -16.048   4.786  1.00  0.00     0.015 A 
HETATM    3  C   UNL     1      42.972 -14.771   5.274  1.00  0.00     0.009 A 
HETATM    4  C   UNL     1      43.454 -14.668   6.591  1.00  0.00     0.068 A 
HETATM    5  N   UNL     1      43.865 -13.511   7.133  1.00  0.00    -0.248 NA
HETATM    6  C   UNL     1      43.819 -12.370   6.405  1.00  0.00     0.070 A 
HETATM    7  C   UNL     1      43.324 -12.356   5.113  1.00  0.00     0.050 A 
HETATM    8  C   UNL     1      42.930 -13.566   4.534  1.00  0.00     0.048 A 
HETATM    9  C   UNL     1      43.526 -15.815   7.372  1.00  0.00     0.032 A 
HETATM   10  C   UNL     1      43.139 -17.066   6.888  1.00  0.00     0.002 A 
ENDROOT
BRANCH   8  11
HETATM   11  C   UNL     1      42.496 -13.545   3.114  1.00  0.00     0.271 C 
HETATM   12  N   UNL     1      41.140 -13.361   2.932  1.00  0.00    -0.262 N 
HETATM   13  H   UNL     1      40.461 -13.365   3.690  1.00  0.00     0.190 HD
HETATM   14  O   UNL     1      43.301 -13.662   2.197  1.00  0.00    -0.266 OA
BRANCH  12  15
HETATM   15  N   UNL     1      40.617 -13.418   1.637  1.00  0.00    -0.249 N 
HETATM   16  C   UNL     1      40.028 -14.585   1.226  1.00  0.00     0.341 C 
HETATM   17  N   UNL     1      39.625 -14.669  -0.070  1.00  0.00    -0.286 N 
HETATM   18  O   UNL     1      39.814 -15.525   1.996  1.00  0.00    -0.245 OA
HETATM   19  H   UNL     1      39.158 -15.522  -0.336  1.00  0.00     0.172 HD
HETATM   20  H   UNL     1      41.059 -12.819   0.936  1.00  0.00     0.192 HD
BRANCH  17  21
HETATM   21  C   UNL     1      39.755 -13.687  -1.006  1.00  0.00     0.174 A 
HETATM   22  S   UNL     1      38.403 -13.479  -2.023  1.00  0.00    -0.062 SA
HETATM   23  C   UNL     1      39.225 -12.194  -2.810  1.00  0.00     0.072 A 
HETATM   24  C   UNL     1      40.473 -12.030  -2.246  1.00  0.00     0.126 A 
HETATM   25  N   UNL     1      40.777 -12.893  -1.210  1.00  0.00    -0.236 NA
ENDBRANCH  17  21
ENDBRANCH  12  15
ENDBRANCH   8  11
BRANCH   6  26
HETATM   26  C   UNL     1      44.305 -11.163   7.098  1.00  0.00     0.014 A 
HETATM   27  C   UNL     1      43.470 -10.123   7.555  1.00  0.00     0.046 A 
HETATM   28 CL   UNL     1      41.757 -10.116   7.292  1.00  0.00    -0.083 Cl
HETATM   29  C   UNL     1      44.003  -9.005   8.212  1.00  0.00     0.025 A 
HETATM   30  C   UNL     1      45.377  -8.891   8.411  1.00  0.00     0.002 A 
HETATM   31  C   UNL     1      46.225  -9.892   7.950  1.00  0.00     0.001 A 
HETATM   32  C   UNL     1      45.693 -11.010   7.302  1.00  0.00     0.015 A 
ENDBRANCH   6  26
TORSDOF 4
ENDMDL
MODEL 5
REMARK VINA RESULT:      -9.2      1.744      4.554
REMARK  4 active torsions:
REMARK  status: ('A' for Active; 'I' for Inactive)
REMARK    1  A    between atoms: C_6  and  C_7 
REMARK    2  A    between atoms: C_15  and  C_16 
REMARK       I    between atoms: C_16  and  N_17 
REMARK    3  A    between atoms: N_17  and  N_18 
REMARK       I    between atoms: N_18  and  C_19 
REMARK       I    between atoms: C_19  and  N_20 
REMARK    4  A    between atoms: N_20  and  C_21 
ROOT
HETATM    1  C   UNL     1      44.195 -17.794   4.908  1.00  0.00     0.001 A 
HETATM    2  C   UNL     1      43.834 -16.462   5.098  1.00  0.00     0.015 A 
HETATM    3  C   UNL     1      43.133 -15.739   4.098  1.00  0.00     0.009 A 
HETATM    4  C   UNL     1      42.792 -16.397   2.902  1.00  0.00     0.068 A 
HETATM    5  N   UNL     1      42.108 -15.806   1.909  1.00  0.00    -0.248 NA
HETATM    6  C   UNL     1      41.720 -14.515   2.032  1.00  0.00     0.070 A 
HETATM    7  C   UNL     1      42.040 -13.766   3.150  1.00  0.00     0.050 A 
HETATM    8  C   UNL     1      42.720 -14.390   4.201  1.00  0.00     0.048 A 
HETATM    9  C   UNL     1      43.162 -17.726   2.737  1.00  0.00     0.032 A 
HETATM   10  C   UNL     1      43.859 -18.428   3.722  1.00  0.00     0.002 A 
ENDROOT
BRANCH   8  11
HETATM   11  C   UNL     1      42.966 -13.598   5.433  1.00  0.00     0.271 C 
HETATM   12  N   UNL     1      43.620 -12.401   5.223  1.00  0.00    -0.262 N 
HETATM   13  H   UNL     1      44.021 -12.123   4.330  1.00  0.00     0.190 HD
HETATM   14  O   UNL     1      42.589 -13.990   6.531  1.00  0.00    -0.266 OA
BRANCH  12  15
HETATM   15  N   UNL     1      43.981 -11.624   6.327  1.00  0.00    -0.249 N 
HETATM   16  C   UNL     1      45.259 -11.135   6.385  1.00  0.00     0.341 C 
HETATM   17  N   UNL     1      45.636 -10.477   7.515  1.00  0.00    -0.286 N 
HETATM   18  O   UNL     1      46.048 -11.229   5.441  1.00  0.00    -0.245 OA
HETATM   19  H   UNL     1      46.567 -10.092   7.516  1.00  0.00     0.172 HD
HETATM   20  H   UNL     1      43.488 -11.813   7.204  1.00  0.00     0.192 HD
BRANCH  17  21
HETATM   21  C   UNL     1      44.847 -10.259   8.605  1.00  0.00     0.174 A 
HETATM   22  S   UNL     1      44.436  -8.628   8.880  1.00  0.00    -0.062 SA
HETATM   23  C   UNL     1      43.513  -9.117  10.243  1.00  0.00     0.072 A 
HETATM   24  C   UNL     1      43.600 -10.486  10.392  1.00  0.00     0.126 A 
HETATM   25  N   UNL     1      44.372 -11.140   9.450  1.00  0.00    -0.236 NA
ENDBRANCH  17  21
ENDBRANCH  12  15
ENDBRANCH   8  11
BRANCH   6  26
HETATM   26  C   UNL     1      40.966 -13.974   0.885  1.00  0.00     0.014 A 
HETATM   27  C   UNL     1      40.953 -12.613   0.518  1.00  0.00     0.046 A 
HETATM   28 CL   UNL     1      41.784 -11.392   1.427  1.00  0.00    -0.083 Cl
HETATM   29  C   UNL     1      40.216 -12.171  -0.589  1.00  0.00     0.025 A 
HETATM   30  C   UNL     1      39.464 -13.071  -1.343  1.00  0.00     0.002 A 
HETATM   31  C   UNL     1      39.442 -14.415  -0.988  1.00  0.00     0.001 A 
HETATM   32  C   UNL     1      40.183 -14.857   0.111  1.00  0.00     0.015 A 
ENDBRANCH   6  26
TORSDOF 4
ENDMDL
MODEL 6
REMARK VINA RESULT:      -8.8      2.704      2.979
REMARK  4 active torsions:
REMARK  status: ('A' for Active; 'I' for Inactive)
REMARK    1  A    between atoms: C_6  and  C_7 
REMARK    2  A    between atoms: C_15  and  C_16 
REMARK       I    between atoms: C_16  and  N_17 
REMARK    3  A    between atoms: N_17  and  N_18 
REMARK       I    between atoms: N_18  and  C_19 
REMARK       I    between atoms: C_19  and  N_20 
REMARK    4  A    between atoms: N_20  and  C_21 
ROOT
HETATM    1  C   UNL     1      38.977 -11.853   1.528  1.00  0.00     0.001 A 
HETATM    2  C   UNL     1      39.349 -12.180   2.830  1.00  0.00     0.015 A 
HETATM    3  C   UNL     1      40.145 -13.323   3.105  1.00  0.00     0.009 A 
HETATM    4  C   UNL     1      40.570 -14.124   2.029  1.00  0.00     0.068 A 
HETATM    5  N   UNL     1      41.345 -15.209   2.185  1.00  0.00    -0.248 NA
HETATM    6  C   UNL     1      41.749 -15.579   3.424  1.00  0.00     0.070 A 
HETATM    7  C   UNL     1      41.352 -14.882   4.551  1.00  0.00     0.050 A 
HETATM    8  C   UNL     1      40.576 -13.731   4.388  1.00  0.00     0.048 A 
HETATM    9  C   UNL     1      40.187 -13.777   0.740  1.00  0.00     0.032 A 
HETATM   10  C   UNL     1      39.397 -12.656   0.478  1.00  0.00     0.002 A 
ENDROOT
BRANCH   8  11
HETATM   11  C   UNL     1      40.245 -12.942   5.602  1.00  0.00     0.271 C 
HETATM   12  N   UNL     1      40.927 -11.748   5.713  1.00  0.00    -0.262 N 
HETATM   13  H   UNL     1      41.687 -11.470   5.096  1.00  0.00     0.190 HD
HETATM   14  O   UNL     1      39.414 -13.335   6.414  1.00  0.00    -0.266 OA
BRANCH  12  15
HETATM   15  N   UNL     1      40.757 -10.975   6.865  1.00  0.00    -0.249 N 
HETATM   16  C   UNL     1      39.902  -9.906   6.808  1.00  0.00     0.341 C 
HETATM   17  N   UNL     1      39.829  -9.093   7.896  1.00  0.00    -0.286 N 
HETATM   18  O   UNL     1      39.174  -9.692   5.835  1.00  0.00    -0.245 OA
HETATM   19  H   UNL     1      39.163  -8.339   7.844  1.00  0.00     0.172 HD
HETATM   20  H   UNL     1      41.548 -10.936   7.513  1.00  0.00     0.192 HD
BRANCH  17  21
HETATM   21  C   UNL     1      40.538  -9.249   9.050  1.00  0.00     0.174 A 
HETATM   22  S   UNL     1      39.593  -9.453  10.453  1.00  0.00    -0.062 SA
HETATM   23  C   UNL     1      41.035  -9.602  11.372  1.00  0.00     0.072 A 
HETATM   24  C   UNL     1      42.128  -9.471  10.541  1.00  0.00     0.126 A 
HETATM   25  N   UNL     1      41.839  -9.263   9.205  1.00  0.00    -0.236 NA
ENDBRANCH  17  21
ENDBRANCH  12  15
ENDBRANCH   8  11
BRANCH   6  26
HETATM   26  C   UNL     1      42.605 -16.779   3.473  1.00  0.00     0.014 A 
HETATM   27  C   UNL     1      43.545 -17.038   4.490  1.00  0.00     0.046 A 
HETATM   28 CL   UNL     1      43.849 -15.928   5.787  1.00  0.00    -0.083 Cl
HETATM   29  C   UNL     1      44.323 -18.204   4.475  1.00  0.00     0.025 A 
HETATM   30  C   UNL     1      44.194 -19.125   3.437  1.00  0.00     0.002 A 
HETATM   31  C   UNL     1      43.291 -18.882   2.409  1.00  0.00     0.001 A 
HETATM   32  C   UNL     1      42.509 -17.723   2.428  1.00  0.00     0.015 A 
ENDBRANCH   6  26
TORSDOF 4
ENDMDL
MODEL 7
REMARK VINA RESULT:      -8.6      2.226      4.836
REMARK  4 active torsions:
REMARK  status: ('A' for Active; 'I' for Inactive)
REMARK    1  A    between atoms: C_6  and  C_7 
REMARK    2  A    between atoms: C_15  and  C_16 
REMARK       I    between atoms: C_16  and  N_17 
REMARK    3  A    between atoms: N_17  and  N_18 
REMARK       I    between atoms: N_18  and  C_19 
REMARK       I    between atoms: C_19  and  N_20 
REMARK    4  A    between atoms: N_20  and  C_21 
ROOT
HETATM    1  C   UNL     1      43.700 -17.110   4.501  1.00  0.00     0.001 A 
HETATM    2  C   UNL     1      43.225 -15.802   4.587  1.00  0.00     0.015 A 
HETATM    3  C   UNL     1      42.548 -15.191   3.499  1.00  0.00     0.009 A 
HETATM    4  C   UNL     1      42.348 -15.937   2.324  1.00  0.00     0.068 A 
HETATM    5  N   UNL     1      41.697 -15.456   1.252  1.00  0.00    -0.248 NA
HETATM    6  C   UNL     1      41.205 -14.194   1.271  1.00  0.00     0.070 A 
HETATM    7  C   UNL     1      41.384 -13.364   2.364  1.00  0.00     0.050 A 
HETATM    8  C   UNL     1      42.029 -13.876   3.494  1.00  0.00     0.048 A 
HETATM    9  C   UNL     1      42.828 -17.239   2.263  1.00  0.00     0.032 A 
HETATM   10  C   UNL     1      43.501 -17.830   3.334  1.00  0.00     0.002 A 
ENDROOT
BRANCH   8  11
HETATM   11  C   UNL     1      42.122 -13.002   4.692  1.00  0.00     0.271 C 
HETATM   12  N   UNL     1      43.218 -12.163   4.705  1.00  0.00    -0.262 N 
HETATM   13  H   UNL     1      43.976 -12.211   4.028  1.00  0.00     0.190 HD
HETATM   14  O   UNL     1      41.269 -13.030   5.572  1.00  0.00    -0.266 OA
BRANCH  12  15
HETATM   15  N   UNL     1      43.448 -11.367   5.830  1.00  0.00    -0.249 N 
HETATM   16  C   UNL     1      44.199 -11.889   6.851  1.00  0.00     0.341 C 
HETATM   17  N   UNL     1      44.322 -11.152   7.988  1.00  0.00    -0.286 N 
HETATM   18  O   UNL     1      44.794 -12.964   6.752  1.00  0.00    -0.245 OA
HETATM   19  H   UNL     1      44.912 -11.539   8.707  1.00  0.00     0.172 HD
HETATM   20  H   UNL     1      42.734 -10.670   6.054  1.00  0.00     0.192 HD
BRANCH  17  21
HETATM   21  C   UNL     1      43.760  -9.929   8.205  1.00  0.00     0.174 A 
HETATM   22  S   UNL     1      44.858  -8.697   8.626  1.00  0.00    -0.062 SA
HETATM   23  C   UNL     1      43.550  -7.588   8.692  1.00  0.00     0.072 A 
HETATM   24  C   UNL     1      42.373  -8.245   8.401  1.00  0.00     0.126 A 
HETATM   25  N   UNL     1      42.496  -9.594   8.125  1.00  0.00    -0.236 NA
ENDBRANCH  17  21
ENDBRANCH  12  15
ENDBRANCH   8  11
BRANCH   6  26
HETATM   26  C   UNL     1      40.500 -13.777   0.045  1.00  0.00     0.014 A 
HETATM   27  C   UNL     1      40.526 -12.467  -0.475  1.00  0.00     0.046 A 
HETATM   28 CL   UNL     1      41.350 -11.163   0.317  1.00  0.00    -0.083 Cl
HETATM   29  C   UNL     1      39.835 -12.143  -1.650  1.00  0.00     0.025 A 
HETATM   30  C   UNL     1      39.090 -13.111  -2.322  1.00  0.00     0.002 A 
HETATM   31  C   UNL     1      39.030 -14.405  -1.817  1.00  0.00     0.001 A 
HETATM   32  C   UNL     1      39.726 -14.730  -0.650  1.00  0.00     0.015 A 
ENDBRANCH   6  26
TORSDOF 4
ENDMDL
MODEL 8
REMARK VINA RESULT:      -8.6      1.979      5.034
REMARK  4 active torsions:
REMARK  status: ('A' for Active; 'I' for Inactive)
REMARK    1  A    between atoms: C_6  and  C_7 
REMARK    2  A    between atoms: C_15  and  C_16 
REMARK       I    between atoms: C_16  and  N_17 
REMARK    3  A    between atoms: N_17  and  N_18 
REMARK       I    between atoms: N_18  and  C_19 
REMARK       I    between atoms: C_19  and  N_20 
REMARK    4  A    between atoms: N_20  and  C_21 
ROOT
HETATM    1  C   UNL     1      43.434 -17.068   3.949  1.00  0.00     0.001 A 
HETATM    2  C   UNL     1      43.129 -15.785   4.400  1.00  0.00     0.015 A 
HETATM    3  C   UNL     1      42.236 -14.946   3.683  1.00  0.00     0.009 A 
HETATM    4  C   UNL     1      41.645 -15.438   2.504  1.00  0.00     0.068 A 
HETATM    5  N   UNL     1      40.771 -14.730   1.772  1.00  0.00    -0.248 NA
HETATM    6  C   UNL     1      40.425 -13.478   2.156  1.00  0.00     0.070 A 
HETATM    7  C   UNL     1      40.980 -12.887   3.277  1.00  0.00     0.050 A 
HETATM    8  C   UNL     1      41.863 -13.635   4.061  1.00  0.00     0.048 A 
HETATM    9  C   UNL     1      41.964 -16.721   2.078  1.00  0.00     0.032 A 
HETATM   10  C   UNL     1      42.850 -17.538   2.783  1.00  0.00     0.002 A 
ENDROOT
BRANCH   8  11
HETATM   11  C   UNL     1      42.370 -13.018   5.314  1.00  0.00     0.271 C 
HETATM   12  N   UNL     1      43.176 -11.914   5.123  1.00  0.00    -0.262 N 
HETATM   13  H   UNL     1      43.511 -11.608   4.213  1.00  0.00     0.190 HD
HETATM   14  O   UNL     1      42.064 -13.462   6.415  1.00  0.00    -0.266 OA
BRANCH  12  15
HETATM   15  N   UNL     1      43.778 -11.316   6.233  1.00  0.00    -0.249 N 
HETATM   16  C   UNL     1      45.134 -11.119   6.207  1.00  0.00     0.341 C 
HETATM   17  N   UNL     1      45.727 -10.642   7.335  1.00  0.00    -0.286 N 
HETATM   18  O   UNL     1      45.812 -11.313   5.195  1.00  0.00    -0.245 OA
HETATM   19  H   UNL     1      46.717 -10.468   7.277  1.00  0.00     0.172 HD
HETATM   20  H   UNL     1      43.321 -11.458   7.137  1.00  0.00     0.192 HD
BRANCH  17  21
HETATM   21  C   UNL     1      45.087 -10.339   8.499  1.00  0.00     0.174 A 
HETATM   22  S   UNL     1      45.121  -8.691   8.930  1.00  0.00    -0.062 SA
HETATM   23  C   UNL     1      44.188  -9.061  10.323  1.00  0.00     0.072 A 
HETATM   24  C   UNL     1      43.933 -10.417  10.360  1.00  0.00     0.126 A 
HETATM   25  N   UNL     1      44.455 -11.150   9.311  1.00  0.00    -0.236 NA
ENDBRANCH  17  21
ENDBRANCH  12  15
ENDBRANCH   8  11
BRANCH   6  26
HETATM   26  C   UNL     1      39.449 -12.800   1.283  1.00  0.00     0.014 A 
HETATM   27  C   UNL     1      39.397 -12.959  -0.116  1.00  0.00     0.046 A 
HETATM   28 CL   UNL     1      40.533 -13.934  -0.990  1.00  0.00    -0.083 Cl
HETATM   29  C   UNL     1      38.437 -12.285  -0.884  1.00  0.00     0.025 A 
HETATM   30  C   UNL     1      37.522 -11.427  -0.277  1.00  0.00     0.002 A 
HETATM   31  C   UNL     1      37.567 -11.235   1.099  1.00  0.00     0.001 A 
HETATM   32  C   UNL     1      38.519 -11.913   1.866  1.00  0.00     0.015 A 
ENDBRANCH   6  26
TORSDOF 4
ENDMDL
MODEL 9
REMARK VINA RESULT:      -8.4      3.256      5.337
REMARK  4 active torsions:
REMARK  status: ('A' for Active; 'I' for Inactive)
REMARK    1  A    between atoms: C_6  and  C_7 
REMARK    2  A    between atoms: C_15  and  C_16 
REMARK       I    between atoms: C_16  and  N_17 
REMARK    3  A    between atoms: N_17  and  N_18 
REMARK       I    between atoms: N_18  and  C_19 
REMARK       I    between atoms: C_19  and  N_20 
REMARK    4  A    between atoms: N_20  and  C_21 
ROOT
HETATM    1  C   UNL     1      42.952 -16.806   5.907  1.00  0.00     0.001 A 
HETATM    2  C   UNL     1      42.197 -15.636   5.852  1.00  0.00     0.015 A 
HETATM    3  C   UNL     1      41.750 -15.105   4.614  1.00  0.00     0.009 A 
HETATM    4  C   UNL     1      42.072 -15.792   3.429  1.00  0.00     0.068 A 
HETATM    5  N   UNL     1      41.674 -15.383   2.214  1.00  0.00    -0.248 NA
HETATM    6  C   UNL     1      40.932 -14.256   2.089  1.00  0.00     0.070 A 
HETATM    7  C   UNL     1      40.597 -13.486   3.189  1.00  0.00     0.050 A 
HETATM    8  C   UNL     1      40.979 -13.930   4.458  1.00  0.00     0.048 A 
HETATM    9  C   UNL     1      42.823 -16.957   3.510  1.00  0.00     0.032 A 
HETATM   10  C   UNL     1      43.267 -17.469   4.731  1.00  0.00     0.002 A 
ENDROOT
BRANCH   8  11
HETATM   11  C   UNL     1      40.524 -13.142   5.632  1.00  0.00     0.271 C 
HETATM   12  N   UNL     1      41.075 -11.881   5.725  1.00  0.00    -0.262 N 
HETATM   13  H   UNL     1      41.826 -11.546   5.126  1.00  0.00     0.190 HD
HETATM   14  O   UNL     1      39.707 -13.594   6.427  1.00  0.00    -0.266 OA
BRANCH  12  15
HETATM   15  N   UNL     1      40.783 -11.094   6.842  1.00  0.00    -0.249 N 
HETATM   16  C   UNL     1      39.854 -10.096   6.708  1.00  0.00     0.341 C 
HETATM   17  N   UNL     1      39.660  -9.264   7.767  1.00  0.00    -0.286 N 
HETATM   18  O   UNL     1      39.168  -9.964   5.692  1.00  0.00    -0.245 OA
HETATM   19  H   UNL     1      38.943  -8.565   7.656  1.00  0.00     0.172 HD
HETATM   20  H   UNL     1      41.531 -10.978   7.532  1.00  0.00     0.192 HD
BRANCH  17  21
HETATM   21  C   UNL     1      40.313  -9.335   8.961  1.00  0.00     0.174 A 
HETATM   22  S   UNL     1      39.321  -9.680  10.303  1.00  0.00    -0.062 SA
HETATM   23  C   UNL     1      40.712  -9.643  11.308  1.00  0.00     0.072 A 
HETATM   24  C   UNL     1      41.825  -9.358  10.545  1.00  0.00     0.126 A 
HETATM   25  N   UNL     1      41.592  -9.177   9.195  1.00  0.00    -0.236 NA
ENDBRANCH  17  21
ENDBRANCH  12  15
ENDBRANCH   8  11
BRANCH   6  26
HETATM   26  C   UNL     1      40.543 -13.910   0.710  1.00  0.00     0.014 A 
HETATM   27  C   UNL     1      40.795 -12.661   0.107  1.00  0.00     0.046 A 
HETATM   28 CL   UNL     1      41.545 -11.348   0.955  1.00  0.00    -0.083 Cl
HETATM   29  C   UNL     1      40.399 -12.404  -1.213  1.00  0.00     0.025 A 
HETATM   30  C   UNL     1      39.731 -13.377  -1.953  1.00  0.00     0.002 A 
HETATM   31  C   UNL     1      39.450 -14.609  -1.374  1.00  0.00     0.001 A 
HETATM   32  C   UNL     1      39.851 -14.869  -0.061  1.00  0.00     0.015 A 
ENDBRANCH   6  26
TORSDOF 4
ENDMDL
MODEL 10
REMARK VINA RESULT:      -8.4      4.683      7.789
REMARK  4 active torsions:
REMARK  status: ('A' for Active; 'I' for Inactive)
REMARK    1  A    between atoms: C_6  and  C_7 
REMARK    2  A    between atoms: C_15  and  C_16 
REMARK       I    between atoms: C_16  and  N_17 
REMARK    3  A    between atoms: N_17  and  N_18 
REMARK       I    between atoms: N_18  and  C_19 
REMARK       I    between atoms: C_19  and  N_20 
REMARK    4  A    between atoms: N_20  and  C_21 
ROOT
HETATM    1  C   UNL     1      39.193 -14.923  -1.899  1.00  0.00     0.001 A 
HETATM    2  C   UNL     1      39.807 -14.475  -0.732  1.00  0.00     0.015 A 
HETATM    3  C   UNL     1      40.305 -13.150  -0.623  1.00  0.00     0.009 A 
HETATM    4  C   UNL     1      40.156 -12.280  -1.719  1.00  0.00     0.068 A 
HETATM    5  N   UNL     1      40.572 -11.004  -1.704  1.00  0.00    -0.248 NA
HETATM    6  C   UNL     1      41.171 -10.502  -0.598  1.00  0.00     0.070 A 
HETATM    7  C   UNL     1      41.402 -11.286   0.519  1.00  0.00     0.050 A 
HETATM    8  C   UNL     1      40.937 -12.604   0.518  1.00  0.00     0.048 A 
HETATM    9  C   UNL     1      39.539 -12.751  -2.871  1.00  0.00     0.032 A 
HETATM   10  C   UNL     1      39.059 -14.058  -2.974  1.00  0.00     0.002 A 
ENDROOT
BRANCH   8  11
HETATM   11  C   UNL     1      41.106 -13.398   1.763  1.00  0.00     0.271 C 
HETATM   12  N   UNL     1      42.374 -13.908   1.950  1.00  0.00    -0.262 N 
HETATM   13  H   UNL     1      43.111 -13.866   1.249  1.00  0.00     0.190 HD
HETATM   14  O   UNL     1      40.181 -13.552   2.552  1.00  0.00    -0.266 OA
BRANCH  12  15
HETATM   15  N   UNL     1      42.613 -14.745   3.042  1.00  0.00    -0.249 N 
HETATM   16  C   UNL     1      43.135 -15.990   2.804  1.00  0.00     0.341 C 
HETATM   17  N   UNL     1      43.258 -16.839   3.860  1.00  0.00    -0.286 N 
HETATM   18  O   UNL     1      43.535 -16.337   1.690  1.00  0.00    -0.245 OA
HETATM   19  H   UNL     1      43.682 -17.732   3.665  1.00  0.00     0.172 HD
HETATM   20  H   UNL     1      42.015 -14.614   3.862  1.00  0.00     0.192 HD
BRANCH  17  21
HETATM   21  C   UNL     1      42.904 -16.560   5.146  1.00  0.00     0.174 A 
HETATM   22  S   UNL     1      44.203 -16.464   6.244  1.00  0.00    -0.062 SA
HETATM   23  C   UNL     1      43.086 -16.092   7.494  1.00  0.00     0.072 A 
HETATM   24  C   UNL     1      41.806 -16.082   6.981  1.00  0.00     0.126 A 
HETATM   25  N   UNL     1      41.703 -16.356   5.630  1.00  0.00    -0.236 NA
ENDBRANCH  17  21
ENDBRANCH  12  15
ENDBRANCH   8  11
BRANCH   6  26
HETATM   26  C   UNL     1      41.575  -9.086  -0.691  1.00  0.00     0.014 A 
HETATM   27  C   UNL     1      40.859  -8.020  -0.110  1.00  0.00     0.046 A 
HETATM   28 CL   UNL     1      39.365  -8.250   0.739  1.00  0.00    -0.083 Cl
HETATM   29  C   UNL     1      41.306  -6.697  -0.235  1.00  0.00     0.025 A 
HETATM   30  C   UNL     1      42.464  -6.408  -0.956  1.00  0.00     0.002 A 
HETATM   31  C   UNL     1      43.175  -7.439  -1.558  1.00  0.00     0.001 A 
HETATM   32  C   UNL     1      42.734  -8.759  -1.426  1.00  0.00     0.015 A 
ENDBRANCH   6  26
TORSDOF 4
ENDMDL
