MODEL 1
REMARK VINA RESULT:     -11.2      0.000      0.000
REMARK  7 active torsions:
REMARK  status: ('A' for Active; 'I' for Inactive)
REMARK    1  A    between atoms: C_2  and  C_3 
REMARK    2  A    between atoms: N_16  and  C_17 
REMARK    3  A    between atoms: C_17  and  C_18 
REMARK       I    between atoms: C_18  and  N_19 
REMARK    4  A    between atoms: N_19  and  C_20 
REMARK    5  A    between atoms: C_21  and  C_22 
REMARK       I    between atoms: C_22  and  N_23 
REMARK    6  A    between atoms: N_23  and  C_24 
REMARK    7  A    between atoms: C_24  and  C_25 
ROOT
HETATM    1  C   UNL     1      41.069 -12.378   5.399  1.00  0.00     0.240 C 
ENDROOT
BRANCH   1   2
HETATM    2  N   UNL     1      41.515 -13.749   5.561  1.00  0.00    -0.259 N 
HETATM    3  C   UNL     1      40.866 -14.676   6.313  1.00  0.00     0.326 A 
HETATM    4  N   UNL     1      41.585 -15.844   6.293  1.00  0.00    -0.321 N 
HETATM    5  O   UNL     1      39.797 -14.541   6.880  1.00  0.00    -0.247 OA
HETATM    6  C   UNL     1      42.851 -15.711   5.609  1.00  0.00     0.140 A 
HETATM    7  H   UNL     1      41.302 -16.651   6.833  1.00  0.00     0.165 HD
HETATM    8  C   UNL     1      43.942 -15.766   6.696  1.00  0.00     0.055 C 
HETATM    9  C   UNL     1      42.711 -14.246   5.120  1.00  0.00     0.261 A 
HETATM   10  O   UNL     1      43.551 -13.617   4.491  1.00  0.00    -0.270 OA
BRANCH   6  11
HETATM   11  C   UNL     1      43.083 -16.671   4.428  1.00  0.00    -0.010 A 
HETATM   12  C   UNL     1      43.404 -18.078   4.511  1.00  0.00    -0.017 A 
HETATM   13  C   UNL     1      43.597 -18.799   3.295  1.00  0.00    -0.025 A 
HETATM   14  C   UNL     1      43.541 -18.855   5.695  1.00  0.00     0.013 A 
HETATM   15  C   UNL     1      43.929 -20.165   3.298  1.00  0.00     0.012 A 
HETATM   16  C   UNL     1      43.452 -18.172   2.054  1.00  0.00     0.012 A 
HETATM   17  C   UNL     1      44.067 -20.872   4.484  1.00  0.00     0.001 A 
HETATM   18  C   UNL     1      43.868 -20.217   5.686  1.00  0.00     0.001 A 
HETATM   19  C   UNL     1      43.096 -16.838   1.972  1.00  0.00     0.002 A 
HETATM   20  C   UNL     1      42.906 -16.107   3.137  1.00  0.00     0.011 A 
ENDBRANCH   6  11
ENDBRANCH   1   2
BRANCH   1  21
HETATM   21  C   UNL     1      42.056 -11.339   5.942  1.00  0.00     0.240 C 
HETATM   22  N   UNL     1      42.787 -11.737   7.054  1.00  0.00    -0.325 N 
HETATM   23  H   UNL     1      42.900 -12.742   7.102  1.00  0.00     0.169 HD
HETATM   24  O   UNL     1      42.118 -10.214   5.444  1.00  0.00    -0.271 OA
BRANCH  22  25
HETATM   25  C   UNL     1      43.927 -11.003   7.465  1.00  0.00     0.050 A 
HETATM   26  C   UNL     1      43.946 -10.012   8.462  1.00  0.00     0.058 A 
HETATM   27  C   UNL     1      45.166  -9.381   8.778  1.00  0.00     0.019 A 
HETATM   28  C   UNL     1      46.346  -9.721   8.118  1.00  0.00     0.001 A 
HETATM   29  C   UNL     1      46.331 -10.721   7.155  1.00  0.00     0.002 A 
HETATM   30  C   UNL     1      45.134 -11.367   6.841  1.00  0.00     0.030 A 
BRANCH  26  31
HETATM   31  C   UNL     1      42.826  -9.672   9.379  1.00  0.00     0.254 C 
HETATM   32  N   UNL     1      43.004  -9.897  10.719  1.00  0.00    -0.351 N 
HETATM   33  H   UNL     1      43.852 -10.377  11.014  1.00  0.00     0.163 HD
HETATM   34  O   UNL     1      41.760  -9.294   8.899  1.00  0.00    -0.268 OA
BRANCH  32  35
HETATM   35  C   UNL     1      41.876  -9.842  11.620  1.00  0.00     0.187 C 
BRANCH  35  36
HETATM   36  C   UNL     1      42.152  -8.949  12.773  1.00  0.00     0.070 A 
HETATM   37  O   UNL     1      41.395  -9.167  13.890  1.00  0.00    -0.325 OA
HETATM   38  C   UNL     1      41.814  -8.289  14.836  1.00  0.00     0.142 A 
HETATM   39  C   UNL     1      42.832  -7.506  14.350  1.00  0.00     0.027 A 
HETATM   40  C   UNL     1      43.057  -7.935  13.019  1.00  0.00     0.036 A 
ENDBRANCH  35  36
ENDBRANCH  32  35
ENDBRANCH  26  31
ENDBRANCH  22  25
ENDBRANCH   1  21
TORSDOF 7
ENDMDL
MODEL 2
REMARK VINA RESULT:     -10.9      1.283      2.381
REMARK  7 active torsions:
REMARK  status: ('A' for Active; 'I' for Inactive)
REMARK    1  A    between atoms: C_2  and  C_3 
REMARK    2  A    between atoms: N_16  and  C_17 
REMARK    3  A    between atoms: C_17  and  C_18 
REMARK       I    between atoms: C_18  and  N_19 
REMARK    4  A    between atoms: N_19  and  C_20 
REMARK    5  A    between atoms: C_21  and  C_22 
REMARK       I    between atoms: C_22  and  N_23 
REMARK    6  A    between atoms: N_23  and  C_24 
REMARK    7  A    between atoms: C_24  and  C_25 
ROOT
HETATM    1  C   UNL     1      40.743 -11.151   5.636  1.00  0.00     0.240 C 
ENDROOT
BRANCH   1   2
HETATM    2  N   UNL     1      41.230 -12.284   4.871  1.00  0.00    -0.259 N 
HETATM    3  C   UNL     1      41.814 -12.182   3.649  1.00  0.00     0.326 A 
HETATM    4  N   UNL     1      42.101 -13.442   3.189  1.00  0.00    -0.321 N 
HETATM    5  O   UNL     1      42.098 -11.157   3.056  1.00  0.00    -0.247 OA
HETATM    6  C   UNL     1      41.593 -14.483   4.052  1.00  0.00     0.140 A 
HETATM    7  H   UNL     1      42.496 -13.595   2.270  1.00  0.00     0.165 HD
HETATM    8  C   UNL     1      40.414 -15.134   3.302  1.00  0.00     0.055 C 
HETATM    9  C   UNL     1      41.027 -13.598   5.194  1.00  0.00     0.261 A 
HETATM   10  O   UNL     1      40.447 -14.002   6.192  1.00  0.00    -0.270 OA
BRANCH   6  11
HETATM   11  C   UNL     1      42.634 -15.482   4.589  1.00  0.00    -0.010 A 
HETATM   12  C   UNL     1      43.026 -16.730   3.973  1.00  0.00    -0.017 A 
HETATM   13  C   UNL     1      44.004 -17.531   4.637  1.00  0.00    -0.025 A 
HETATM   14  C   UNL     1      42.551 -17.264   2.744  1.00  0.00     0.013 A 
HETATM   15  C   UNL     1      44.422 -18.765   4.108  1.00  0.00     0.012 A 
HETATM   16  C   UNL     1      44.590 -17.109   5.834  1.00  0.00     0.012 A 
HETATM   17  C   UNL     1      43.912 -19.247   2.911  1.00  0.00     0.001 A 
HETATM   18  C   UNL     1      42.977 -18.494   2.225  1.00  0.00     0.001 A 
HETATM   19  C   UNL     1      44.252 -15.892   6.398  1.00  0.00     0.002 A 
HETATM   20  C   UNL     1      43.300 -15.093   5.780  1.00  0.00     0.011 A 
ENDBRANCH   6  11
ENDBRANCH   1   2
BRANCH   1  21
HETATM   21  C   UNL     1      41.848 -10.366   6.349  1.00  0.00     0.240 C 
HETATM   22  N   UNL     1      42.592 -11.089   7.272  1.00  0.00    -0.325 N 
HETATM   23  H   UNL     1      42.612 -12.079   7.061  1.00  0.00     0.169 HD
HETATM   24  O   UNL     1      41.992  -9.159   6.142  1.00  0.00    -0.271 OA
BRANCH  22  25
HETATM   25  C   UNL     1      43.814 -10.576   7.771  1.00  0.00     0.050 A 
HETATM   26  C   UNL     1      43.974  -9.866   8.975  1.00  0.00     0.058 A 
HETATM   27  C   UNL     1      45.261  -9.436   9.351  1.00  0.00     0.019 A 
HETATM   28  C   UNL     1      46.372  -9.698   8.551  1.00  0.00     0.001 A 
HETATM   29  C   UNL     1      46.218 -10.426   7.378  1.00  0.00     0.002 A 
HETATM   30  C   UNL     1      44.952 -10.873   6.998  1.00  0.00     0.030 A 
BRANCH  26  31
HETATM   31  C   UNL     1      42.933  -9.672  10.019  1.00  0.00     0.254 C 
HETATM   32  N   UNL     1      43.263  -9.972  11.315  1.00  0.00    -0.351 N 
HETATM   33  H   UNL     1      44.167 -10.407  11.489  1.00  0.00     0.163 HD
HETATM   34  O   UNL     1      41.800  -9.343   9.675  1.00  0.00    -0.268 OA
BRANCH  32  35
HETATM   35  C   UNL     1      42.232 -10.060  12.324  1.00  0.00     0.187 C 
BRANCH  35  36
HETATM   36  C   UNL     1      42.338  -8.947  13.300  1.00  0.00     0.070 A 
HETATM   37  O   UNL     1      41.501  -9.018  14.378  1.00  0.00    -0.325 OA
HETATM   38  C   UNL     1      41.769  -7.947  15.165  1.00  0.00     0.142 A 
HETATM   39  C   UNL     1      42.768  -7.182  14.615  1.00  0.00     0.027 A 
HETATM   40  C   UNL     1      43.143  -7.831  13.413  1.00  0.00     0.036 A 
ENDBRANCH  35  36
ENDBRANCH  32  35
ENDBRANCH  26  31
ENDBRANCH  22  25
ENDBRANCH   1  21
TORSDOF 7
ENDMDL
MODEL 3
REMARK VINA RESULT:     -10.2      4.063      8.332
REMARK  7 active torsions:
REMARK  status: ('A' for Active; 'I' for Inactive)
REMARK    1  A    between atoms: C_2  and  C_3 
REMARK    2  A    between atoms: N_16  and  C_17 
REMARK    3  A    between atoms: C_17  and  C_18 
REMARK       I    between atoms: C_18  and  N_19 
REMARK    4  A    between atoms: N_19  and  C_20 
REMARK    5  A    between atoms: C_21  and  C_22 
REMARK       I    between atoms: C_22  and  N_23 
REMARK    6  A    between atoms: N_23  and  C_24 
REMARK    7  A    between atoms: C_24  and  C_25 
ROOT
HETATM    1  C   UNL     1      42.299 -11.593   5.896  1.00  0.00     0.240 C 
ENDROOT
BRANCH   1   2
HETATM    2  N   UNL     1      42.132 -13.014   6.137  1.00  0.00    -0.259 N 
HETATM    3  C   UNL     1      40.937 -13.605   6.400  1.00  0.00     0.326 A 
HETATM    4  N   UNL     1      41.146 -14.940   6.632  1.00  0.00    -0.321 N 
HETATM    5  O   UNL     1      39.840 -13.077   6.388  1.00  0.00    -0.247 OA
HETATM    6  C   UNL     1      42.547 -15.293   6.660  1.00  0.00     0.140 A 
HETATM    7  H   UNL     1      40.390 -15.559   6.898  1.00  0.00     0.165 HD
HETATM    8  C   UNL     1      42.890 -15.603   8.130  1.00  0.00     0.055 C 
HETATM    9  C   UNL     1      43.152 -13.913   6.289  1.00  0.00     0.261 A 
HETATM   10  O   UNL     1      44.344 -13.655   6.200  1.00  0.00    -0.270 OA
BRANCH   6  11
HETATM   11  C   UNL     1      42.989 -16.379   5.661  1.00  0.00    -0.010 A 
HETATM   12  C   UNL     1      43.031 -16.258   4.222  1.00  0.00    -0.017 A 
HETATM   13  C   UNL     1      43.459 -17.389   3.462  1.00  0.00    -0.025 A 
HETATM   14  C   UNL     1      42.700 -15.111   3.449  1.00  0.00     0.013 A 
HETATM   15  C   UNL     1      43.509 -17.352   2.058  1.00  0.00     0.012 A 
HETATM   16  C   UNL     1      43.857 -18.572   4.092  1.00  0.00     0.012 A 
HETATM   17  C   UNL     1      43.158 -16.210   1.352  1.00  0.00     0.001 A 
HETATM   18  C   UNL     1      42.756 -15.085   2.049  1.00  0.00     0.001 A 
HETATM   19  C   UNL     1      43.864 -18.671   5.472  1.00  0.00     0.002 A 
HETATM   20  C   UNL     1      43.448 -17.591   6.239  1.00  0.00     0.011 A 
ENDBRANCH   6  11
ENDBRANCH   1   2
BRANCH   1  21
HETATM   21  C   UNL     1      42.163 -11.195   4.423  1.00  0.00     0.240 C 
HETATM   22  N   UNL     1      40.865 -10.954   3.990  1.00  0.00    -0.325 N 
HETATM   23  H   UNL     1      40.256 -10.658   4.742  1.00  0.00     0.169 HD
HETATM   24  O   UNL     1      43.151 -11.168   3.687  1.00  0.00    -0.271 OA
BRANCH  22  25
HETATM   25  C   UNL     1      40.629 -10.298   2.756  1.00  0.00     0.050 A 
HETATM   26  C   UNL     1      40.390 -10.933   1.524  1.00  0.00     0.058 A 
HETATM   27  C   UNL     1      40.150 -10.143   0.382  1.00  0.00     0.019 A 
HETATM   28  C   UNL     1      40.148  -8.751   0.455  1.00  0.00     0.001 A 
HETATM   29  C   UNL     1      40.354  -8.126   1.678  1.00  0.00     0.002 A 
HETATM   30  C   UNL     1      40.579  -8.894   2.822  1.00  0.00     0.030 A 
BRANCH  26  31
HETATM   31  C   UNL     1      40.174 -12.389   1.319  1.00  0.00     0.254 C 
HETATM   32  N   UNL     1      40.488 -12.916   0.093  1.00  0.00    -0.351 N 
HETATM   33  H   UNL     1      40.760 -12.273  -0.649  1.00  0.00     0.163 HD
HETATM   34  O   UNL     1      39.641 -13.043   2.212  1.00  0.00    -0.268 OA
BRANCH  32  35
HETATM   35  C   UNL     1      40.058 -14.251  -0.255  1.00  0.00     0.187 C 
BRANCH  35  36
HETATM   36  C   UNL     1      39.179 -14.239  -1.451  1.00  0.00     0.070 A 
HETATM   37  O   UNL     1      38.256 -13.232  -1.502  1.00  0.00    -0.325 OA
HETATM   38  C   UNL     1      37.582 -13.365  -2.672  1.00  0.00     0.142 A 
HETATM   39  C   UNL     1      38.055 -14.442  -3.381  1.00  0.00     0.027 A 
HETATM   40  C   UNL     1      39.092 -15.004  -2.597  1.00  0.00     0.036 A 
ENDBRANCH  35  36
ENDBRANCH  32  35
ENDBRANCH  26  31
ENDBRANCH  22  25
ENDBRANCH   1  21
TORSDOF 7
ENDMDL
MODEL 4
REMARK VINA RESULT:     -10.1      5.052      8.604
REMARK  7 active torsions:
REMARK  status: ('A' for Active; 'I' for Inactive)
REMARK    1  A    between atoms: C_2  and  C_3 
REMARK    2  A    between atoms: N_16  and  C_17 
REMARK    3  A    between atoms: C_17  and  C_18 
REMARK       I    between atoms: C_18  and  N_19 
REMARK    4  A    between atoms: N_19  and  C_20 
REMARK    5  A    between atoms: C_21  and  C_22 
REMARK       I    between atoms: C_22  and  N_23 
REMARK    6  A    between atoms: N_23  and  C_24 
REMARK    7  A    between atoms: C_24  and  C_25 
ROOT
HETATM    1  C   UNL     1      40.700 -12.114   4.584  1.00  0.00     0.240 C 
ENDROOT
BRANCH   1   2
HETATM    2  N   UNL     1      41.239 -13.392   5.008  1.00  0.00    -0.259 N 
HETATM    3  C   UNL     1      40.644 -14.204   5.919  1.00  0.00     0.326 A 
HETATM    4  N   UNL     1      41.445 -15.298   6.128  1.00  0.00    -0.321 N 
HETATM    5  O   UNL     1      39.557 -14.044   6.444  1.00  0.00    -0.247 OA
HETATM    6  C   UNL     1      42.712 -15.204   5.439  1.00  0.00     0.140 A 
HETATM    7  H   UNL     1      41.211 -16.007   6.810  1.00  0.00     0.165 HD
HETATM    8  C   UNL     1      43.782 -14.970   6.522  1.00  0.00     0.055 C 
HETATM    9  C   UNL     1      42.477 -13.873   4.677  1.00  0.00     0.261 A 
HETATM   10  O   UNL     1      43.282 -13.316   3.944  1.00  0.00    -0.270 OA
BRANCH   6  11
HETATM   11  C   UNL     1      43.036 -16.351   4.464  1.00  0.00    -0.010 A 
HETATM   12  C   UNL     1      43.346 -17.719   4.816  1.00  0.00    -0.017 A 
HETATM   13  C   UNL     1      43.635 -18.638   3.762  1.00  0.00    -0.025 A 
HETATM   14  C   UNL     1      43.385 -18.277   6.124  1.00  0.00     0.013 A 
HETATM   15  C   UNL     1      43.962 -19.979   4.029  1.00  0.00     0.012 A 
HETATM   16  C   UNL     1      43.591 -18.237   2.425  1.00  0.00     0.012 A 
HETATM   17  C   UNL     1      44.002 -20.468   5.328  1.00  0.00     0.001 A 
HETATM   18  C   UNL     1      43.709 -19.616   6.378  1.00  0.00     0.001 A 
HETATM   19  C   UNL     1      43.246 -16.942   2.083  1.00  0.00     0.002 A 
HETATM   20  C   UNL     1      42.965 -16.022   3.085  1.00  0.00     0.011 A 
ENDBRANCH   6  11
ENDBRANCH   1   2
BRANCH   1  21
HETATM   21  C   UNL     1      40.193 -12.105   3.138  1.00  0.00     0.240 C 
HETATM   22  N   UNL     1      41.148 -12.387   2.171  1.00  0.00    -0.325 N 
HETATM   23  H   UNL     1      41.904 -12.957   2.529  1.00  0.00     0.169 HD
HETATM   24  O   UNL     1      39.027 -11.796   2.885  1.00  0.00    -0.271 OA
BRANCH  22  25
HETATM   25  C   UNL     1      40.759 -12.703   0.846  1.00  0.00     0.050 A 
HETATM   26  C   UNL     1      40.801 -11.824  -0.252  1.00  0.00     0.058 A 
HETATM   27  C   UNL     1      40.400 -12.291  -1.519  1.00  0.00     0.019 A 
HETATM   28  C   UNL     1      39.960 -13.602  -1.699  1.00  0.00     0.001 A 
HETATM   29  C   UNL     1      39.948 -14.477  -0.621  1.00  0.00     0.002 A 
HETATM   30  C   UNL     1      40.357 -14.035   0.638  1.00  0.00     0.030 A 
BRANCH  26  31
HETATM   31  C   UNL     1      41.415 -10.470  -0.263  1.00  0.00     0.254 C 
HETATM   32  N   UNL     1      41.378  -9.761  -1.436  1.00  0.00    -0.351 N 
HETATM   33  H   UNL     1      41.023 -10.230  -2.267  1.00  0.00     0.163 HD
HETATM   34  O   UNL     1      42.008 -10.077   0.738  1.00  0.00    -0.268 OA
BRANCH  32  35
HETATM   35  C   UNL     1      42.180  -8.568  -1.588  1.00  0.00     0.187 C 
BRANCH  35  36
HETATM   36  C   UNL     1      41.896  -7.890  -2.877  1.00  0.00     0.070 A 
HETATM   37  O   UNL     1      40.608  -7.471  -3.060  1.00  0.00    -0.325 OA
HETATM   38  C   UNL     1      40.555  -6.849  -4.264  1.00  0.00     0.142 A 
HETATM   39  C   UNL     1      41.790  -6.856  -4.865  1.00  0.00     0.027 A 
HETATM   40  C   UNL     1      42.660  -7.522  -3.967  1.00  0.00     0.036 A 
ENDBRANCH  35  36
ENDBRANCH  32  35
ENDBRANCH  26  31
ENDBRANCH  22  25
ENDBRANCH   1  21
TORSDOF 7
ENDMDL
MODEL 5
REMARK VINA RESULT:     -10.0      5.885      9.434
REMARK  7 active torsions:
REMARK  status: ('A' for Active; 'I' for Inactive)
REMARK    1  A    between atoms: C_2  and  C_3 
REMARK    2  A    between atoms: N_16  and  C_17 
REMARK    3  A    between atoms: C_17  and  C_18 
REMARK       I    between atoms: C_18  and  N_19 
REMARK    4  A    between atoms: N_19  and  C_20 
REMARK    5  A    between atoms: C_21  and  C_22 
REMARK       I    between atoms: C_22  and  N_23 
REMARK    6  A    between atoms: N_23  and  C_24 
REMARK    7  A    between atoms: C_24  and  C_25 
ROOT
HETATM    1  C   UNL     1      40.217 -12.860   3.173  1.00  0.00     0.240 C 
ENDROOT
BRANCH   1   2
HETATM    2  N   UNL     1      41.415 -13.674   3.081  1.00  0.00    -0.259 N 
HETATM    3  C   UNL     1      42.671 -13.168   2.965  1.00  0.00     0.326 A 
HETATM    4  N   UNL     1      43.557 -14.208   2.845  1.00  0.00    -0.321 N 
HETATM    5  O   UNL     1      42.995 -11.995   3.009  1.00  0.00    -0.247 OA
HETATM    6  C   UNL     1      42.904 -15.493   2.746  1.00  0.00     0.140 A 
HETATM    7  H   UNL     1      44.545 -14.050   2.697  1.00  0.00     0.165 HD
HETATM    8  C   UNL     1      43.087 -15.964   1.290  1.00  0.00     0.055 C 
HETATM    9  C   UNL     1      41.434 -15.034   2.938  1.00  0.00     0.261 A 
HETATM   10  O   UNL     1      40.449 -15.758   2.912  1.00  0.00    -0.270 OA
BRANCH   6  11
HETATM   11  C   UNL     1      43.302 -16.536   3.806  1.00  0.00    -0.010 A 
HETATM   12  C   UNL     1      43.461 -17.957   3.598  1.00  0.00    -0.017 A 
HETATM   13  C   UNL     1      43.823 -18.767   4.717  1.00  0.00    -0.025 A 
HETATM   14  C   UNL     1      43.307 -18.665   2.373  1.00  0.00     0.013 A 
HETATM   15  C   UNL     1      43.978 -20.159   4.594  1.00  0.00     0.012 A 
HETATM   16  C   UNL     1      44.049 -18.200   5.974  1.00  0.00     0.012 A 
HETATM   17  C   UNL     1      43.799 -20.801   3.377  1.00  0.00     0.001 A 
HETATM   18  C   UNL     1      43.467 -20.052   2.262  1.00  0.00     0.001 A 
HETATM   19  C   UNL     1      43.946 -16.833   6.163  1.00  0.00     0.002 A 
HETATM   20  C   UNL     1      43.589 -16.019   5.096  1.00  0.00     0.011 A 
ENDBRANCH   6  11
ENDBRANCH   1   2
BRANCH   1  21
HETATM   21  C   UNL     1      39.481 -12.690   1.840  1.00  0.00     0.240 C 
HETATM   22  N   UNL     1      40.266 -12.837   0.704  1.00  0.00    -0.325 N 
HETATM   23  H   UNL     1      41.071 -13.431   0.864  1.00  0.00     0.169 HD
HETATM   24  O   UNL     1      38.289 -12.377   1.818  1.00  0.00    -0.271 OA
BRANCH  22  25
HETATM   25  C   UNL     1      39.666 -13.002  -0.569  1.00  0.00     0.050 A 
HETATM   26  C   UNL     1      39.251 -11.962  -1.419  1.00  0.00     0.058 A 
HETATM   27  C   UNL     1      38.687 -12.283  -2.670  1.00  0.00     0.019 A 
HETATM   28  C   UNL     1      38.532 -13.608  -3.072  1.00  0.00     0.001 A 
HETATM   29  C   UNL     1      38.969 -14.634  -2.244  1.00  0.00     0.002 A 
HETATM   30  C   UNL     1      39.544 -14.333  -1.009  1.00  0.00     0.030 A 
BRANCH  26  31
HETATM   31  C   UNL     1      39.517 -10.512  -1.221  1.00  0.00     0.254 C 
HETATM   32  N   UNL     1      40.506  -9.934  -1.974  1.00  0.00    -0.351 N 
HETATM   33  H   UNL     1      41.077 -10.541  -2.560  1.00  0.00     0.163 HD
HETATM   34  O   UNL     1      38.914  -9.913  -0.334  1.00  0.00    -0.268 OA
BRANCH  32  35
HETATM   35  C   UNL     1      40.990  -8.613  -1.644  1.00  0.00     0.187 C 
BRANCH  35  36
HETATM   36  C   UNL     1      41.645  -7.973  -2.812  1.00  0.00     0.070 A 
HETATM   37  O   UNL     1      40.893  -7.898  -3.951  1.00  0.00    -0.325 OA
HETATM   38  C   UNL     1      41.640  -7.256  -4.884  1.00  0.00     0.142 A 
HETATM   39  C   UNL     1      42.865  -6.912  -4.367  1.00  0.00     0.027 A 
HETATM   40  C   UNL     1      42.868  -7.368  -3.026  1.00  0.00     0.036 A 
ENDBRANCH  35  36
ENDBRANCH  32  35
ENDBRANCH  26  31
ENDBRANCH  22  25
ENDBRANCH   1  21
TORSDOF 7
ENDMDL
MODEL 6
REMARK VINA RESULT:     -10.0      3.035      9.229
REMARK  7 active torsions:
REMARK  status: ('A' for Active; 'I' for Inactive)
REMARK    1  A    between atoms: C_2  and  C_3 
REMARK    2  A    between atoms: N_16  and  C_17 
REMARK    3  A    between atoms: C_17  and  C_18 
REMARK       I    between atoms: C_18  and  N_19 
REMARK    4  A    between atoms: N_19  and  C_20 
REMARK    5  A    between atoms: C_21  and  C_22 
REMARK       I    between atoms: C_22  and  N_23 
REMARK    6  A    between atoms: N_23  and  C_24 
REMARK    7  A    between atoms: C_24  and  C_25 
ROOT
HETATM    1  C   UNL     1      40.305 -11.848   3.848  1.00  0.00     0.240 C 
ENDROOT
BRANCH   1   2
HETATM    2  N   UNL     1      40.418 -11.193   5.137  1.00  0.00    -0.259 N 
HETATM    3  C   UNL     1      39.919 -11.701   6.294  1.00  0.00     0.326 A 
HETATM    4  N   UNL     1      40.150 -10.805   7.307  1.00  0.00    -0.321 N 
HETATM    5  O   UNL     1      39.396 -12.789   6.451  1.00  0.00    -0.247 OA
HETATM    6  C   UNL     1      40.719  -9.563   6.837  1.00  0.00     0.140 A 
HETATM    7  H   UNL     1      39.813 -10.966   8.247  1.00  0.00     0.165 HD
HETATM    8  C   UNL     1      39.611  -8.499   6.966  1.00  0.00     0.055 C 
HETATM    9  C   UNL     1      40.889  -9.924   5.338  1.00  0.00     0.261 A 
HETATM   10  O   UNL     1      41.321  -9.182   4.467  1.00  0.00    -0.270 OA
BRANCH   6  11
HETATM   11  C   UNL     1      42.064  -9.156   7.466  1.00  0.00    -0.010 A 
HETATM   12  C   UNL     1      43.314  -9.876   7.364  1.00  0.00    -0.017 A 
HETATM   13  C   UNL     1      44.457  -9.342   8.034  1.00  0.00    -0.025 A 
HETATM   14  C   UNL     1      43.552 -11.079   6.644  1.00  0.00     0.013 A 
HETATM   15  C   UNL     1      45.700  -9.995   7.994  1.00  0.00     0.012 A 
HETATM   16  C   UNL     1      44.379  -8.141   8.744  1.00  0.00     0.012 A 
HETATM   17  C   UNL     1      45.873 -11.178   7.289  1.00  0.00     0.001 A 
HETATM   18  C   UNL     1      44.797 -11.720   6.609  1.00  0.00     0.001 A 
HETATM   19  C   UNL     1      43.196  -7.426   8.802  1.00  0.00     0.002 A 
HETATM   20  C   UNL     1      42.066  -7.922   8.165  1.00  0.00     0.011 A 
ENDBRANCH   6  11
ENDBRANCH   1   2
BRANCH   1  21
HETATM   21  C   UNL     1      41.367 -12.925   3.606  1.00  0.00     0.240 C 
HETATM   22  N   UNL     1      41.106 -14.159   4.186  1.00  0.00    -0.325 N 
HETATM   23  H   UNL     1      40.115 -14.324   4.315  1.00  0.00     0.169 HD
HETATM   24  O   UNL     1      42.402 -12.657   2.993  1.00  0.00    -0.271 OA
BRANCH  22  25
HETATM   25  C   UNL     1      41.841 -15.307   3.798  1.00  0.00     0.050 A 
HETATM   26  C   UNL     1      41.661 -16.029   2.605  1.00  0.00     0.058 A 
HETATM   27  C   UNL     1      42.486 -17.141   2.346  1.00  0.00     0.019 A 
HETATM   28  C   UNL     1      43.469 -17.537   3.252  1.00  0.00     0.001 A 
HETATM   29  C   UNL     1      43.665 -16.805   4.416  1.00  0.00     0.002 A 
HETATM   30  C   UNL     1      42.867 -15.691   4.680  1.00  0.00     0.030 A 
BRANCH  26  31
HETATM   31  C   UNL     1      40.796 -15.629   1.463  1.00  0.00     0.254 C 
HETATM   32  N   UNL     1      41.283 -14.693   0.588  1.00  0.00    -0.351 N 
HETATM   33  H   UNL     1      42.168 -14.243   0.813  1.00  0.00     0.163 HD
HETATM   34  O   UNL     1      39.653 -16.076   1.399  1.00  0.00    -0.268 OA
BRANCH  32  35
HETATM   35  C   UNL     1      40.402 -14.072  -0.374  1.00  0.00     0.187 C 
BRANCH  35  36
HETATM   36  C   UNL     1      40.100 -12.668  -0.001  1.00  0.00     0.070 A 
HETATM   37  O   UNL     1      41.167 -11.814   0.018  1.00  0.00    -0.325 OA
HETATM   38  C   UNL     1      40.692 -10.585   0.340  1.00  0.00     0.142 A 
HETATM   39  C   UNL     1      39.333 -10.628   0.529  1.00  0.00     0.027 A 
HETATM   40  C   UNL     1      38.947 -11.972   0.302  1.00  0.00     0.036 A 
ENDBRANCH  35  36
ENDBRANCH  32  35
ENDBRANCH  26  31
ENDBRANCH  22  25
ENDBRANCH   1  21
TORSDOF 7
ENDMDL
MODEL 7
REMARK VINA RESULT:      -9.8      4.092      8.009
REMARK  7 active torsions:
REMARK  status: ('A' for Active; 'I' for Inactive)
REMARK    1  A    between atoms: C_2  and  C_3 
REMARK    2  A    between atoms: N_16  and  C_17 
REMARK    3  A    between atoms: C_17  and  C_18 
REMARK       I    between atoms: C_18  and  N_19 
REMARK    4  A    between atoms: N_19  and  C_20 
REMARK    5  A    between atoms: C_21  and  C_22 
REMARK       I    between atoms: C_22  and  N_23 
REMARK    6  A    between atoms: N_23  and  C_24 
REMARK    7  A    between atoms: C_24  and  C_25 
ROOT
HETATM    1  C   UNL     1      41.504 -11.169   6.089  1.00  0.00     0.240 C 
ENDROOT
BRANCH   1   2
HETATM    2  N   UNL     1      41.145 -12.566   5.936  1.00  0.00    -0.259 N 
HETATM    3  C   UNL     1      39.893 -13.056   6.136  1.00  0.00     0.326 A 
HETATM    4  N   UNL     1      39.918 -14.416   5.962  1.00  0.00    -0.321 N 
HETATM    5  O   UNL     1      38.886 -12.417   6.379  1.00  0.00    -0.247 OA
HETATM    6  C   UNL     1      41.252 -14.931   5.754  1.00  0.00     0.140 A 
HETATM    7  H   UNL     1      39.097 -14.987   6.114  1.00  0.00     0.165 HD
HETATM    8  C   UNL     1      41.629 -15.697   7.038  1.00  0.00     0.055 C 
HETATM    9  C   UNL     1      42.030 -13.589   5.730  1.00  0.00     0.261 A 
HETATM   10  O   UNL     1      43.240 -13.465   5.603  1.00  0.00    -0.270 OA
BRANCH   6  11
HETATM   11  C   UNL     1      41.474 -15.724   4.453  1.00  0.00    -0.010 A 
HETATM   12  C   UNL     1      42.477 -16.740   4.225  1.00  0.00    -0.017 A 
HETATM   13  C   UNL     1      42.534 -17.355   2.938  1.00  0.00    -0.025 A 
HETATM   14  C   UNL     1      43.433 -17.224   5.161  1.00  0.00     0.013 A 
HETATM   15  C   UNL     1      43.493 -18.337   2.637  1.00  0.00     0.012 A 
HETATM   16  C   UNL     1      41.627 -17.008   1.933  1.00  0.00     0.012 A 
HETATM   17  C   UNL     1      44.415 -18.761   3.585  1.00  0.00     0.001 A 
HETATM   18  C   UNL     1      44.383 -18.206   4.851  1.00  0.00     0.001 A 
HETATM   19  C   UNL     1      40.635 -16.072   2.166  1.00  0.00     0.002 A 
HETATM   20  C   UNL     1      40.557 -15.452   3.405  1.00  0.00     0.011 A 
ENDBRANCH   6  11
ENDBRANCH   1   2
BRANCH   1  21
HETATM   21  C   UNL     1      41.762 -10.447   4.763  1.00  0.00     0.240 C 
HETATM   22  N   UNL     1      40.654 -10.303   3.938  1.00  0.00    -0.325 N 
HETATM   23  H   UNL     1      39.785 -10.294   4.457  1.00  0.00     0.169 HD
HETATM   24  O   UNL     1      42.902 -10.095   4.453  1.00  0.00    -0.271 OA
BRANCH  22  25
HETATM   25  C   UNL     1      40.686  -9.408   2.840  1.00  0.00     0.050 A 
HETATM   26  C   UNL     1      41.073  -9.735   1.528  1.00  0.00     0.058 A 
HETATM   27  C   UNL     1      41.032  -8.738   0.533  1.00  0.00     0.019 A 
HETATM   28  C   UNL     1      40.621  -7.440   0.829  1.00  0.00     0.001 A 
HETATM   29  C   UNL     1      40.211  -7.126   2.118  1.00  0.00     0.002 A 
HETATM   30  C   UNL     1      40.230  -8.106   3.112  1.00  0.00     0.030 A 
BRANCH  26  31
HETATM   31  C   UNL     1      41.353 -11.103   1.015  1.00  0.00     0.254 C 
HETATM   32  N   UNL     1      40.549 -11.588   0.016  1.00  0.00    -0.351 N 
HETATM   33  H   UNL     1      39.740 -11.034  -0.258  1.00  0.00     0.163 HD
HETATM   34  O   UNL     1      42.223 -11.776   1.561  1.00  0.00    -0.268 OA
BRANCH  32  35
HETATM   35  C   UNL     1      40.596 -12.989  -0.336  1.00  0.00     0.187 C 
BRANCH  35  36
HETATM   36  C   UNL     1      39.636 -13.303  -1.423  1.00  0.00     0.070 A 
HETATM   37  O   UNL     1      38.345 -12.909  -1.209  1.00  0.00    -0.325 OA
HETATM   38  C   UNL     1      37.634 -13.245  -2.315  1.00  0.00     0.142 A 
HETATM   39  C   UNL     1      38.445 -13.850  -3.243  1.00  0.00     0.027 A 
HETATM   40  C   UNL     1      39.741 -13.882  -2.672  1.00  0.00     0.036 A 
ENDBRANCH  35  36
ENDBRANCH  32  35
ENDBRANCH  26  31
ENDBRANCH  22  25
ENDBRANCH   1  21
TORSDOF 7
ENDMDL
MODEL 8
REMARK VINA RESULT:      -9.8      2.327      3.747
REMARK  7 active torsions:
REMARK  status: ('A' for Active; 'I' for Inactive)
REMARK    1  A    between atoms: C_2  and  C_3 
REMARK    2  A    between atoms: N_16  and  C_17 
REMARK    3  A    between atoms: C_17  and  C_18 
REMARK       I    between atoms: C_18  and  N_19 
REMARK    4  A    between atoms: N_19  and  C_20 
REMARK    5  A    between atoms: C_21  and  C_22 
REMARK       I    between atoms: C_22  and  N_23 
REMARK    6  A    between atoms: N_23  and  C_24 
REMARK    7  A    between atoms: C_24  and  C_25 
ROOT
HETATM    1  C   UNL     1      40.725 -11.215   4.842  1.00  0.00     0.240 C 
ENDROOT
BRANCH   1   2
HETATM    2  N   UNL     1      41.284 -12.388   4.196  1.00  0.00    -0.259 N 
HETATM    3  C   UNL     1      42.020 -12.350   3.055  1.00  0.00     0.326 A 
HETATM    4  N   UNL     1      42.340 -13.633   2.692  1.00  0.00    -0.321 N 
HETATM    5  O   UNL     1      42.396 -11.357   2.458  1.00  0.00    -0.247 OA
HETATM    6  C   UNL     1      41.708 -14.627   3.528  1.00  0.00     0.140 A 
HETATM    7  H   UNL     1      42.846 -13.834   1.839  1.00  0.00     0.165 HD
HETATM    8  C   UNL     1      40.622 -15.298   2.664  1.00  0.00     0.055 C 
HETATM    9  C   UNL     1      41.018 -13.684   4.548  1.00  0.00     0.261 A 
HETATM   10  O   UNL     1      40.309 -14.033   5.482  1.00  0.00    -0.270 OA
BRANCH   6  11
HETATM   11  C   UNL     1      42.654 -15.613   4.237  1.00  0.00    -0.010 A 
HETATM   12  C   UNL     1      43.042 -16.923   3.766  1.00  0.00    -0.017 A 
HETATM   13  C   UNL     1      43.924 -17.699   4.578  1.00  0.00    -0.025 A 
HETATM   14  C   UNL     1      42.651 -17.545   2.547  1.00  0.00     0.013 A 
HETATM   15  C   UNL     1      44.331 -18.988   4.193  1.00  0.00     0.012 A 
HETATM   16  C   UNL     1      44.423 -17.197   5.783  1.00  0.00     0.012 A 
HETATM   17  C   UNL     1      43.904 -19.554   3.000  1.00  0.00     0.001 A 
HETATM   18  C   UNL     1      43.066 -18.829   2.172  1.00  0.00     0.001 A 
HETATM   19  C   UNL     1      44.092 -15.924   6.211  1.00  0.00     0.002 A 
HETATM   20  C   UNL     1      43.232 -15.147   5.446  1.00  0.00     0.011 A 
ENDBRANCH   6  11
ENDBRANCH   1   2
BRANCH   1  21
HETATM   21  C   UNL     1      41.747 -10.406   5.646  1.00  0.00     0.240 C 
HETATM   22  N   UNL     1      42.227 -11.025   6.792  1.00  0.00    -0.325 N 
HETATM   23  H   UNL     1      42.189 -12.035   6.731  1.00  0.00     0.169 HD
HETATM   24  O   UNL     1      42.046  -9.260   5.306  1.00  0.00    -0.271 OA
BRANCH  22  25
HETATM   25  C   UNL     1      43.378 -10.526   7.452  1.00  0.00     0.050 A 
HETATM   26  C   UNL     1      43.391  -9.493   8.406  1.00  0.00     0.058 A 
HETATM   27  C   UNL     1      44.616  -9.119   8.993  1.00  0.00     0.019 A 
HETATM   28  C   UNL     1      45.808  -9.750   8.642  1.00  0.00     0.001 A 
HETATM   29  C   UNL     1      45.789 -10.790   7.722  1.00  0.00     0.002 A 
HETATM   30  C   UNL     1      44.582 -11.184   7.142  1.00  0.00     0.030 A 
BRANCH  26  31
HETATM   31  C   UNL     1      42.196  -8.856   9.020  1.00  0.00     0.254 C 
HETATM   32  N   UNL     1      41.054  -9.606   9.127  1.00  0.00    -0.351 N 
HETATM   33  H   UNL     1      41.046 -10.528   8.693  1.00  0.00     0.163 HD
HETATM   34  O   UNL     1      42.246  -7.666   9.320  1.00  0.00    -0.268 OA
BRANCH  32  35
HETATM   35  C   UNL     1      39.799  -8.974   9.463  1.00  0.00     0.187 C 
BRANCH  35  36
HETATM   36  C   UNL     1      39.261  -8.202   8.315  1.00  0.00     0.070 A 
HETATM   37  O   UNL     1      39.055  -8.910   7.165  1.00  0.00    -0.325 OA
HETATM   38  C   UNL     1      38.531  -8.052   6.254  1.00  0.00     0.142 A 
HETATM   39  C   UNL     1      38.394  -6.798   6.796  1.00  0.00     0.027 A 
HETATM   40  C   UNL     1      38.858  -6.894   8.131  1.00  0.00     0.036 A 
ENDBRANCH  35  36
ENDBRANCH  32  35
ENDBRANCH  26  31
ENDBRANCH  22  25
ENDBRANCH   1  21
TORSDOF 7
ENDMDL
MODEL 9
REMARK VINA RESULT:      -9.7      2.237      2.731
REMARK  7 active torsions:
REMARK  status: ('A' for Active; 'I' for Inactive)
REMARK    1  A    between atoms: C_2  and  C_3 
REMARK    2  A    between atoms: N_16  and  C_17 
REMARK    3  A    between atoms: C_17  and  C_18 
REMARK       I    between atoms: C_18  and  N_19 
REMARK    4  A    between atoms: N_19  and  C_20 
REMARK    5  A    between atoms: C_21  and  C_22 
REMARK       I    between atoms: C_22  and  N_23 
REMARK    6  A    between atoms: N_23  and  C_24 
REMARK    7  A    between atoms: C_24  and  C_25 
ROOT
HETATM    1  C   UNL     1      41.187 -10.482   5.531  1.00  0.00     0.240 C 
ENDROOT
BRANCH   1   2
HETATM    2  N   UNL     1      41.491 -11.900   5.544  1.00  0.00    -0.259 N 
HETATM    3  C   UNL     1      40.693 -12.844   6.107  1.00  0.00     0.326 A 
HETATM    4  N   UNL     1      41.304 -14.066   5.993  1.00  0.00    -0.321 N 
HETATM    5  O   UNL     1      39.589 -12.675   6.593  1.00  0.00    -0.247 OA
HETATM    6  C   UNL     1      42.638 -13.977   5.444  1.00  0.00     0.140 A 
HETATM    7  H   UNL     1      40.900 -14.903   6.393  1.00  0.00     0.165 HD
HETATM    8  C   UNL     1      43.608 -14.277   6.603  1.00  0.00     0.055 C 
HETATM    9  C   UNL     1      42.677 -12.455   5.145  1.00  0.00     0.261 A 
HETATM   10  O   UNL     1      43.627 -11.840   4.680  1.00  0.00    -0.270 OA
BRANCH   6  11
HETATM   11  C   UNL     1      42.899 -14.799   4.168  1.00  0.00    -0.010 A 
HETATM   12  C   UNL     1      43.240 -16.203   4.104  1.00  0.00    -0.017 A 
HETATM   13  C   UNL     1      43.459 -16.785   2.819  1.00  0.00    -0.025 A 
HETATM   14  C   UNL     1      43.373 -17.102   5.198  1.00  0.00     0.013 A 
HETATM   15  C   UNL     1      43.811 -18.139   2.679  1.00  0.00     0.012 A 
HETATM   16  C   UNL     1      43.320 -16.029   1.652  1.00  0.00     0.012 A 
HETATM   17  C   UNL     1      43.944 -18.969   3.783  1.00  0.00     0.001 A 
HETATM   18  C   UNL     1      43.720 -18.450   5.046  1.00  0.00     0.001 A 
HETATM   19  C   UNL     1      42.946 -14.699   1.709  1.00  0.00     0.002 A 
HETATM   20  C   UNL     1      42.731 -14.101   2.944  1.00  0.00     0.011 A 
ENDBRANCH   6  11
ENDBRANCH   1   2
BRANCH   1  21
HETATM   21  C   UNL     1      41.819  -9.702   6.688  1.00  0.00     0.240 C 
HETATM   22  N   UNL     1      41.980 -10.416   7.869  1.00  0.00    -0.325 N 
HETATM   23  H   UNL     1      42.067 -11.412   7.709  1.00  0.00     0.169 HD
HETATM   24  O   UNL     1      42.089  -8.506   6.564  1.00  0.00    -0.271 OA
BRANCH  22  25
HETATM   25  C   UNL     1      42.810  -9.918   8.903  1.00  0.00     0.050 A 
HETATM   26  C   UNL     1      42.364  -9.295  10.082  1.00  0.00     0.058 A 
HETATM   27  C   UNL     1      43.313  -8.869  11.033  1.00  0.00     0.019 A 
HETATM   28  C   UNL     1      44.679  -9.052  10.821  1.00  0.00     0.001 A 
HETATM   29  C   UNL     1      45.116  -9.695   9.671  1.00  0.00     0.002 A 
HETATM   30  C   UNL     1      44.188 -10.137   8.726  1.00  0.00     0.030 A 
BRANCH  26  31
HETATM   31  C   UNL     1      40.953  -9.196  10.538  1.00  0.00     0.254 C 
HETATM   32  N   UNL     1      40.719  -8.685  11.789  1.00  0.00    -0.351 N 
HETATM   33  H   UNL     1      41.522  -8.491  12.384  1.00  0.00     0.163 HD
HETATM   34  O   UNL     1      40.064  -9.655   9.826  1.00  0.00    -0.268 OA
BRANCH  32  35
HETATM   35  C   UNL     1      39.410  -8.809  12.389  1.00  0.00     0.187 C 
BRANCH  35  36
HETATM   36  C   UNL     1      38.718  -7.497  12.446  1.00  0.00     0.070 A 
HETATM   37  O   UNL     1      38.810  -6.726  11.322  1.00  0.00    -0.325 OA
HETATM   38  C   UNL     1      38.091  -5.598  11.549  1.00  0.00     0.142 A 
HETATM   39  C   UNL     1      37.533  -5.627  12.803  1.00  0.00     0.027 A 
HETATM   40  C   UNL     1      37.931  -6.857  13.382  1.00  0.00     0.036 A 
ENDBRANCH  35  36
ENDBRANCH  32  35
ENDBRANCH  26  31
ENDBRANCH  22  25
ENDBRANCH   1  21
TORSDOF 7
ENDMDL
MODEL 10
REMARK VINA RESULT:      -9.7      5.223      9.206
REMARK  7 active torsions:
REMARK  status: ('A' for Active; 'I' for Inactive)
REMARK    1  A    between atoms: C_2  and  C_3 
REMARK    2  A    between atoms: N_16  and  C_17 
REMARK    3  A    between atoms: C_17  and  C_18 
REMARK       I    between atoms: C_18  and  N_19 
REMARK    4  A    between atoms: N_19  and  C_20 
REMARK    5  A    between atoms: C_21  and  C_22 
REMARK       I    between atoms: C_22  and  N_23 
REMARK    6  A    between atoms: N_23  and  C_24 
REMARK    7  A    between atoms: C_24  and  C_25 
ROOT
HETATM    1  C   UNL     1      41.059 -11.572   2.231  1.00  0.00     0.240 C 
ENDROOT
BRANCH   1   2
HETATM    2  N   UNL     1      41.278 -12.393   3.407  1.00  0.00    -0.259 N 
HETATM    3  C   UNL     1      40.284 -12.839   4.219  1.00  0.00     0.326 A 
HETATM    4  N   UNL     1      40.842 -13.535   5.260  1.00  0.00    -0.321 N 
HETATM    5  O   UNL     1      39.085 -12.707   4.051  1.00  0.00    -0.247 OA
HETATM    6  C   UNL     1      42.286 -13.478   5.263  1.00  0.00     0.140 A 
HETATM    7  H   UNL     1      40.279 -13.912   6.011  1.00  0.00     0.165 HD
HETATM    8  C   UNL     1      42.685 -12.575   6.446  1.00  0.00     0.055 C 
HETATM    9  C   UNL     1      42.501 -12.691   3.943  1.00  0.00     0.261 A 
HETATM   10  O   UNL     1      43.580 -12.346   3.483  1.00  0.00    -0.270 OA
BRANCH   6  11
HETATM   11  C   UNL     1      43.015 -14.834   5.225  1.00  0.00    -0.010 A 
HETATM   12  C   UNL     1      42.899 -15.845   4.198  1.00  0.00    -0.017 A 
HETATM   13  C   UNL     1      43.650 -17.050   4.350  1.00  0.00    -0.025 A 
HETATM   14  C   UNL     1      42.114 -15.776   3.014  1.00  0.00     0.013 A 
HETATM   15  C   UNL     1      43.574 -18.085   3.402  1.00  0.00     0.012 A 
HETATM   16  C   UNL     1      44.497 -17.238   5.445  1.00  0.00     0.012 A 
HETATM   17  C   UNL     1      42.777 -17.971   2.271  1.00  0.00     0.001 A 
HETATM   18  C   UNL     1      42.049 -16.812   2.074  1.00  0.00     0.001 A 
HETATM   19  C   UNL     1      44.647 -16.250   6.403  1.00  0.00     0.002 A 
HETATM   20  C   UNL     1      43.927 -15.069   6.286  1.00  0.00     0.011 A 
ENDBRANCH   6  11
ENDBRANCH   1   2
BRANCH   1  21
HETATM   21  C   UNL     1      40.875 -12.376   0.940  1.00  0.00     0.240 C 
HETATM   22  N   UNL     1      39.591 -12.856   0.717  1.00  0.00    -0.325 N 
HETATM   23  H   UNL     1      38.882 -12.290   1.166  1.00  0.00     0.169 HD
HETATM   24  O   UNL     1      41.838 -12.619   0.211  1.00  0.00    -0.271 OA
BRANCH  22  25
HETATM   25  C   UNL     1      39.219 -13.347  -0.560  1.00  0.00     0.050 A 
HETATM   26  C   UNL     1      38.709 -12.574  -1.618  1.00  0.00     0.058 A 
HETATM   27  C   UNL     1      38.403 -13.203  -2.840  1.00  0.00     0.019 A 
HETATM   28  C   UNL     1      38.594 -14.573  -3.015  1.00  0.00     0.001 A 
HETATM   29  C   UNL     1      39.126 -15.330  -1.979  1.00  0.00     0.002 A 
HETATM   30  C   UNL     1      39.448 -14.719  -0.766  1.00  0.00     0.030 A 
BRANCH  26  31
HETATM   31  C   UNL     1      38.626 -11.089  -1.654  1.00  0.00     0.254 C 
HETATM   32  N   UNL     1      39.193 -10.443  -2.722  1.00  0.00    -0.351 N 
HETATM   33  H   UNL     1      39.728 -10.998  -3.387  1.00  0.00     0.163 HD
HETATM   34  O   UNL     1      38.142 -10.497  -0.693  1.00  0.00    -0.268 OA
BRANCH  32  35
HETATM   35  C   UNL     1      39.380  -9.011  -2.686  1.00  0.00     0.187 C 
BRANCH  35  36
HETATM   36  C   UNL     1      40.773  -8.659  -2.314  1.00  0.00     0.070 A 
HETATM   37  O   UNL     1      41.378  -7.716  -3.096  1.00  0.00    -0.325 OA
HETATM   38  C   UNL     1      42.616  -7.503  -2.583  1.00  0.00     0.142 A 
HETATM   39  C   UNL     1      42.823  -8.294  -1.479  1.00  0.00     0.027 A 
HETATM   40  C   UNL     1      41.630  -9.037  -1.299  1.00  0.00     0.036 A 
ENDBRANCH  35  36
ENDBRANCH  32  35
ENDBRANCH  26  31
ENDBRANCH  22  25
ENDBRANCH   1  21
TORSDOF 7
ENDMDL
