MODEL 1
REMARK VINA RESULT:      -8.2      0.000      0.000
REMARK  3 active torsions:
REMARK  status: ('A' for Active; 'I' for Inactive)
REMARK    1  A    between atoms: C_3  and  C_4 
REMARK    2  A    between atoms: C_10  and  C_11 
REMARK    3  A    between atoms: C_14  and  O_15 
ROOT
HETATM    1  C   UNL     1      43.555 -11.199   7.478  1.00  0.00    -0.007 A 
HETATM    2  C   UNL     1      43.700 -12.593   7.472  1.00  0.00     0.047 A 
HETATM    3  C   UNL     1      43.505 -13.282   6.263  1.00  0.00     0.086 A 
HETATM    4  C   UNL     1      43.180 -12.576   5.115  1.00  0.00     0.063 A 
HETATM    5  N   UNL     1      43.059 -13.541   4.150  1.00  0.00    -0.338 N 
HETATM    6  H   UNL     1      42.854 -13.378   3.177  1.00  0.00     0.167 HD
HETATM    7  C   UNL     1      43.309 -14.772   4.717  1.00  0.00     0.139 A 
HETATM    8  N   UNL     1      43.593 -14.626   6.000  1.00  0.00    -0.228 NA
HETATM    9  C   UNL     1      43.046 -11.190   5.078  1.00  0.00     0.033 A 
HETATM   10  C   UNL     1      43.244 -10.515   6.290  1.00  0.00     0.016 A 
ENDROOT
BRANCH   1  11
HETATM   11  C   UNL     1      43.716 -10.393   8.733  1.00  0.00     0.069 C 
HETATM   12  C   UNL     1      44.040  -8.909   8.627  1.00  0.00     0.045 C 
HETATM   13  C   UNL     1      45.549  -8.743   8.436  1.00  0.00     0.017 C 
HETATM   14  C   UNL     1      43.541  -8.181   9.866  1.00  0.00     0.115 C 
HETATM   15  C   UNL     1      43.859  -8.933  11.126  1.00  0.00     0.238 C 
HETATM   16  N   UNL     1      43.859 -10.297  11.015  1.00  0.00    -0.247 N 
HETATM   17  O   UNL     1      44.031  -8.369  12.204  1.00  0.00    -0.272 OA
HETATM   18  N   UNL     1      43.675 -11.014   9.876  1.00  0.00    -0.176 NA
HETATM   19  H   UNL     1      43.967 -10.830  11.873  1.00  0.00     0.192 HD
ENDBRANCH   1  11
BRANCH   7  20
HETATM   20  C   UNL     1      43.296 -16.032   3.972  1.00  0.00     0.010 A 
HETATM   21  C   UNL     1      43.755 -17.201   4.590  1.00  0.00     0.018 A 
HETATM   22  C   UNL     1      43.774 -18.416   3.898  1.00  0.00     0.037 A 
HETATM   23  C   UNL     1      43.320 -18.491   2.581  1.00  0.00     0.068 A 
HETATM   24  C   UNL     1      42.846 -17.336   1.960  1.00  0.00     0.037 A 
HETATM   25  C   UNL     1      42.834 -16.116   2.651  1.00  0.00     0.018 A 
BRANCH  23  26
HETATM   26  O   UNL     1      43.391 -19.736   2.020  1.00  0.00    -0.356 OA
HETATM   27  C   UNL     1      43.814 -20.800   2.862  1.00  0.00     0.210 C 
ENDBRANCH  23  26
ENDBRANCH   7  20
TORSDOF 3
ENDMDL
MODEL 2
REMARK VINA RESULT:      -8.2      6.384      9.099
REMARK  3 active torsions:
REMARK  status: ('A' for Active; 'I' for Inactive)
REMARK    1  A    between atoms: C_3  and  C_4 
REMARK    2  A    between atoms: C_10  and  C_11 
REMARK    3  A    between atoms: C_14  and  O_15 
ROOT
HETATM    1  C   UNL     1      42.758 -16.519   2.823  1.00  0.00    -0.007 A 
HETATM    2  C   UNL     1      41.558 -16.584   2.103  1.00  0.00     0.047 A 
HETATM    3  C   UNL     1      41.146 -15.452   1.380  1.00  0.00     0.086 A 
HETATM    4  C   UNL     1      41.929 -14.308   1.393  1.00  0.00     0.063 A 
HETATM    5  N   UNL     1      41.239 -13.421   0.608  1.00  0.00    -0.338 N 
HETATM    6  H   UNL     1      41.537 -12.487   0.375  1.00  0.00     0.167 HD
HETATM    7  C   UNL     1      40.092 -14.030   0.150  1.00  0.00     0.139 A 
HETATM    8  N   UNL     1      40.030 -15.271   0.603  1.00  0.00    -0.228 NA
HETATM    9  C   UNL     1      43.136 -14.211   2.081  1.00  0.00     0.033 A 
HETATM   10  C   UNL     1      43.535 -15.347   2.796  1.00  0.00     0.016 A 
ENDROOT
BRANCH   1  11
HETATM   11  C   UNL     1      43.252 -17.672   3.644  1.00  0.00     0.069 C 
HETATM   12  C   UNL     1      43.316 -17.534   5.160  1.00  0.00     0.045 C 
HETATM   13  C   UNL     1      44.619 -16.826   5.538  1.00  0.00     0.017 C 
HETATM   14  C   UNL     1      43.204 -18.903   5.811  1.00  0.00     0.115 C 
HETATM   15  C   UNL     1      44.051 -19.928   5.112  1.00  0.00     0.238 C 
HETATM   16  N   UNL     1      44.192 -19.756   3.761  1.00  0.00    -0.247 N 
HETATM   17  O   UNL     1      44.522 -20.902   5.695  1.00  0.00    -0.272 OA
HETATM   18  N   UNL     1      43.706 -18.722   3.025  1.00  0.00    -0.176 NA
HETATM   19  H   UNL     1      44.671 -20.491   3.250  1.00  0.00     0.192 HD
ENDBRANCH   1  11
BRANCH   7  20
HETATM   20  C   UNL     1      39.125 -13.386  -0.742  1.00  0.00     0.010 A 
HETATM   21  C   UNL     1      38.624 -12.121  -0.413  1.00  0.00     0.018 A 
HETATM   22  C   UNL     1      37.685 -11.488  -1.234  1.00  0.00     0.037 A 
HETATM   23  C   UNL     1      37.240 -12.099  -2.406  1.00  0.00     0.068 A 
HETATM   24  C   UNL     1      37.744 -13.352  -2.752  1.00  0.00     0.037 A 
HETATM   25  C   UNL     1      38.680 -13.991  -1.925  1.00  0.00     0.018 A 
BRANCH  23  26
HETATM   26  O   UNL     1      36.324 -11.375  -3.118  1.00  0.00    -0.356 OA
HETATM   27  C   UNL     1      35.796 -10.212  -2.494  1.00  0.00     0.210 C 
ENDBRANCH  23  26
ENDBRANCH   7  20
TORSDOF 3
ENDMDL
MODEL 3
REMARK VINA RESULT:      -8.1      6.218      8.835
REMARK  3 active torsions:
REMARK  status: ('A' for Active; 'I' for Inactive)
REMARK    1  A    between atoms: C_3  and  C_4 
REMARK    2  A    between atoms: C_10  and  C_11 
REMARK    3  A    between atoms: C_14  and  O_15 
ROOT
HETATM    1  C   UNL     1      39.497 -12.598   0.008  1.00  0.00    -0.007 A 
HETATM    2  C   UNL     1      40.410 -13.654  -0.121  1.00  0.00     0.047 A 
HETATM    3  C   UNL     1      40.819 -14.332   1.039  1.00  0.00     0.086 A 
HETATM    4  C   UNL     1      40.315 -13.948   2.272  1.00  0.00     0.063 A 
HETATM    5  N   UNL     1      40.920 -14.798   3.161  1.00  0.00    -0.338 N 
HETATM    6  H   UNL     1      40.761 -14.819   4.156  1.00  0.00     0.167 HD
HETATM    7  C   UNL     1      41.748 -15.652   2.468  1.00  0.00     0.139 A 
HETATM    8  N   UNL     1      41.686 -15.387   1.174  1.00  0.00    -0.228 NA
HETATM    9  C   UNL     1      39.393 -12.917   2.438  1.00  0.00     0.033 A 
HETATM   10  C   UNL     1      38.992 -12.250   1.274  1.00  0.00     0.016 A 
ENDROOT
BRANCH   1  11
HETATM   11  C   UNL     1      39.034 -11.804  -1.177  1.00  0.00     0.069 C 
HETATM   12  C   UNL     1      37.613 -11.997  -1.693  1.00  0.00     0.045 C 
HETATM   13  C   UNL     1      37.582 -13.218  -2.614  1.00  0.00     0.017 C 
HETATM   14  C   UNL     1      37.146 -10.737  -2.404  1.00  0.00     0.115 C 
HETATM   15  C   UNL     1      38.205 -10.176  -3.309  1.00  0.00     0.238 C 
HETATM   16  N   UNL     1      39.495 -10.357  -2.890  1.00  0.00    -0.247 N 
HETATM   17  O   UNL     1      37.935  -9.528  -4.317  1.00  0.00    -0.272 OA
HETATM   18  N   UNL     1      39.897 -11.049  -1.791  1.00  0.00    -0.176 NA
HETATM   19  H   UNL     1      40.224  -9.898  -3.427  1.00  0.00     0.192 HD
ENDBRANCH   1  11
BRANCH   7  20
HETATM   20  C   UNL     1      42.535 -16.716   3.096  1.00  0.00     0.010 A 
HETATM   21  C   UNL     1      42.933 -17.820   2.332  1.00  0.00     0.018 A 
HETATM   22  C   UNL     1      43.667 -18.860   2.907  1.00  0.00     0.037 A 
HETATM   23  C   UNL     1      44.033 -18.813   4.253  1.00  0.00     0.068 A 
HETATM   24  C   UNL     1      43.655 -17.712   5.020  1.00  0.00     0.037 A 
HETATM   25  C   UNL     1      42.911 -16.671   4.445  1.00  0.00     0.018 A 
BRANCH  23  26
HETATM   26  O   UNL     1      44.749 -19.892   4.691  1.00  0.00    -0.356 OA
HETATM   27  C   UNL     1      44.042 -20.878   5.433  1.00  0.00     0.210 C 
ENDBRANCH  23  26
ENDBRANCH   7  20
TORSDOF 3
ENDMDL
MODEL 4
REMARK VINA RESULT:      -7.9      2.773      4.693
REMARK  3 active torsions:
REMARK  status: ('A' for Active; 'I' for Inactive)
REMARK    1  A    between atoms: C_3  and  C_4 
REMARK    2  A    between atoms: C_10  and  C_11 
REMARK    3  A    between atoms: C_14  and  O_15 
ROOT
HETATM    1  C   UNL     1      43.537  -8.842  10.541  1.00  0.00    -0.007 A 
HETATM    2  C   UNL     1      42.731  -9.224   9.460  1.00  0.00     0.047 A 
HETATM    3  C   UNL     1      43.274 -10.081   8.488  1.00  0.00     0.086 A 
HETATM    4  C   UNL     1      44.580 -10.528   8.620  1.00  0.00     0.063 A 
HETATM    5  N   UNL     1      44.776 -11.319   7.518  1.00  0.00    -0.338 N 
HETATM    6  H   UNL     1      45.616 -11.833   7.305  1.00  0.00     0.167 HD
HETATM    7  C   UNL     1      43.620 -11.336   6.770  1.00  0.00     0.139 A 
HETATM    8  N   UNL     1      42.694 -10.596   7.356  1.00  0.00    -0.228 NA
HETATM    9  C   UNL     1      45.405 -10.186   9.688  1.00  0.00     0.033 A 
HETATM   10  C   UNL     1      44.851  -9.331  10.651  1.00  0.00     0.016 A 
ENDROOT
BRANCH   1  11
HETATM   11  C   UNL     1      43.043  -7.906  11.604  1.00  0.00     0.069 C 
HETATM   12  C   UNL     1      43.197  -8.295  13.068  1.00  0.00     0.045 C 
HETATM   13  C   UNL     1      42.036  -9.210  13.463  1.00  0.00     0.017 C 
HETATM   14  C   UNL     1      43.255  -7.045  13.933  1.00  0.00     0.115 C 
HETATM   15  C   UNL     1      42.222  -6.033  13.527  1.00  0.00     0.238 C 
HETATM   16  N   UNL     1      41.919  -6.001  12.193  1.00  0.00    -0.247 N 
HETATM   17  O   UNL     1      41.736  -5.233  14.323  1.00  0.00    -0.272 OA
HETATM   18  N   UNL     1      42.404  -6.834  11.235  1.00  0.00    -0.176 NA
HETATM   19  H   UNL     1      41.304  -5.258  11.877  1.00  0.00     0.192 HD
ENDBRANCH   1  11
BRANCH   7  20
HETATM   20  C   UNL     1      43.458 -12.104   5.534  1.00  0.00     0.010 A 
HETATM   21  C   UNL     1      43.690 -11.482   4.301  1.00  0.00     0.018 A 
HETATM   22  C   UNL     1      43.525 -12.184   3.104  1.00  0.00     0.037 A 
HETATM   23  C   UNL     1      43.140 -13.524   3.113  1.00  0.00     0.068 A 
HETATM   24  C   UNL     1      42.920 -14.160   4.334  1.00  0.00     0.037 A 
HETATM   25  C   UNL     1      43.078 -13.454   5.536  1.00  0.00     0.018 A 
BRANCH  23  26
HETATM   26  O   UNL     1      43.014 -14.093   1.876  1.00  0.00    -0.356 OA
HETATM   27  C   UNL     1      43.337 -15.473   1.764  1.00  0.00     0.210 C 
ENDBRANCH  23  26
ENDBRANCH   7  20
TORSDOF 3
ENDMDL
MODEL 5
REMARK VINA RESULT:      -7.7      4.936      8.361
REMARK  3 active torsions:
REMARK  status: ('A' for Active; 'I' for Inactive)
REMARK    1  A    between atoms: C_3  and  C_4 
REMARK    2  A    between atoms: C_10  and  C_11 
REMARK    3  A    between atoms: C_14  and  O_15 
ROOT
HETATM    1  C   UNL     1      41.604  -8.027  14.390  1.00  0.00    -0.007 A 
HETATM    2  C   UNL     1      42.594  -7.783  13.429  1.00  0.00     0.047 A 
HETATM    3  C   UNL     1      42.694  -8.656  12.333  1.00  0.00     0.086 A 
HETATM    4  C   UNL     1      41.820  -9.726  12.226  1.00  0.00     0.063 A 
HETATM    5  N   UNL     1      42.200 -10.355  11.069  1.00  0.00    -0.338 N 
HETATM    6  H   UNL     1      41.757 -11.166  10.667  1.00  0.00     0.167 HD
HETATM    7  C   UNL     1      43.261  -9.670  10.517  1.00  0.00     0.139 A 
HETATM    8  N   UNL     1      43.563  -8.627  11.271  1.00  0.00    -0.228 NA
HETATM    9  C   UNL     1      40.813  -9.991  13.150  1.00  0.00     0.033 A 
HETATM   10  C   UNL     1      40.722  -9.113  14.238  1.00  0.00     0.016 A 
ENDROOT
BRANCH   1  11
HETATM   11  C   UNL     1      41.450  -7.161  15.605  1.00  0.00     0.069 C 
HETATM   12  C   UNL     1      40.062  -6.679  16.004  1.00  0.00     0.045 C 
HETATM   13  C   UNL     1      39.715  -5.434  15.186  1.00  0.00     0.017 C 
HETATM   14  C   UNL     1      40.019  -6.405  17.499  1.00  0.00     0.115 C 
HETATM   15  C   UNL     1      41.238  -5.664  17.971  1.00  0.00     0.238 C 
HETATM   16  N   UNL     1      42.396  -5.948  17.300  1.00  0.00    -0.247 N 
HETATM   17  O   UNL     1      41.217  -4.913  18.943  1.00  0.00    -0.272 OA
HETATM   18  N   UNL     1      42.525  -6.765  16.222  1.00  0.00    -0.176 NA
HETATM   19  H   UNL     1      43.252  -5.542  17.665  1.00  0.00     0.192 HD
ENDBRANCH   1  11
BRANCH   7  20
HETATM   20  C   UNL     1      43.908 -10.044   9.258  1.00  0.00     0.010 A 
HETATM   21  C   UNL     1      43.142 -10.125   8.089  1.00  0.00     0.018 A 
HETATM   22  C   UNL     1      43.727 -10.499   6.875  1.00  0.00     0.037 A 
HETATM   23  C   UNL     1      45.090 -10.784   6.801  1.00  0.00     0.068 A 
HETATM   24  C   UNL     1      45.867 -10.692   7.956  1.00  0.00     0.037 A 
HETATM   25  C   UNL     1      45.279 -10.325   9.175  1.00  0.00     0.018 A 
BRANCH  23  26
HETATM   26  O   UNL     1      45.536 -11.136   5.557  1.00  0.00    -0.356 OA
HETATM   27  C   UNL     1      44.563 -11.602   4.631  1.00  0.00     0.210 C 
ENDBRANCH  23  26
ENDBRANCH   7  20
TORSDOF 3
ENDMDL
MODEL 6
REMARK VINA RESULT:      -7.4      6.047      9.227
REMARK  3 active torsions:
REMARK  status: ('A' for Active; 'I' for Inactive)
REMARK    1  A    between atoms: C_3  and  C_4 
REMARK    2  A    between atoms: C_10  and  C_11 
REMARK    3  A    between atoms: C_14  and  O_15 
ROOT
HETATM    1  C   UNL     1      41.297 -15.281   2.409  1.00  0.00    -0.007 A 
HETATM    2  C   UNL     1      41.700 -13.997   2.018  1.00  0.00     0.047 A 
HETATM    3  C   UNL     1      41.149 -13.447   0.848  1.00  0.00     0.086 A 
HETATM    4  C   UNL     1      40.226 -14.178   0.116  1.00  0.00     0.063 A 
HETATM    5  N   UNL     1      39.912 -13.361  -0.939  1.00  0.00    -0.338 N 
HETATM    6  H   UNL     1      39.243 -13.566  -1.664  1.00  0.00     0.167 HD
HETATM    7  C   UNL     1      40.627 -12.189  -0.822  1.00  0.00     0.139 A 
HETATM    8  N   UNL     1      41.375 -12.225   0.268  1.00  0.00    -0.228 NA
HETATM    9  C   UNL     1      39.787 -15.448   0.482  1.00  0.00     0.033 A 
HETATM   10  C   UNL     1      40.344 -15.984   1.650  1.00  0.00     0.016 A 
ENDROOT
BRANCH   1  11
HETATM   11  C   UNL     1      41.860 -15.950   3.626  1.00  0.00     0.069 C 
HETATM   12  C   UNL     1      43.266 -16.534   3.572  1.00  0.00     0.045 C 
HETATM   13  C   UNL     1      43.199 -17.929   2.948  1.00  0.00     0.017 C 
HETATM   14  C   UNL     1      43.869 -16.564   4.967  1.00  0.00     0.115 C 
HETATM   15  C   UNL     1      42.889 -17.057   5.993  1.00  0.00     0.238 C 
HETATM   16  N   UNL     1      41.579 -16.741   5.756  1.00  0.00    -0.247 N 
HETATM   17  O   UNL     1      43.243 -17.636   7.017  1.00  0.00    -0.272 OA
HETATM   18  N   UNL     1      41.088 -16.101   4.663  1.00  0.00    -0.176 NA
HETATM   19  H   UNL     1      40.910 -16.971   6.485  1.00  0.00     0.192 HD
ENDBRANCH   1  11
BRANCH   7  20
HETATM   20  C   UNL     1      40.521 -11.070  -1.762  1.00  0.00     0.010 A 
HETATM   21  C   UNL     1      41.478 -10.050  -1.727  1.00  0.00     0.018 A 
HETATM   22  C   UNL     1      41.392  -8.959  -2.598  1.00  0.00     0.037 A 
HETATM   23  C   UNL     1      40.358  -8.873  -3.530  1.00  0.00     0.068 A 
HETATM   24  C   UNL     1      39.406  -9.891  -3.584  1.00  0.00     0.037 A 
HETATM   25  C   UNL     1      39.488 -10.982  -2.705  1.00  0.00     0.018 A 
BRANCH  23  26
HETATM   26  O   UNL     1      40.389  -7.758  -4.320  1.00  0.00    -0.356 OA
HETATM   27  C   UNL     1      41.619  -7.049  -4.387  1.00  0.00     0.210 C 
ENDBRANCH  23  26
ENDBRANCH   7  20
TORSDOF 3
ENDMDL
MODEL 7
REMARK VINA RESULT:      -7.4      6.606     13.109
REMARK  3 active torsions:
REMARK  status: ('A' for Active; 'I' for Inactive)
REMARK    1  A    between atoms: C_3  and  C_4 
REMARK    2  A    between atoms: C_10  and  C_11 
REMARK    3  A    between atoms: C_14  and  O_15 
ROOT
HETATM    1  C   UNL     1      43.213  -9.123  11.993  1.00  0.00    -0.007 A 
HETATM    2  C   UNL     1      43.495  -8.068  12.871  1.00  0.00     0.047 A 
HETATM    3  C   UNL     1      42.717  -7.935  14.034  1.00  0.00     0.086 A 
HETATM    4  C   UNL     1      41.700  -8.842  14.285  1.00  0.00     0.063 A 
HETATM    5  N   UNL     1      41.158  -8.418  15.471  1.00  0.00    -0.338 N 
HETATM    6  H   UNL     1      40.405  -8.868  15.968  1.00  0.00     0.167 HD
HETATM    7  C   UNL     1      41.840  -7.300  15.897  1.00  0.00     0.139 A 
HETATM    8  N   UNL     1      42.799  -7.003  15.037  1.00  0.00    -0.228 NA
HETATM    9  C   UNL     1      41.401  -9.914  13.448  1.00  0.00     0.033 A 
HETATM   10  C   UNL     1      42.185 -10.036  12.293  1.00  0.00     0.016 A 
ENDROOT
BRANCH   1  11
HETATM   11  C   UNL     1      43.976  -9.316  10.717  1.00  0.00     0.069 C 
HETATM   12  C   UNL     1      43.776  -8.329   9.574  1.00  0.00     0.045 C 
HETATM   13  C   UNL     1      42.530  -8.733   8.783  1.00  0.00     0.017 C 
HETATM   14  C   UNL     1      45.018  -8.293   8.697  1.00  0.00     0.115 C 
HETATM   15  C   UNL     1      45.550  -9.670   8.419  1.00  0.00     0.238 C 
HETATM   16  N   UNL     1      45.374 -10.584   9.423  1.00  0.00    -0.247 N 
HETATM   17  O   UNL     1      46.171  -9.941   7.395  1.00  0.00    -0.272 OA
HETATM   18  N   UNL     1      44.711 -10.382  10.591  1.00  0.00    -0.176 NA
HETATM   19  H   UNL     1      45.816 -11.490   9.303  1.00  0.00     0.192 HD
ENDBRANCH   1  11
BRANCH   7  20
HETATM   20  C   UNL     1      41.548  -6.592  17.146  1.00  0.00     0.010 A 
HETATM   21  C   UNL     1      41.708  -7.258  18.367  1.00  0.00     0.018 A 
HETATM   22  C   UNL     1      41.419  -6.617  19.575  1.00  0.00     0.037 A 
HETATM   23  C   UNL     1      40.980  -5.293  19.589  1.00  0.00     0.068 A 
HETATM   24  C   UNL     1      40.830  -4.614  18.380  1.00  0.00     0.037 A 
HETATM   25  C   UNL     1      41.113  -5.260  17.167  1.00  0.00     0.018 A 
BRANCH  23  26
HETATM   26  O   UNL     1      40.732  -4.784  20.834  1.00  0.00    -0.356 OA
HETATM   27  C   UNL     1      39.991  -5.602  21.729  1.00  0.00     0.210 C 
ENDBRANCH  23  26
ENDBRANCH   7  20
TORSDOF 3
ENDMDL
MODEL 8
REMARK VINA RESULT:      -7.4     17.785     20.685
REMARK  3 active torsions:
REMARK  status: ('A' for Active; 'I' for Inactive)
REMARK    1  A    between atoms: C_3  and  C_4 
REMARK    2  A    between atoms: C_10  and  C_11 
REMARK    3  A    between atoms: C_14  and  O_15 
ROOT
HETATM    1  C   UNL     1      46.172 -29.931  -2.830  1.00  0.00    -0.007 A 
HETATM    2  C   UNL     1      46.737 -30.811  -1.896  1.00  0.00     0.047 A 
HETATM    3  C   UNL     1      47.426 -30.272  -0.797  1.00  0.00     0.086 A 
HETATM    4  C   UNL     1      47.529 -28.896  -0.660  1.00  0.00     0.063 A 
HETATM    5  N   UNL     1      48.254 -28.728   0.491  1.00  0.00    -0.338 N 
HETATM    6  H   UNL     1      48.496 -27.844   0.910  1.00  0.00     0.167 HD
HETATM    7  C   UNL     1      48.561 -29.967   1.010  1.00  0.00     0.139 A 
HETATM    8  N   UNL     1      48.052 -30.914   0.241  1.00  0.00    -0.228 NA
HETATM    9  C   UNL     1      46.966 -27.990  -1.555  1.00  0.00     0.033 A 
HETATM   10  C   UNL     1      46.281 -28.541  -2.646  1.00  0.00     0.016 A 
ENDROOT
BRANCH   1  11
HETATM   11  C   UNL     1      45.448 -30.426  -4.046  1.00  0.00     0.069 C 
HETATM   12  C   UNL     1      45.546 -31.898  -4.423  1.00  0.00     0.045 C 
HETATM   13  C   UNL     1      46.837 -32.121  -5.214  1.00  0.00     0.017 C 
HETATM   14  C   UNL     1      44.317 -32.313  -5.215  1.00  0.00     0.115 C 
HETATM   15  C   UNL     1      43.945 -31.294  -6.253  1.00  0.00     0.238 C 
HETATM   16  N   UNL     1      44.213 -29.992  -5.924  1.00  0.00    -0.247 N 
HETATM   17  O   UNL     1      43.368 -31.594  -7.295  1.00  0.00    -0.272 OA
HETATM   18  N   UNL     1      44.838 -29.557  -4.799  1.00  0.00    -0.176 NA
HETATM   19  H   UNL     1      43.877 -29.277  -6.561  1.00  0.00     0.192 HD
ENDBRANCH   1  11
BRANCH   7  20
HETATM   20  C   UNL     1      49.306 -30.169   2.254  1.00  0.00     0.010 A 
HETATM   21  C   UNL     1      50.702 -30.262   2.212  1.00  0.00     0.018 A 
HETATM   22  C   UNL     1      51.440 -30.475   3.380  1.00  0.00     0.037 A 
HETATM   23  C   UNL     1      50.801 -30.585   4.615  1.00  0.00     0.068 A 
HETATM   24  C   UNL     1      49.411 -30.479   4.672  1.00  0.00     0.037 A 
HETATM   25  C   UNL     1      48.670 -30.273   3.499  1.00  0.00     0.018 A 
BRANCH  23  26
HETATM   26  O   UNL     1      51.636 -30.792   5.677  1.00  0.00    -0.356 OA
HETATM   27  C   UNL     1      52.154 -32.105   5.844  1.00  0.00     0.210 C 
ENDBRANCH  23  26
ENDBRANCH   7  20
TORSDOF 3
ENDMDL
MODEL 9
REMARK VINA RESULT:      -7.3      1.944      2.340
REMARK  3 active torsions:
REMARK  status: ('A' for Active; 'I' for Inactive)
REMARK    1  A    between atoms: C_3  and  C_4 
REMARK    2  A    between atoms: C_10  and  C_11 
REMARK    3  A    between atoms: C_14  and  O_15 
ROOT
HETATM    1  C   UNL     1      42.113 -10.565   6.822  1.00  0.00    -0.007 A 
HETATM    2  C   UNL     1      43.115 -11.520   6.602  1.00  0.00     0.047 A 
HETATM    3  C   UNL     1      42.775 -12.707   5.932  1.00  0.00     0.086 A 
HETATM    4  C   UNL     1      41.470 -12.905   5.507  1.00  0.00     0.063 A 
HETATM    5  N   UNL     1      41.494 -14.141   4.914  1.00  0.00    -0.338 N 
HETATM    6  H   UNL     1      40.714 -14.594   4.466  1.00  0.00     0.167 HD
HETATM    7  C   UNL     1      42.774 -14.646   4.989  1.00  0.00     0.139 A 
HETATM    8  N   UNL     1      43.565 -13.778   5.596  1.00  0.00    -0.228 NA
HETATM    9  C   UNL     1      40.452 -11.972   5.690  1.00  0.00     0.033 A 
HETATM   10  C   UNL     1      40.805 -10.793   6.358  1.00  0.00     0.016 A 
ENDROOT
BRANCH   1  11
HETATM   11  C   UNL     1      42.388  -9.286   7.555  1.00  0.00     0.069 C 
HETATM   12  C   UNL     1      41.377  -8.150   7.474  1.00  0.00     0.045 C 
HETATM   13  C   UNL     1      41.623  -7.358   6.189  1.00  0.00     0.017 C 
HETATM   14  C   UNL     1      41.485  -7.272   8.711  1.00  0.00     0.115 C 
HETATM   15  C   UNL     1      42.913  -6.983   9.073  1.00  0.00     0.238 C 
HETATM   16  N   UNL     1      43.806  -7.981   8.790  1.00  0.00    -0.247 N 
HETATM   17  O   UNL     1      43.250  -5.956   9.657  1.00  0.00    -0.272 OA
HETATM   18  N   UNL     1      43.534  -9.152   8.157  1.00  0.00    -0.176 NA
HETATM   19  H   UNL     1      44.758  -7.855   9.119  1.00  0.00     0.192 HD
ENDBRANCH   1  11
BRANCH   7  20
HETATM   20  C   UNL     1      43.175 -15.939   4.431  1.00  0.00     0.010 A 
HETATM   21  C   UNL     1      42.809 -16.265   3.120  1.00  0.00     0.018 A 
HETATM   22  C   UNL     1      43.161 -17.500   2.566  1.00  0.00     0.037 A 
HETATM   23  C   UNL     1      43.897 -18.426   3.304  1.00  0.00     0.068 A 
HETATM   24  C   UNL     1      44.280 -18.107   4.606  1.00  0.00     0.037 A 
HETATM   25  C   UNL     1      43.921 -16.872   5.165  1.00  0.00     0.018 A 
BRANCH  23  26
HETATM   26  O   UNL     1      44.175 -19.593   2.646  1.00  0.00    -0.356 OA
HETATM   27  C   UNL     1      43.105 -20.204   1.937  1.00  0.00     0.210 C 
ENDBRANCH  23  26
ENDBRANCH   7  20
TORSDOF 3
ENDMDL
MODEL 10
REMARK VINA RESULT:      -7.2      6.283      8.097
REMARK  3 active torsions:
REMARK  status: ('A' for Active; 'I' for Inactive)
REMARK    1  A    between atoms: C_3  and  C_4 
REMARK    2  A    between atoms: C_10  and  C_11 
REMARK    3  A    between atoms: C_14  and  O_15 
ROOT
HETATM    1  C   UNL     1      38.691 -11.948   0.325  1.00  0.00    -0.007 A 
HETATM    2  C   UNL     1      39.025 -12.576   1.533  1.00  0.00     0.047 A 
HETATM    3  C   UNL     1      39.980 -13.606   1.512  1.00  0.00     0.086 A 
HETATM    4  C   UNL     1      40.565 -13.975   0.311  1.00  0.00     0.063 A 
HETATM    5  N   UNL     1      41.421 -14.990   0.652  1.00  0.00    -0.338 N 
HETATM    6  H   UNL     1      42.036 -15.478   0.021  1.00  0.00     0.167 HD
HETATM    7  C   UNL     1      41.338 -15.204   2.010  1.00  0.00     0.139 A 
HETATM    8  N   UNL     1      40.473 -14.360   2.547  1.00  0.00    -0.228 NA
HETATM    9  C   UNL     1      40.274 -13.363  -0.906  1.00  0.00     0.033 A 
HETATM   10  C   UNL     1      39.321 -12.336  -0.871  1.00  0.00     0.016 A 
ENDROOT
BRANCH   1  11
HETATM   11  C   UNL     1      37.660 -10.861   0.258  1.00  0.00     0.069 C 
HETATM   12  C   UNL     1      37.907  -9.656  -0.641  1.00  0.00     0.045 C 
HETATM   13  C   UNL     1      38.785  -8.651   0.108  1.00  0.00     0.017 C 
HETATM   14  C   UNL     1      36.580  -9.046  -1.064  1.00  0.00     0.115 C 
HETATM   15  C   UNL     1      35.616  -8.945   0.083  1.00  0.00     0.238 C 
HETATM   16  N   UNL     1      35.712  -9.934   1.024  1.00  0.00    -0.247 N 
HETATM   17  O   UNL     1      34.745  -8.079   0.137  1.00  0.00    -0.272 OA
HETATM   18  N   UNL     1      36.631 -10.935   1.051  1.00  0.00    -0.176 NA
HETATM   19  H   UNL     1      35.006  -9.948   1.752  1.00  0.00     0.192 HD
ENDBRANCH   1  11
BRANCH   7  20
HETATM   20  C   UNL     1      42.136 -16.199   2.730  1.00  0.00     0.010 A 
HETATM   21  C   UNL     1      42.085 -16.241   4.128  1.00  0.00     0.018 A 
HETATM   22  C   UNL     1      42.850 -17.166   4.844  1.00  0.00     0.037 A 
HETATM   23  C   UNL     1      43.670 -18.078   4.179  1.00  0.00     0.068 A 
HETATM   24  C   UNL     1      43.718 -18.056   2.785  1.00  0.00     0.037 A 
HETATM   25  C   UNL     1      42.956 -17.123   2.067  1.00  0.00     0.018 A 
BRANCH  23  26
HETATM   26  O   UNL     1      44.364 -18.927   4.995  1.00  0.00    -0.356 OA
HETATM   27  C   UNL     1      43.649 -19.513   6.075  1.00  0.00     0.210 C 
ENDBRANCH  23  26
ENDBRANCH   7  20
TORSDOF 3
ENDMDL
