MODEL 1
REMARK VINA RESULT:      -8.2      0.000      0.000
REMARK  3 active torsions:
REMARK  status: ('A' for Active; 'I' for Inactive)
REMARK    1  A    between atoms: C_2  and  N_3 
REMARK       I    between atoms: N_3  and  C_4 
REMARK    2  A    between atoms: C_4  and  C_5 
REMARK    3  A    between atoms: C_5  and  C_6 
ROOT
HETATM    1  C   UNL     1      40.308 -15.511   5.432  1.00  0.00     0.286 C 
HETATM    2  N   UNL     1      40.199 -16.116   4.028  1.00  0.00    -0.056 N 
HETATM    3  H   UNL     1      40.860 -16.913   3.956  1.00  0.00     0.278 HD
HETATM    4  H   UNL     1      39.256 -16.510   3.905  1.00  0.00     0.278 HD
HETATM    5  C   UNL     1      40.515 -15.166   2.901  1.00  0.00     0.209 C 
HETATM    6  C   UNL     1      39.706 -13.868   3.085  1.00  0.00     0.115 C 
HETATM    7  N   UNL     1      39.966 -13.269   4.383  1.00  0.00    -0.353 N 
HETATM    8  C   UNL     1      40.034 -14.001   5.539  1.00  0.00     0.249 C 
HETATM    9  O   UNL     1      39.910 -13.444   6.625  1.00  0.00    -0.271 OA
HETATM   10  C   UNL     1      40.199 -15.832   1.566  1.00  0.00     0.035 C 
HETATM   11  C   UNL     1      40.484 -14.869   0.413  1.00  0.00     0.002 C 
HETATM   12  C   UNL     1      39.756 -13.534   0.584  1.00  0.00     0.002 C 
HETATM   13  C   UNL     1      40.022 -12.896   1.947  1.00  0.00     0.027 C 
HETATM   14  H   UNL     1      39.704 -12.297   4.540  1.00  0.00     0.163 HD
ENDROOT
BRANCH   1  15
HETATM   15  C   UNL     1      41.604 -15.902   6.148  1.00  0.00     0.146 C 
BRANCH  15  16
HETATM   16  C   UNL     1      42.811 -15.371   5.437  1.00  0.00     0.224 C 
HETATM   17  N   UNL     1      43.605 -16.055   4.585  1.00  0.00    -0.327 N 
HETATM   18  H   UNL     1      44.350 -15.447   4.252  1.00  0.00     0.169 HD
HETATM   19  O   UNL     1      43.176 -14.229   5.764  1.00  0.00    -0.273 OA
BRANCH  17  20
HETATM   20  C   UNL     1      43.663 -17.362   4.065  1.00  0.00     0.034 A 
HETATM   21  C   UNL     1      43.273 -17.769   2.790  1.00  0.00     0.032 A 
HETATM   22  C   UNL     1      43.356 -19.118   2.414  1.00  0.00     0.044 A 
HETATM   23  C   UNL     1      43.835 -20.063   3.308  1.00  0.00     0.116 A 
HETATM   24  C   UNL     1      44.243 -19.685   4.575  1.00  0.00     0.044 A 
HETATM   25  F   UNL     1      43.906 -21.347   2.942  1.00  0.00    -0.206 F 
HETATM   26  C   UNL     1      44.159 -18.340   4.949  1.00  0.00     0.032 A 
ENDBRANCH  17  20
ENDBRANCH  15  16
ENDBRANCH   1  15
TORSDOF 3
ENDMDL
MODEL 2
REMARK VINA RESULT:      -8.1      2.528      5.863
REMARK  3 active torsions:
REMARK  status: ('A' for Active; 'I' for Inactive)
REMARK    1  A    between atoms: C_2  and  N_3 
REMARK       I    between atoms: N_3  and  C_4 
REMARK    2  A    between atoms: C_4  and  C_5 
REMARK    3  A    between atoms: C_5  and  C_6 
ROOT
HETATM    1  C   UNL     1      43.441 -15.818   4.852  1.00  0.00     0.286 C 
HETATM    2  N   UNL     1      43.406 -16.493   3.476  1.00  0.00    -0.056 N 
HETATM    3  H   UNL     1      42.666 -16.045   2.903  1.00  0.00     0.278 HD
HETATM    4  H   UNL     1      44.296 -16.314   2.993  1.00  0.00     0.278 HD
HETATM    5  C   UNL     1      43.121 -17.973   3.503  1.00  0.00     0.209 C 
HETATM    6  C   UNL     1      44.064 -18.658   4.509  1.00  0.00     0.115 C 
HETATM    7  N   UNL     1      43.942 -18.063   5.829  1.00  0.00    -0.353 N 
HETATM    8  C   UNL     1      43.869 -16.711   6.030  1.00  0.00     0.249 C 
HETATM    9  O   UNL     1      44.111 -16.242   7.138  1.00  0.00    -0.271 OA
HETATM   10  C   UNL     1      43.290 -18.552   2.101  1.00  0.00     0.035 C 
HETATM   11  C   UNL     1      43.035 -20.059   2.117  1.00  0.00     0.002 C 
HETATM   12  C   UNL     1      43.900 -20.780   3.152  1.00  0.00     0.002 C 
HETATM   13  C   UNL     1      43.780 -20.161   4.545  1.00  0.00     0.027 C 
HETATM   14  H   UNL     1      44.308 -18.569   6.635  1.00  0.00     0.163 HD
ENDROOT
BRANCH   1  15
HETATM   15  C   UNL     1      42.156 -15.046   5.167  1.00  0.00     0.146 C 
BRANCH  15  16
HETATM   16  C   UNL     1      40.938 -15.896   4.974  1.00  0.00     0.224 C 
HETATM   17  N   UNL     1      40.125 -15.899   3.896  1.00  0.00    -0.327 N 
HETATM   18  H   UNL     1      39.376 -16.573   4.037  1.00  0.00     0.169 HD
HETATM   19  O   UNL     1      40.583 -16.568   5.957  1.00  0.00    -0.273 OA
BRANCH  17  20
HETATM   20  C   UNL     1      40.052 -15.218   2.666  1.00  0.00     0.034 A 
HETATM   21  C   UNL     1      40.256 -15.761   1.399  1.00  0.00     0.032 A 
HETATM   22  C   UNL     1      40.184 -14.955   0.254  1.00  0.00     0.044 A 
HETATM   23  C   UNL     1      39.902 -13.602   0.371  1.00  0.00     0.116 A 
HETATM   24  C   UNL     1      39.680 -13.038   1.616  1.00  0.00     0.044 A 
HETATM   25  F   UNL     1      39.840 -12.839  -0.725  1.00  0.00    -0.206 F 
HETATM   26  C   UNL     1      39.753 -13.845   2.756  1.00  0.00     0.032 A 
ENDBRANCH  17  20
ENDBRANCH  15  16
ENDBRANCH   1  15
TORSDOF 3
ENDMDL
MODEL 3
REMARK VINA RESULT:      -7.8      2.270      5.256
REMARK  3 active torsions:
REMARK  status: ('A' for Active; 'I' for Inactive)
REMARK    1  A    between atoms: C_2  and  N_3 
REMARK       I    between atoms: N_3  and  C_4 
REMARK    2  A    between atoms: C_4  and  C_5 
REMARK    3  A    between atoms: C_5  and  C_6 
ROOT
HETATM    1  C   UNL     1      43.013 -13.622   5.020  1.00  0.00     0.286 C 
HETATM    2  N   UNL     1      43.203 -14.319   3.667  1.00  0.00    -0.056 N 
HETATM    3  H   UNL     1      42.542 -13.905   2.983  1.00  0.00     0.278 HD
HETATM    4  H   UNL     1      44.149 -14.115   3.316  1.00  0.00     0.278 HD
HETATM    5  C   UNL     1      42.965 -15.807   3.681  1.00  0.00     0.209 C 
HETATM    6  C   UNL     1      43.771 -16.444   4.828  1.00  0.00     0.115 C 
HETATM    7  N   UNL     1      43.437 -15.834   6.104  1.00  0.00    -0.353 N 
HETATM    8  C   UNL     1      43.292 -14.481   6.265  1.00  0.00     0.249 C 
HETATM    9  O   UNL     1      43.352 -13.988   7.387  1.00  0.00    -0.271 OA
HETATM   10  C   UNL     1      43.358 -16.400   2.331  1.00  0.00     0.035 C 
HETATM   11  C   UNL     1      43.152 -17.915   2.340  1.00  0.00     0.002 C 
HETATM   12  C   UNL     1      43.879 -18.590   3.504  1.00  0.00     0.002 C 
HETATM   13  C   UNL     1      43.534 -17.955   4.852  1.00  0.00     0.027 C 
HETATM   14  H   UNL     1      43.696 -16.314   6.964  1.00  0.00     0.163 HD
ENDROOT
BRANCH   1  15
HETATM   15  C   UNL     1      41.672 -12.891   5.127  1.00  0.00     0.146 C 
BRANCH  15  16
HETATM   16  C   UNL     1      40.523 -13.849   5.195  1.00  0.00     0.224 C 
HETATM   17  N   UNL     1      39.860 -14.382   4.147  1.00  0.00    -0.327 N 
HETATM   18  H   UNL     1      39.124 -14.998   4.486  1.00  0.00     0.169 HD
HETATM   19  O   UNL     1      40.067 -14.070   6.329  1.00  0.00    -0.273 OA
BRANCH  17  20
HETATM   20  C   UNL     1      39.925 -14.296   2.742  1.00  0.00     0.034 A 
HETATM   21  C   UNL     1      40.003 -13.131   1.982  1.00  0.00     0.032 A 
HETATM   22  C   UNL     1      40.029 -13.192   0.581  1.00  0.00     0.044 A 
HETATM   23  C   UNL     1      39.983 -14.418  -0.065  1.00  0.00     0.116 A 
HETATM   24  C   UNL     1      39.921 -15.592   0.666  1.00  0.00     0.044 A 
HETATM   25  F   UNL     1      40.004 -14.466  -1.401  1.00  0.00    -0.206 F 
HETATM   26  C   UNL     1      39.894 -15.529   2.062  1.00  0.00     0.032 A 
ENDBRANCH  17  20
ENDBRANCH  15  16
ENDBRANCH   1  15
TORSDOF 3
ENDMDL
MODEL 4
REMARK VINA RESULT:      -7.8      2.267      3.798
REMARK  3 active torsions:
REMARK  status: ('A' for Active; 'I' for Inactive)
REMARK    1  A    between atoms: C_2  and  N_3 
REMARK       I    between atoms: N_3  and  C_4 
REMARK    2  A    between atoms: C_4  and  C_5 
REMARK    3  A    between atoms: C_5  and  C_6 
ROOT
HETATM    1  C   UNL     1      40.620 -14.747   3.903  1.00  0.00     0.286 C 
HETATM    2  N   UNL     1      41.278 -13.367   3.791  1.00  0.00    -0.056 N 
HETATM    3  H   UNL     1      41.448 -13.159   2.788  1.00  0.00     0.278 HD
HETATM    4  H   UNL     1      40.618 -12.653   4.126  1.00  0.00     0.278 HD
HETATM    5  C   UNL     1      42.596 -13.231   4.509  1.00  0.00     0.209 C 
HETATM    6  C   UNL     1      42.443 -13.733   5.957  1.00  0.00     0.115 C 
HETATM    7  N   UNL     1      41.951 -15.099   5.989  1.00  0.00    -0.353 N 
HETATM    8  C   UNL     1      40.938 -15.543   5.181  1.00  0.00     0.249 C 
HETATM    9  O   UNL     1      40.331 -16.570   5.467  1.00  0.00    -0.271 OA
HETATM   10  C   UNL     1      43.053 -11.777   4.471  1.00  0.00     0.035 C 
HETATM   11  C   UNL     1      44.374 -11.617   5.224  1.00  0.00     0.002 C 
HETATM   12  C   UNL     1      44.295 -12.164   6.650  1.00  0.00     0.002 C 
HETATM   13  C   UNL     1      43.778 -13.602   6.694  1.00  0.00     0.027 C 
HETATM   14  H   UNL     1      42.042 -15.637   6.850  1.00  0.00     0.163 HD
ENDROOT
BRANCH   1  15
HETATM   15  C   UNL     1      40.811 -15.599   2.645  1.00  0.00     0.146 C 
BRANCH  15  16
HETATM   16  C   UNL     1      42.185 -15.440   2.071  1.00  0.00     0.224 C 
HETATM   17  N   UNL     1      43.243 -16.250   2.286  1.00  0.00    -0.327 N 
HETATM   18  H   UNL     1      44.049 -15.902   1.772  1.00  0.00     0.169 HD
HETATM   19  O   UNL     1      42.390 -14.391   1.437  1.00  0.00    -0.273 OA
BRANCH  17  20
HETATM   20  C   UNL     1      43.504 -17.418   3.028  1.00  0.00     0.034 A 
HETATM   21  C   UNL     1      43.906 -17.487   4.361  1.00  0.00     0.032 A 
HETATM   22  C   UNL     1      44.164 -18.724   4.967  1.00  0.00     0.044 A 
HETATM   23  C   UNL     1      44.016 -19.899   4.246  1.00  0.00     0.116 A 
HETATM   24  C   UNL     1      43.604 -19.862   2.925  1.00  0.00     0.044 A 
HETATM   25  F   UNL     1      44.269 -21.074   4.831  1.00  0.00    -0.206 F 
HETATM   26  C   UNL     1      43.348 -18.627   2.322  1.00  0.00     0.032 A 
ENDBRANCH  17  20
ENDBRANCH  15  16
ENDBRANCH   1  15
TORSDOF 3
ENDMDL
MODEL 5
REMARK VINA RESULT:      -7.6      2.081      2.743
REMARK  3 active torsions:
REMARK  status: ('A' for Active; 'I' for Inactive)
REMARK    1  A    between atoms: C_2  and  N_3 
REMARK       I    between atoms: N_3  and  C_4 
REMARK    2  A    between atoms: C_4  and  C_5 
REMARK    3  A    between atoms: C_5  and  C_6 
ROOT
HETATM    1  C   UNL     1      39.898 -15.050   2.346  1.00  0.00     0.286 C 
HETATM    2  N   UNL     1      39.526 -15.387   0.897  1.00  0.00    -0.056 N 
HETATM    3  H   UNL     1      39.827 -16.359   0.694  1.00  0.00     0.278 HD
HETATM    4  H   UNL     1      38.502 -15.375   0.803  1.00  0.00     0.278 HD
HETATM    5  C   UNL     1      40.152 -14.494  -0.143  1.00  0.00     0.209 C 
HETATM    6  C   UNL     1      39.910 -13.021   0.236  1.00  0.00     0.115 C 
HETATM    7  N   UNL     1      40.416 -12.732   1.567  1.00  0.00    -0.353 N 
HETATM    8  C   UNL     1      40.229 -13.574   2.631  1.00  0.00     0.249 C 
HETATM    9  O   UNL     1      40.360 -13.153   3.776  1.00  0.00    -0.271 OA
HETATM   10  C   UNL     1      39.567 -14.818  -1.514  1.00  0.00     0.035 C 
HETATM   11  C   UNL     1      40.169 -13.897  -2.576  1.00  0.00     0.002 C 
HETATM   12  C   UNL     1      40.016 -12.419  -2.214  1.00  0.00     0.002 C 
HETATM   13  C   UNL     1      40.545 -12.106  -0.814  1.00  0.00     0.027 C 
HETATM   14  H   UNL     1      40.553 -11.761   1.844  1.00  0.00     0.163 HD
ENDROOT
BRANCH   1  15
HETATM   15  C   UNL     1      40.963 -15.989   2.919  1.00  0.00     0.146 C 
BRANCH  15  16
HETATM   16  C   UNL     1      42.237 -15.926   2.134  1.00  0.00     0.224 C 
HETATM   17  N   UNL     1      43.221 -16.850   2.127  1.00  0.00    -0.327 N 
HETATM   18  H   UNL     1      43.968 -16.549   1.505  1.00  0.00     0.169 HD
HETATM   19  O   UNL     1      42.451 -14.861   1.530  1.00  0.00    -0.273 OA
BRANCH  17  20
HETATM   20  C   UNL     1      43.469 -18.087   2.753  1.00  0.00     0.034 A 
HETATM   21  C   UNL     1      43.349 -19.351   2.178  1.00  0.00     0.032 A 
HETATM   22  C   UNL     1      43.598 -20.507   2.932  1.00  0.00     0.044 A 
HETATM   23  C   UNL     1      43.974 -20.404   4.263  1.00  0.00     0.116 A 
HETATM   24  C   UNL     1      44.115 -19.161   4.856  1.00  0.00     0.044 A 
HETATM   25  F   UNL     1      44.204 -21.511   4.976  1.00  0.00    -0.206 F 
HETATM   26  C   UNL     1      43.866 -18.009   4.102  1.00  0.00     0.032 A 
ENDBRANCH  17  20
ENDBRANCH  15  16
ENDBRANCH   1  15
TORSDOF 3
ENDMDL
MODEL 6
REMARK VINA RESULT:      -7.5     13.980     16.553
REMARK  3 active torsions:
REMARK  status: ('A' for Active; 'I' for Inactive)
REMARK    1  A    between atoms: C_2  and  N_3 
REMARK       I    between atoms: N_3  and  C_4 
REMARK    2  A    between atoms: C_4  and  C_5 
REMARK    3  A    between atoms: C_5  and  C_6 
ROOT
HETATM    1  C   UNL     1      48.607 -30.012   0.110  1.00  0.00     0.286 C 
HETATM    2  N   UNL     1      47.881 -30.552   1.347  1.00  0.00    -0.056 N 
HETATM    3  H   UNL     1      47.021 -29.991   1.501  1.00  0.00     0.278 HD
HETATM    4  H   UNL     1      47.570 -31.514   1.159  1.00  0.00     0.278 HD
HETATM    5  C   UNL     1      48.682 -30.507   2.623  1.00  0.00     0.209 C 
HETATM    6  C   UNL     1      50.063 -31.145   2.383  1.00  0.00     0.115 C 
HETATM    7  N   UNL     1      50.758 -30.491   1.288  1.00  0.00    -0.353 N 
HETATM    8  C   UNL     1      50.140 -30.146   0.115  1.00  0.00     0.249 C 
HETATM    9  O   UNL     1      50.809 -29.921  -0.888  1.00  0.00    -0.271 OA
HETATM   10  C   UNL     1      47.922 -31.230   3.730  1.00  0.00     0.035 C 
HETATM   11  C   UNL     1      48.737 -31.222   5.024  1.00  0.00     0.002 C 
HETATM   12  C   UNL     1      50.145 -31.784   4.823  1.00  0.00     0.002 C 
HETATM   13  C   UNL     1      50.885 -31.102   3.672  1.00  0.00     0.027 C 
HETATM   14  H   UNL     1      51.762 -30.634   1.184  1.00  0.00     0.163 HD
ENDROOT
BRANCH   1  15
HETATM   15  C   UNL     1      48.166 -28.593  -0.265  1.00  0.00     0.146 C 
BRANCH  15  16
HETATM   16  C   UNL     1      46.846 -28.243   0.351  1.00  0.00     0.224 C 
HETATM   17  N   UNL     1      45.635 -28.352  -0.234  1.00  0.00    -0.327 N 
HETATM   18  H   UNL     1      44.914 -28.042   0.414  1.00  0.00     0.169 HD
HETATM   19  O   UNL     1      46.895 -27.687   1.461  1.00  0.00    -0.273 OA
BRANCH  17  20
HETATM   20  C   UNL     1      45.133 -28.767  -1.483  1.00  0.00     0.034 A 
HETATM   21  C   UNL     1      44.354 -29.894  -1.735  1.00  0.00     0.032 A 
HETATM   22  C   UNL     1      43.950 -30.207  -3.041  1.00  0.00     0.044 A 
HETATM   23  C   UNL     1      44.317 -29.390  -4.099  1.00  0.00     0.116 A 
HETATM   24  C   UNL     1      45.079 -28.256  -3.876  1.00  0.00     0.044 A 
HETATM   25  F   UNL     1      43.931 -29.698  -5.342  1.00  0.00    -0.206 F 
HETATM   26  C   UNL     1      45.482 -27.946  -2.573  1.00  0.00     0.032 A 
ENDBRANCH  17  20
ENDBRANCH  15  16
ENDBRANCH   1  15
TORSDOF 3
ENDMDL
MODEL 7
REMARK VINA RESULT:      -7.5      4.349      6.637
REMARK  3 active torsions:
REMARK  status: ('A' for Active; 'I' for Inactive)
REMARK    1  A    between atoms: C_2  and  N_3 
REMARK       I    between atoms: N_3  and  C_4 
REMARK    2  A    between atoms: C_4  and  C_5 
REMARK    3  A    between atoms: C_5  and  C_6 
ROOT
HETATM    1  C   UNL     1      41.464 -14.637   4.660  1.00  0.00     0.286 C 
HETATM    2  N   UNL     1      42.288 -15.752   5.314  1.00  0.00    -0.056 N 
HETATM    3  H   UNL     1      42.945 -15.326   5.994  1.00  0.00     0.278 HD
HETATM    4  H   UNL     1      41.659 -16.357   5.858  1.00  0.00     0.278 HD
HETATM    5  C   UNL     1      43.105 -16.581   4.357  1.00  0.00     0.209 C 
HETATM    6  C   UNL     1      42.207 -17.064   3.203  1.00  0.00     0.115 C 
HETATM    7  N   UNL     1      41.567 -15.945   2.534  1.00  0.00    -0.353 N 
HETATM    8  C   UNL     1      41.011 -14.893   3.212  1.00  0.00     0.249 C 
HETATM    9  O   UNL     1      40.200 -14.163   2.653  1.00  0.00    -0.271 OA
HETATM   10  C   UNL     1      43.730 -17.756   5.103  1.00  0.00     0.035 C 
HETATM   11  C   UNL     1      44.537 -18.626   4.138  1.00  0.00     0.002 C 
HETATM   12  C   UNL     1      43.707 -19.077   2.935  1.00  0.00     0.002 C 
HETATM   13  C   UNL     1      43.029 -17.905   2.224  1.00  0.00     0.027 C 
HETATM   14  H   UNL     1      41.155 -16.090   1.613  1.00  0.00     0.163 HD
ENDROOT
BRANCH   1  15
HETATM   15  C   UNL     1      42.107 -13.255   4.815  1.00  0.00     0.146 C 
BRANCH  15  16
HETATM   16  C   UNL     1      41.451 -12.457   5.899  1.00  0.00     0.224 C 
HETATM   17  N   UNL     1      42.062 -11.606   6.750  1.00  0.00    -0.327 N 
HETATM   18  H   UNL     1      41.374 -11.204   7.383  1.00  0.00     0.169 HD
HETATM   19  O   UNL     1      40.250 -12.704   6.105  1.00  0.00    -0.273 OA
BRANCH  17  20
HETATM   20  C   UNL     1      43.376 -11.154   6.979  1.00  0.00     0.034 A 
HETATM   21  C   UNL     1      44.551 -11.731   6.502  1.00  0.00     0.032 A 
HETATM   22  C   UNL     1      45.801 -11.191   6.837  1.00  0.00     0.044 A 
HETATM   23  C   UNL     1      45.882 -10.068   7.645  1.00  0.00     0.116 A 
HETATM   24  C   UNL     1      44.730  -9.464   8.121  1.00  0.00     0.044 A 
HETATM   25  F   UNL     1      47.078  -9.562   7.963  1.00  0.00    -0.206 F 
HETATM   26  C   UNL     1      43.485 -10.005   7.786  1.00  0.00     0.032 A 
ENDBRANCH  17  20
ENDBRANCH  15  16
ENDBRANCH   1  15
TORSDOF 3
ENDMDL
MODEL 8
REMARK VINA RESULT:      -7.5      3.509      5.036
REMARK  3 active torsions:
REMARK  status: ('A' for Active; 'I' for Inactive)
REMARK    1  A    between atoms: C_2  and  N_3 
REMARK       I    between atoms: N_3  and  C_4 
REMARK    2  A    between atoms: C_4  and  C_5 
REMARK    3  A    between atoms: C_5  and  C_6 
ROOT
HETATM    1  C   UNL     1      42.386 -12.331   4.793  1.00  0.00     0.286 C 
HETATM    2  N   UNL     1      43.856 -11.904   4.891  1.00  0.00    -0.056 N 
HETATM    3  H   UNL     1      44.448 -12.649   4.476  1.00  0.00     0.278 HD
HETATM    4  H   UNL     1      44.000 -11.065   4.313  1.00  0.00     0.278 HD
HETATM    5  C   UNL     1      44.354 -11.661   6.292  1.00  0.00     0.209 C 
HETATM    6  C   UNL     1      43.381 -10.718   7.024  1.00  0.00     0.115 C 
HETATM    7  N   UNL     1      42.030 -11.252   7.019  1.00  0.00    -0.353 N 
HETATM    8  C   UNL     1      41.460 -11.820   5.910  1.00  0.00     0.249 C 
HETATM    9  O   UNL     1      40.241 -11.940   5.841  1.00  0.00    -0.271 OA
HETATM   10  C   UNL     1      45.761 -11.075   6.240  1.00  0.00     0.035 C 
HETATM   11  C   UNL     1      46.269 -10.792   7.654  1.00  0.00     0.002 C 
HETATM   12  C   UNL     1      45.303  -9.913   8.450  1.00  0.00     0.002 C 
HETATM   13  C   UNL     1      43.877 -10.467   8.450  1.00  0.00     0.027 C 
HETATM   14  H   UNL     1      41.346 -10.872   7.671  1.00  0.00     0.163 HD
ENDROOT
BRANCH   1  15
HETATM   15  C   UNL     1      42.219 -13.836   4.566  1.00  0.00     0.146 C 
BRANCH  15  16
HETATM   16  C   UNL     1      42.651 -14.240   3.189  1.00  0.00     0.224 C 
HETATM   17  N   UNL     1      43.148 -15.441   2.825  1.00  0.00    -0.327 N 
HETATM   18  H   UNL     1      43.358 -15.435   1.829  1.00  0.00     0.169 HD
HETATM   19  O   UNL     1      42.662 -13.336   2.337  1.00  0.00    -0.273 OA
BRANCH  17  20
HETATM   20  C   UNL     1      43.448 -16.661   3.460  1.00  0.00     0.034 A 
HETATM   21  C   UNL     1      43.708 -16.853   4.816  1.00  0.00     0.032 A 
HETATM   22  C   UNL     1      44.026 -18.126   5.310  1.00  0.00     0.044 A 
HETATM   23  C   UNL     1      44.079 -19.214   4.452  1.00  0.00     0.116 A 
HETATM   24  C   UNL     1      43.811 -19.056   3.103  1.00  0.00     0.044 A 
HETATM   25  F   UNL     1      44.388 -20.424   4.931  1.00  0.00    -0.206 F 
HETATM   26  C   UNL     1      43.494 -17.785   2.613  1.00  0.00     0.032 A 
ENDBRANCH  17  20
ENDBRANCH  15  16
ENDBRANCH   1  15
TORSDOF 3
ENDMDL
MODEL 9
REMARK VINA RESULT:      -7.4      4.007      5.697
REMARK  3 active torsions:
REMARK  status: ('A' for Active; 'I' for Inactive)
REMARK    1  A    between atoms: C_2  and  N_3 
REMARK       I    between atoms: N_3  and  C_4 
REMARK    2  A    between atoms: C_4  and  C_5 
REMARK    3  A    between atoms: C_5  and  C_6 
ROOT
HETATM    1  C   UNL     1      43.434 -13.364   6.107  1.00  0.00     0.286 C 
HETATM    2  N   UNL     1      44.670 -12.646   6.662  1.00  0.00    -0.056 N 
HETATM    3  H   UNL     1      45.267 -13.339   7.151  1.00  0.00     0.278 HD
HETATM    4  H   UNL     1      45.228 -12.286   5.876  1.00  0.00     0.278 HD
HETATM    5  C   UNL     1      44.374 -11.537   7.638  1.00  0.00     0.209 C 
HETATM    6  C   UNL     1      43.322 -10.589   7.033  1.00  0.00     0.115 C 
HETATM    7  N   UNL     1      42.118 -11.312   6.661  1.00  0.00    -0.353 N 
HETATM    8  C   UNL     1      42.147 -12.524   6.023  1.00  0.00     0.249 C 
HETATM    9  O   UNL     1      41.152 -12.929   5.431  1.00  0.00    -0.271 OA
HETATM   10  C   UNL     1      45.663 -10.793   7.973  1.00  0.00     0.035 C 
HETATM   11  C   UNL     1      45.375  -9.643   8.939  1.00  0.00     0.002 C 
HETATM   12  C   UNL     1      44.284  -8.708   8.414  1.00  0.00     0.002 C 
HETATM   13  C   UNL     1      43.013  -9.461   8.019  1.00  0.00     0.027 C 
HETATM   14  H   UNL     1      41.261 -10.790   6.488  1.00  0.00     0.163 HD
ENDROOT
BRANCH   1  15
HETATM   15  C   UNL     1      43.182 -14.716   6.781  1.00  0.00     0.146 C 
BRANCH  15  16
HETATM   16  C   UNL     1      43.960 -15.815   6.125  1.00  0.00     0.224 C 
HETATM   17  N   UNL     1      43.750 -16.320   4.890  1.00  0.00    -0.327 N 
HETATM   18  H   UNL     1      44.425 -17.058   4.705  1.00  0.00     0.169 HD
HETATM   19  O   UNL     1      44.796 -16.391   6.841  1.00  0.00    -0.273 OA
BRANCH  17  20
HETATM   20  C   UNL     1      42.851 -16.093   3.830  1.00  0.00     0.034 A 
HETATM   21  C   UNL     1      43.176 -15.712   2.530  1.00  0.00     0.032 A 
HETATM   22  C   UNL     1      42.171 -15.487   1.578  1.00  0.00     0.044 A 
HETATM   23  C   UNL     1      40.838 -15.648   1.920  1.00  0.00     0.116 A 
HETATM   24  C   UNL     1      40.486 -16.040   3.201  1.00  0.00     0.044 A 
HETATM   25  F   UNL     1      39.886 -15.427   1.007  1.00  0.00    -0.206 F 
HETATM   26  C   UNL     1      41.490 -16.263   4.148  1.00  0.00     0.032 A 
ENDBRANCH  17  20
ENDBRANCH  15  16
ENDBRANCH   1  15
TORSDOF 3
ENDMDL
MODEL 10
REMARK VINA RESULT:      -7.4      2.280      3.193
REMARK  3 active torsions:
REMARK  status: ('A' for Active; 'I' for Inactive)
REMARK    1  A    between atoms: C_2  and  N_3 
REMARK       I    between atoms: N_3  and  C_4 
REMARK    2  A    between atoms: C_4  and  C_5 
REMARK    3  A    between atoms: C_5  and  C_6 
ROOT
HETATM    1  C   UNL     1      39.740 -13.139   2.340  1.00  0.00     0.286 C 
HETATM    2  N   UNL     1      39.560 -14.155   1.206  1.00  0.00    -0.056 N 
HETATM    3  H   UNL     1      40.194 -14.959   1.374  1.00  0.00     0.278 HD
HETATM    4  H   UNL     1      38.602 -14.529   1.241  1.00  0.00     0.278 HD
HETATM    5  C   UNL     1      39.858 -13.625  -0.173  1.00  0.00     0.209 C 
HETATM    6  C   UNL     1      39.095 -12.305  -0.391  1.00  0.00     0.115 C 
HETATM    7  N   UNL     1      39.422 -11.336   0.640  1.00  0.00    -0.353 N 
HETATM    8  C   UNL     1      39.514 -11.664   1.966  1.00  0.00     0.249 C 
HETATM    9  O   UNL     1      39.449 -10.786   2.821  1.00  0.00    -0.271 OA
HETATM   10  C   UNL     1      39.472 -14.669  -1.217  1.00  0.00     0.035 C 
HETATM   11  C   UNL     1      39.739 -14.134  -2.624  1.00  0.00     0.002 C 
HETATM   12  C   UNL     1      39.057 -12.787  -2.869  1.00  0.00     0.002 C 
HETATM   13  C   UNL     1      39.395 -11.759  -1.788  1.00  0.00     0.027 C 
HETATM   14  H   UNL     1      39.195 -10.354   0.485  1.00  0.00     0.163 HD
ENDROOT
BRANCH   1  15
HETATM   15  C   UNL     1      41.052 -13.333   3.107  1.00  0.00     0.146 C 
BRANCH  15  16
HETATM   16  C   UNL     1      40.838 -14.073   4.391  1.00  0.00     0.224 C 
HETATM   17  N   UNL     1      41.294 -15.308   4.691  1.00  0.00    -0.327 N 
HETATM   18  H   UNL     1      40.999 -15.562   5.630  1.00  0.00     0.169 HD
HETATM   19  O   UNL     1      40.064 -13.539   5.204  1.00  0.00    -0.273 OA
BRANCH  17  20
HETATM   20  C   UNL     1      42.047 -16.306   4.043  1.00  0.00     0.034 A 
HETATM   21  C   UNL     1      41.822 -16.827   2.771  1.00  0.00     0.032 A 
HETATM   22  C   UNL     1      42.636 -17.848   2.261  1.00  0.00     0.044 A 
HETATM   23  C   UNL     1      43.684 -18.349   3.019  1.00  0.00     0.116 A 
HETATM   24  C   UNL     1      43.940 -17.841   4.281  1.00  0.00     0.044 A 
HETATM   25  F   UNL     1      44.452 -19.326   2.527  1.00  0.00    -0.206 F 
HETATM   26  C   UNL     1      43.126 -16.823   4.787  1.00  0.00     0.032 A 
ENDBRANCH  17  20
ENDBRANCH  15  16
ENDBRANCH   1  15
TORSDOF 3
ENDMDL
