MODEL 1
REMARK VINA RESULT:      -8.0      0.000      0.000
REMARK  5 active torsions:
REMARK  status: ('A' for Active; 'I' for Inactive)
REMARK    1  A    between atoms: C_6  and  C_7 
REMARK    2  A    between atoms: C_7  and  C_8 
REMARK       I    between atoms: C_8  and  N_9 
REMARK    3  A    between atoms: N_9  and  N_10 
REMARK    4  A    between atoms: C_11  and  C_12 
REMARK    5  A    between atoms: C_13  and  O_14 
ROOT
HETATM    1  C   UNL     1      41.399 -13.137   4.999  1.00  0.00     0.244 C 
HETATM    2  N   UNL     1      42.780 -13.107   5.031  1.00  0.00    -0.247 N 
HETATM    3  O   UNL     1      40.681 -12.254   5.476  1.00  0.00    -0.271 OA
HETATM    4  H   UNL     1      43.297 -13.934   4.718  1.00  0.00     0.192 HD
ENDROOT
BRANCH   1   5
HETATM    5  C   UNL     1      40.776 -14.286   4.225  1.00  0.00     0.183 C 
BRANCH   5   6
HETATM    6  C   UNL     1      41.630 -15.507   4.124  1.00  0.00     0.114 A 
HETATM    7  N   UNL     1      42.462 -15.990   5.029  1.00  0.00    -0.233 NA
HETATM    8  C   UNL     1      43.044 -17.095   4.448  1.00  0.00     0.085 A 
HETATM    9  C   UNL     1      42.576 -17.275   3.153  1.00  0.00     0.062 A 
HETATM   10  C   UNL     1      43.989 -17.990   4.967  1.00  0.00     0.034 A 
HETATM   11  C   UNL     1      43.009 -18.305   2.316  1.00  0.00     0.032 A 
HETATM   12  N   UNL     1      41.676 -16.258   2.971  1.00  0.00    -0.342 N 
HETATM   13  C   UNL     1      43.958 -19.187   2.848  1.00  0.00     0.002 A 
HETATM   14  C   UNL     1      44.438 -19.037   4.151  1.00  0.00     0.002 A 
HETATM   15  H   UNL     1      41.145 -16.084   2.129  1.00  0.00     0.167 HD
ENDBRANCH   5   6
ENDBRANCH   1   5
BRANCH   2  16
HETATM   16  N   UNL     1      43.428 -12.068   5.622  1.00  0.00    -0.184 NA
HETATM   17  C   UNL     1      43.835 -12.284   6.832  1.00  0.00     0.153 C 
BRANCH  17  18
HETATM   18  C   UNL     1      44.559 -11.236   7.578  1.00  0.00     0.017 A 
HETATM   19  C   UNL     1      45.783 -10.720   7.134  1.00  0.00     0.077 A 
HETATM   20  C   UNL     1      46.438  -9.734   7.870  1.00  0.00     0.039 A 
HETATM   21  C   UNL     1      45.874  -9.258   9.053  1.00  0.00     0.022 A 
HETATM   22  C   UNL     1      44.655  -9.774   9.494  1.00  0.00     0.012 A 
HETATM   23 BR   UNL     1      43.893  -9.128  11.100  1.00  0.00    -0.051 Br
HETATM   24  C   UNL     1      43.990 -10.761   8.765  1.00  0.00     0.034 A 
BRANCH  19  25
HETATM   25  O   UNL     1      46.404 -11.134   5.988  1.00  0.00    -0.360 OA
HETATM   26  H   UNL     1      47.369 -11.227   6.171  1.00  0.00     0.217 HD
ENDBRANCH  19  25
ENDBRANCH  17  18
ENDBRANCH   2  16
TORSDOF 5
ENDMDL
MODEL 2
REMARK VINA RESULT:      -7.8      5.132      7.440
REMARK  5 active torsions:
REMARK  status: ('A' for Active; 'I' for Inactive)
REMARK    1  A    between atoms: C_6  and  C_7 
REMARK    2  A    between atoms: C_7  and  C_8 
REMARK       I    between atoms: C_8  and  N_9 
REMARK    3  A    between atoms: N_9  and  N_10 
REMARK    4  A    between atoms: C_11  and  C_12 
REMARK    5  A    between atoms: C_13  and  O_14 
ROOT
HETATM    1  C   UNL     1      42.317 -14.178   3.990  1.00  0.00     0.244 C 
HETATM    2  N   UNL     1      42.615 -14.123   2.642  1.00  0.00    -0.247 N 
HETATM    3  O   UNL     1      41.311 -13.669   4.493  1.00  0.00    -0.271 OA
HETATM    4  H   UNL     1      43.526 -14.469   2.325  1.00  0.00     0.192 HD
ENDROOT
BRANCH   1   5
HETATM    5  C   UNL     1      43.250 -15.018   4.844  1.00  0.00     0.183 C 
BRANCH   5   6
HETATM    6  C   UNL     1      43.419 -16.429   4.384  1.00  0.00     0.114 A 
HETATM    7  N   UNL     1      43.173 -16.924   3.184  1.00  0.00    -0.233 NA
HETATM    8  C   UNL     1      43.440 -18.271   3.275  1.00  0.00     0.085 A 
HETATM    9  C   UNL     1      43.832 -18.611   4.563  1.00  0.00     0.062 A 
HETATM   10  C   UNL     1      43.361 -19.271   2.296  1.00  0.00     0.034 A 
HETATM   11  C   UNL     1      44.146 -19.915   4.952  1.00  0.00     0.032 A 
HETATM   12  N   UNL     1      43.817 -17.424   5.248  1.00  0.00    -0.342 N 
HETATM   13  C   UNL     1      44.056 -20.902   3.964  1.00  0.00     0.002 A 
HETATM   14  C   UNL     1      43.674 -20.589   2.657  1.00  0.00     0.002 A 
HETATM   15  H   UNL     1      44.048 -17.304   6.224  1.00  0.00     0.167 HD
ENDBRANCH   5   6
ENDBRANCH   1   5
BRANCH   2  16
HETATM   16  N   UNL     1      41.786 -13.470   1.785  1.00  0.00    -0.184 NA
HETATM   17  C   UNL     1      40.862 -14.197   1.243  1.00  0.00     0.153 C 
BRANCH  17  18
HETATM   18  C   UNL     1      39.894 -13.602   0.301  1.00  0.00     0.017 A 
HETATM   19  C   UNL     1      39.257 -12.383   0.564  1.00  0.00     0.077 A 
HETATM   20  C   UNL     1      38.346 -11.855  -0.350  1.00  0.00     0.039 A 
HETATM   21  C   UNL     1      38.066 -12.544  -1.530  1.00  0.00     0.022 A 
HETATM   22  C   UNL     1      38.701 -13.758  -1.789  1.00  0.00     0.012 A 
HETATM   23 BR   UNL     1      38.318 -14.690  -3.389  1.00  0.00    -0.051 Br
HETATM   24  C   UNL     1      39.616 -14.295  -0.882  1.00  0.00     0.034 A 
BRANCH  19  25
HETATM   25  O   UNL     1      39.473 -11.648   1.696  1.00  0.00    -0.360 OA
HETATM   26  H   UNL     1      38.820 -11.927   2.380  1.00  0.00     0.217 HD
ENDBRANCH  19  25
ENDBRANCH  17  18
ENDBRANCH   2  16
TORSDOF 5
ENDMDL
MODEL 3
REMARK VINA RESULT:      -7.7      4.049      9.202
REMARK  5 active torsions:
REMARK  status: ('A' for Active; 'I' for Inactive)
REMARK    1  A    between atoms: C_6  and  C_7 
REMARK    2  A    between atoms: C_7  and  C_8 
REMARK       I    between atoms: C_8  and  N_9 
REMARK    3  A    between atoms: N_9  and  N_10 
REMARK    4  A    between atoms: C_11  and  C_12 
REMARK    5  A    between atoms: C_13  and  O_14 
ROOT
HETATM    1  C   UNL     1      43.940 -11.180   7.839  1.00  0.00     0.244 C 
HETATM    2  N   UNL     1      43.111 -12.050   7.157  1.00  0.00    -0.247 N 
HETATM    3  O   UNL     1      45.072 -11.477   8.233  1.00  0.00    -0.271 OA
HETATM    4  H   UNL     1      42.145 -11.764   6.970  1.00  0.00     0.192 HD
ENDROOT
BRANCH   1   5
HETATM    5  C   UNL     1      43.431  -9.758   7.992  1.00  0.00     0.183 C 
BRANCH   5   6
HETATM    6  C   UNL     1      43.154  -9.341   9.400  1.00  0.00     0.114 A 
HETATM    7  N   UNL     1      43.187  -8.120   9.903  1.00  0.00    -0.233 NA
HETATM    8  C   UNL     1      42.906  -8.262  11.243  1.00  0.00     0.085 A 
HETATM    9  C   UNL     1      42.724  -9.600  11.570  1.00  0.00     0.062 A 
HETATM   10  C   UNL     1      42.799  -7.290  12.247  1.00  0.00     0.034 A 
HETATM   11  C   UNL     1      42.447 -10.044  12.865  1.00  0.00     0.032 A 
HETATM   12  N   UNL     1      42.880 -10.265  10.382  1.00  0.00    -0.342 N 
HETATM   13  C   UNL     1      42.349  -9.060  13.856  1.00  0.00     0.002 A 
HETATM   14  C   UNL     1      42.517  -7.706  13.556  1.00  0.00     0.002 A 
HETATM   15  H   UNL     1      42.817 -11.265  10.254  1.00  0.00     0.167 HD
ENDBRANCH   5   6
ENDBRANCH   1   5
BRANCH   2  16
HETATM   16  N   UNL     1      43.521 -13.320   6.893  1.00  0.00    -0.184 NA
HETATM   17  C   UNL     1      42.615 -14.105   6.406  1.00  0.00     0.153 C 
BRANCH  17  18
HETATM   18  C   UNL     1      42.938 -15.505   6.068  1.00  0.00     0.017 A 
HETATM   19  C   UNL     1      43.226 -16.459   7.053  1.00  0.00     0.077 A 
HETATM   20  C   UNL     1      43.531 -17.771   6.693  1.00  0.00     0.039 A 
HETATM   21  C   UNL     1      43.550 -18.137   5.348  1.00  0.00     0.022 A 
HETATM   22  C   UNL     1      43.263 -17.185   4.369  1.00  0.00     0.012 A 
HETATM   23 BR   UNL     1      43.292 -17.685   2.545  1.00  0.00    -0.051 Br
HETATM   24  C   UNL     1      42.956 -15.870   4.718  1.00  0.00     0.034 A 
BRANCH  19  25
HETATM   25  O   UNL     1      43.232 -16.181   8.392  1.00  0.00    -0.360 OA
HETATM   26  H   UNL     1      44.150 -15.938   8.657  1.00  0.00     0.217 HD
ENDBRANCH  19  25
ENDBRANCH  17  18
ENDBRANCH   2  16
TORSDOF 5
ENDMDL
MODEL 4
REMARK VINA RESULT:      -7.7      2.180      2.874
REMARK  5 active torsions:
REMARK  status: ('A' for Active; 'I' for Inactive)
REMARK    1  A    between atoms: C_6  and  C_7 
REMARK    2  A    between atoms: C_7  and  C_8 
REMARK       I    between atoms: C_8  and  N_9 
REMARK    3  A    between atoms: N_9  and  N_10 
REMARK    4  A    between atoms: C_11  and  C_12 
REMARK    5  A    between atoms: C_13  and  O_14 
ROOT
HETATM    1  C   UNL     1      42.885 -15.595   7.312  1.00  0.00     0.244 C 
HETATM    2  N   UNL     1      43.337 -14.507   6.590  1.00  0.00    -0.247 N 
HETATM    3  O   UNL     1      43.126 -15.773   8.509  1.00  0.00    -0.271 OA
HETATM    4  H   UNL     1      43.192 -14.496   5.575  1.00  0.00     0.192 HD
ENDROOT
BRANCH   1   5
HETATM    5  C   UNL     1      41.950 -16.540   6.578  1.00  0.00     0.183 C 
BRANCH   5   6
HETATM    6  C   UNL     1      41.744 -16.219   5.133  1.00  0.00     0.114 A 
HETATM    7  N   UNL     1      42.666 -16.046   4.203  1.00  0.00    -0.233 NA
HETATM    8  C   UNL     1      41.981 -15.724   3.054  1.00  0.00     0.085 A 
HETATM    9  C   UNL     1      40.614 -15.675   3.292  1.00  0.00     0.062 A 
HETATM   10  C   UNL     1      42.463 -15.453   1.766  1.00  0.00     0.034 A 
HETATM   11  C   UNL     1      39.674 -15.351   2.312  1.00  0.00     0.032 A 
HETATM   12  N   UNL     1      40.487 -15.997   4.618  1.00  0.00    -0.342 N 
HETATM   13  C   UNL     1      40.173 -15.077   1.033  1.00  0.00     0.002 A 
HETATM   14  C   UNL     1      41.542 -15.129   0.760  1.00  0.00     0.002 A 
HETATM   15  H   UNL     1      39.619 -16.052   5.131  1.00  0.00     0.167 HD
ENDBRANCH   5   6
ENDBRANCH   1   5
BRANCH   2  16
HETATM   16  N   UNL     1      44.106 -13.560   7.190  1.00  0.00    -0.184 NA
HETATM   17  C   UNL     1      43.660 -12.348   7.105  1.00  0.00     0.153 C 
BRANCH  17  18
HETATM   18  C   UNL     1      44.400 -11.231   7.724  1.00  0.00     0.017 A 
HETATM   19  C   UNL     1      45.614 -10.765   7.203  1.00  0.00     0.077 A 
HETATM   20  C   UNL     1      46.285  -9.710   7.819  1.00  0.00     0.039 A 
HETATM   21  C   UNL     1      45.746  -9.114   8.959  1.00  0.00     0.022 A 
HETATM   22  C   UNL     1      44.538  -9.580   9.477  1.00  0.00     0.012 A 
HETATM   23 BR   UNL     1      43.811  -8.772  11.025  1.00  0.00    -0.051 Br
HETATM   24  C   UNL     1      43.857 -10.635   8.867  1.00  0.00     0.034 A 
BRANCH  19  25
HETATM   25  O   UNL     1      46.210 -11.295   6.092  1.00  0.00    -0.360 OA
HETATM   26  H   UNL     1      47.068 -10.832   5.946  1.00  0.00     0.217 HD
ENDBRANCH  19  25
ENDBRANCH  17  18
ENDBRANCH   2  16
TORSDOF 5
ENDMDL
MODEL 5
REMARK VINA RESULT:      -7.7      5.944      8.249
REMARK  5 active torsions:
REMARK  status: ('A' for Active; 'I' for Inactive)
REMARK    1  A    between atoms: C_6  and  C_7 
REMARK    2  A    between atoms: C_7  and  C_8 
REMARK       I    between atoms: C_8  and  N_9 
REMARK    3  A    between atoms: N_9  and  N_10 
REMARK    4  A    between atoms: C_11  and  C_12 
REMARK    5  A    between atoms: C_13  and  O_14 
ROOT
HETATM    1  C   UNL     1      41.658 -14.983   1.651  1.00  0.00     0.244 C 
HETATM    2  N   UNL     1      41.734 -13.925   0.765  1.00  0.00    -0.247 N 
HETATM    3  O   UNL     1      40.770 -15.839   1.623  1.00  0.00    -0.271 OA
HETATM    4  H   UNL     1      42.434 -13.195   0.931  1.00  0.00     0.192 HD
ENDROOT
BRANCH   1   5
HETATM    5  C   UNL     1      42.813 -15.119   2.627  1.00  0.00     0.183 C 
BRANCH   5   6
HETATM    6  C   UNL     1      43.102 -16.519   3.063  1.00  0.00     0.114 A 
HETATM    7  N   UNL     1      43.500 -16.929   4.254  1.00  0.00    -0.233 NA
HETATM    8  C   UNL     1      43.672 -18.290   4.140  1.00  0.00     0.085 A 
HETATM    9  C   UNL     1      43.397 -18.716   2.848  1.00  0.00     0.062 A 
HETATM   10  C   UNL     1      44.070 -19.229   5.102  1.00  0.00     0.034 A 
HETATM   11  C   UNL     1      43.508 -20.046   2.437  1.00  0.00     0.032 A 
HETATM   12  N   UNL     1      43.032 -17.575   2.183  1.00  0.00    -0.342 N 
HETATM   13  C   UNL     1      43.913 -20.970   3.408  1.00  0.00     0.002 A 
HETATM   14  C   UNL     1      44.186 -20.572   4.719  1.00  0.00     0.002 A 
HETATM   15  H   UNL     1      42.767 -17.519   1.210  1.00  0.00     0.167 HD
ENDBRANCH   5   6
ENDBRANCH   1   5
BRANCH   2  16
HETATM   16  N   UNL     1      40.792 -13.775  -0.203  1.00  0.00    -0.184 NA
HETATM   17  C   UNL     1      39.881 -12.888   0.042  1.00  0.00     0.153 C 
BRANCH  17  18
HETATM   18  C   UNL     1      38.807 -12.626  -0.936  1.00  0.00     0.017 A 
HETATM   19  C   UNL     1      38.335 -13.618  -1.805  1.00  0.00     0.077 A 
HETATM   20  C   UNL     1      37.322 -13.329  -2.718  1.00  0.00     0.039 A 
HETATM   21  C   UNL     1      36.775 -12.047  -2.768  1.00  0.00     0.022 A 
HETATM   22  C   UNL     1      37.248 -11.060  -1.902  1.00  0.00     0.012 A 
HETATM   23 BR   UNL     1      36.506  -9.322  -1.974  1.00  0.00    -0.051 Br
HETATM   24  C   UNL     1      38.261 -11.339  -0.984  1.00  0.00     0.034 A 
BRANCH  19  25
HETATM   25  O   UNL     1      38.819 -14.897  -1.822  1.00  0.00    -0.360 OA
HETATM   26  H   UNL     1      39.533 -14.970  -1.147  1.00  0.00     0.217 HD
ENDBRANCH  19  25
ENDBRANCH  17  18
ENDBRANCH   2  16
TORSDOF 5
ENDMDL
MODEL 6
REMARK VINA RESULT:      -7.6      3.352      8.793
REMARK  5 active torsions:
REMARK  status: ('A' for Active; 'I' for Inactive)
REMARK    1  A    between atoms: C_6  and  C_7 
REMARK    2  A    between atoms: C_7  and  C_8 
REMARK       I    between atoms: C_8  and  N_9 
REMARK    3  A    between atoms: N_9  and  N_10 
REMARK    4  A    between atoms: C_11  and  C_12 
REMARK    5  A    between atoms: C_13  and  O_14 
ROOT
HETATM    1  C   UNL     1      45.318 -11.447   6.444  1.00  0.00     0.244 C 
HETATM    2  N   UNL     1      44.303 -12.278   6.877  1.00  0.00    -0.247 N 
HETATM    3  O   UNL     1      45.530 -11.182   5.257  1.00  0.00    -0.271 OA
HETATM    4  H   UNL     1      44.270 -12.539   7.868  1.00  0.00     0.192 HD
ENDROOT
BRANCH   1   5
HETATM    5  C   UNL     1      46.123 -10.757   7.531  1.00  0.00     0.183 C 
BRANCH   5   6
HETATM    6  C   UNL     1      45.309 -10.189   8.647  1.00  0.00     0.114 A 
HETATM    7  N   UNL     1      44.928 -10.791   9.759  1.00  0.00    -0.233 NA
HETATM    8  C   UNL     1      44.163  -9.870  10.439  1.00  0.00     0.085 A 
HETATM    9  C   UNL     1      44.054  -8.690   9.715  1.00  0.00     0.062 A 
HETATM   10  C   UNL     1      43.521  -9.976  11.680  1.00  0.00     0.034 A 
HETATM   11  C   UNL     1      43.318  -7.586  10.152  1.00  0.00     0.032 A 
HETATM   12  N   UNL     1      44.794  -8.914   8.584  1.00  0.00    -0.342 N 
HETATM   13  C   UNL     1      42.678  -7.711  11.391  1.00  0.00     0.002 A 
HETATM   14  C   UNL     1      42.779  -8.882  12.146  1.00  0.00     0.002 A 
HETATM   15  H   UNL     1      44.928  -8.257   7.828  1.00  0.00     0.167 HD
ENDBRANCH   5   6
ENDBRANCH   1   5
BRANCH   2  16
HETATM   16  N   UNL     1      43.472 -12.868   5.977  1.00  0.00    -0.184 NA
HETATM   17  C   UNL     1      43.563 -14.157   5.899  1.00  0.00     0.153 C 
BRANCH  17  18
HETATM   18  C   UNL     1      42.707 -14.915   4.966  1.00  0.00     0.017 A 
HETATM   19  C   UNL     1      41.370 -14.567   4.736  1.00  0.00     0.077 A 
HETATM   20  C   UNL     1      40.593 -15.311   3.849  1.00  0.00     0.039 A 
HETATM   21  C   UNL     1      41.148 -16.406   3.187  1.00  0.00     0.022 A 
HETATM   22  C   UNL     1      42.479 -16.751   3.418  1.00  0.00     0.012 A 
HETATM   23 BR   UNL     1      43.228 -18.238   2.521  1.00  0.00    -0.051 Br
HETATM   24  C   UNL     1      43.266 -16.013   4.303  1.00  0.00     0.034 A 
BRANCH  19  25
HETATM   25  O   UNL     1      40.750 -13.511   5.346  1.00  0.00    -0.360 OA
HETATM   26  H   UNL     1      39.976 -13.853   5.851  1.00  0.00     0.217 HD
ENDBRANCH  19  25
ENDBRANCH  17  18
ENDBRANCH   2  16
TORSDOF 5
ENDMDL
MODEL 7
REMARK VINA RESULT:      -7.6      5.315      7.903
REMARK  5 active torsions:
REMARK  status: ('A' for Active; 'I' for Inactive)
REMARK    1  A    between atoms: C_6  and  C_7 
REMARK    2  A    between atoms: C_7  and  C_8 
REMARK       I    between atoms: C_8  and  N_9 
REMARK    3  A    between atoms: N_9  and  N_10 
REMARK    4  A    between atoms: C_11  and  C_12 
REMARK    5  A    between atoms: C_13  and  O_14 
ROOT
HETATM    1  C   UNL     1      41.951 -12.404   2.283  1.00  0.00     0.244 C 
HETATM    2  N   UNL     1      41.225 -13.559   2.508  1.00  0.00    -0.247 N 
HETATM    3  O   UNL     1      43.103 -12.228   2.688  1.00  0.00    -0.271 OA
HETATM    4  H   UNL     1      40.236 -13.578   2.240  1.00  0.00     0.192 HD
ENDROOT
BRANCH   1   5
HETATM    5  C   UNL     1      41.293 -11.368   1.389  1.00  0.00     0.183 C 
BRANCH   5   6
HETATM    6  C   UNL     1      40.469 -11.933   0.278  1.00  0.00     0.114 A 
HETATM    7  N   UNL     1      39.171 -11.788   0.079  1.00  0.00    -0.233 NA
HETATM    8  C   UNL     1      38.881 -12.532  -1.042  1.00  0.00     0.085 A 
HETATM    9  C   UNL     1      40.020 -13.165  -1.522  1.00  0.00     0.062 A 
HETATM   10  C   UNL     1      37.660 -12.721  -1.704  1.00  0.00     0.034 A 
HETATM   11  C   UNL     1      40.020 -14.004  -2.638  1.00  0.00     0.032 A 
HETATM   12  N   UNL     1      41.017 -12.765  -0.671  1.00  0.00    -0.342 N 
HETATM   13  C   UNL     1      38.791 -14.187  -3.284  1.00  0.00     0.002 A 
HETATM   14  C   UNL     1      37.631 -13.555  -2.830  1.00  0.00     0.002 A 
HETATM   15  H   UNL     1      41.986 -13.044  -0.726  1.00  0.00     0.167 HD
ENDBRANCH   5   6
ENDBRANCH   1   5
BRANCH   2  16
HETATM   16  N   UNL     1      41.770 -14.580   3.221  1.00  0.00    -0.184 NA
HETATM   17  C   UNL     1      42.401 -15.469   2.524  1.00  0.00     0.153 C 
BRANCH  17  18
HETATM   18  C   UNL     1      43.044 -16.623   3.184  1.00  0.00     0.017 A 
HETATM   19  C   UNL     1      43.573 -16.538   4.478  1.00  0.00     0.077 A 
HETATM   20  C   UNL     1      44.176 -17.649   5.065  1.00  0.00     0.039 A 
HETATM   21  C   UNL     1      44.253 -18.851   4.362  1.00  0.00     0.022 A 
HETATM   22  C   UNL     1      43.726 -18.933   3.073  1.00  0.00     0.012 A 
HETATM   23 BR   UNL     1      43.836 -20.564   2.122  1.00  0.00    -0.051 Br
HETATM   24  C   UNL     1      43.120 -17.827   2.476  1.00  0.00     0.034 A 
BRANCH  19  25
HETATM   25  O   UNL     1      43.540 -15.397   5.232  1.00  0.00    -0.360 OA
HETATM   26  H   UNL     1      42.652 -15.328   5.656  1.00  0.00     0.217 HD
ENDBRANCH  19  25
ENDBRANCH  17  18
ENDBRANCH   2  16
TORSDOF 5
ENDMDL
MODEL 8
REMARK VINA RESULT:      -7.2      3.151      8.204
REMARK  5 active torsions:
REMARK  status: ('A' for Active; 'I' for Inactive)
REMARK    1  A    between atoms: C_6  and  C_7 
REMARK    2  A    between atoms: C_7  and  C_8 
REMARK       I    between atoms: C_8  and  N_9 
REMARK    3  A    between atoms: N_9  and  N_10 
REMARK    4  A    between atoms: C_11  and  C_12 
REMARK    5  A    between atoms: C_13  and  O_14 
ROOT
HETATM    1  C   UNL     1      41.314 -12.350   5.639  1.00  0.00     0.244 C 
HETATM    2  N   UNL     1      42.504 -12.907   5.212  1.00  0.00    -0.247 N 
HETATM    3  O   UNL     1      40.284 -12.999   5.838  1.00  0.00    -0.271 OA
HETATM    4  H   UNL     1      43.276 -12.282   4.957  1.00  0.00     0.192 HD
ENDROOT
BRANCH   1   5
HETATM    5  C   UNL     1      41.354 -10.869   5.974  1.00  0.00     0.183 C 
BRANCH   5   6
HETATM    6  C   UNL     1      42.296 -10.503   7.074  1.00  0.00     0.114 A 
HETATM    7  N   UNL     1      43.595 -10.734   7.138  1.00  0.00    -0.233 NA
HETATM    8  C   UNL     1      44.000 -10.251   8.361  1.00  0.00     0.085 A 
HETATM    9  C   UNL     1      42.922  -9.736   9.070  1.00  0.00     0.062 A 
HETATM   10  C   UNL     1      45.277 -10.224   8.939  1.00  0.00     0.034 A 
HETATM   11  C   UNL     1      43.033  -9.197  10.353  1.00  0.00     0.032 A 
HETATM   12  N   UNL     1      41.852  -9.903   8.230  1.00  0.00    -0.342 N 
HETATM   13  C   UNL     1      44.314  -9.184  10.918  1.00  0.00     0.002 A 
HETATM   14  C   UNL     1      45.419  -9.684  10.225  1.00  0.00     0.002 A 
HETATM   15  H   UNL     1      40.898  -9.639   8.432  1.00  0.00     0.167 HD
ENDBRANCH   5   6
ENDBRANCH   1   5
BRANCH   2  16
HETATM   16  N   UNL     1      42.587 -14.243   4.974  1.00  0.00    -0.184 NA
HETATM   17  C   UNL     1      43.091 -14.573   3.829  1.00  0.00     0.153 C 
BRANCH  17  18
HETATM   18  C   UNL     1      43.242 -15.994   3.457  1.00  0.00     0.017 A 
HETATM   19  C   UNL     1      43.167 -16.425   2.126  1.00  0.00     0.077 A 
HETATM   20  C   UNL     1      43.312 -17.776   1.816  1.00  0.00     0.039 A 
HETATM   21  C   UNL     1      43.531 -18.704   2.834  1.00  0.00     0.022 A 
HETATM   22  C   UNL     1      43.605 -18.272   4.159  1.00  0.00     0.012 A 
HETATM   23 BR   UNL     1      43.900 -19.533   5.537  1.00  0.00    -0.051 Br
HETATM   24  C   UNL     1      43.462 -16.922   4.480  1.00  0.00     0.034 A 
BRANCH  19  25
HETATM   25  O   UNL     1      42.952 -15.581   1.071  1.00  0.00    -0.360 OA
HETATM   26  H   UNL     1      42.935 -16.115   0.243  1.00  0.00     0.217 HD
ENDBRANCH  19  25
ENDBRANCH  17  18
ENDBRANCH   2  16
TORSDOF 5
ENDMDL
MODEL 9
REMARK VINA RESULT:      -7.2      2.536      3.548
REMARK  5 active torsions:
REMARK  status: ('A' for Active; 'I' for Inactive)
REMARK    1  A    between atoms: C_6  and  C_7 
REMARK    2  A    between atoms: C_7  and  C_8 
REMARK       I    between atoms: C_8  and  N_9 
REMARK    3  A    between atoms: N_9  and  N_10 
REMARK    4  A    between atoms: C_11  and  C_12 
REMARK    5  A    between atoms: C_13  and  O_14 
ROOT
HETATM    1  C   UNL     1      42.445 -11.254   5.679  1.00  0.00     0.244 C 
HETATM    2  N   UNL     1      43.266 -10.552   6.542  1.00  0.00    -0.247 N 
HETATM    3  O   UNL     1      41.314 -11.646   5.976  1.00  0.00    -0.271 OA
HETATM    4  H   UNL     1      44.234 -10.367   6.258  1.00  0.00     0.192 HD
ENDROOT
BRANCH   1   5
HETATM    5  C   UNL     1      42.965 -11.432   4.264  1.00  0.00     0.183 C 
BRANCH   5   6
HETATM    6  C   UNL     1      43.050 -12.851   3.803  1.00  0.00     0.114 A 
HETATM    7  N   UNL     1      43.258 -13.292   2.576  1.00  0.00    -0.233 NA
HETATM    8  C   UNL     1      43.204 -14.665   2.659  1.00  0.00     0.085 A 
HETATM    9  C   UNL     1      42.932 -15.070   3.959  1.00  0.00     0.062 A 
HETATM   10  C   UNL     1      43.370 -15.634   1.660  1.00  0.00     0.034 A 
HETATM   11  C   UNL     1      42.799 -16.408   4.335  1.00  0.00     0.032 A 
HETATM   12  N   UNL     1      42.844 -13.901   4.669  1.00  0.00    -0.342 N 
HETATM   13  C   UNL     1      42.961 -17.362   3.324  1.00  0.00     0.002 A 
HETATM   14  C   UNL     1      43.246 -16.985   2.009  1.00  0.00     0.002 A 
HETATM   15  H   UNL     1      42.650 -13.825   5.657  1.00  0.00     0.167 HD
ENDBRANCH   5   6
ENDBRANCH   1   5
BRANCH   2  16
HETATM   16  N   UNL     1      42.847 -10.264   7.803  1.00  0.00    -0.184 NA
HETATM   17  C   UNL     1      43.687  -9.599   8.529  1.00  0.00     0.153 C 
BRANCH  17  18
HETATM   18  C   UNL     1      43.345  -9.218   9.913  1.00  0.00     0.017 A 
HETATM   19  C   UNL     1      43.339 -10.149  10.960  1.00  0.00     0.077 A 
HETATM   20  C   UNL     1      43.007  -9.751  12.253  1.00  0.00     0.039 A 
HETATM   21  C   UNL     1      42.677  -8.420  12.508  1.00  0.00     0.022 A 
HETATM   22  C   UNL     1      42.682  -7.494  11.464  1.00  0.00     0.012 A 
HETATM   23 BR   UNL     1      42.232  -5.691  11.813  1.00  0.00    -0.051 Br
HETATM   24  C   UNL     1      43.014  -7.882  10.166  1.00  0.00     0.034 A 
BRANCH  19  25
HETATM   25  O   UNL     1      43.647 -11.471  10.794  1.00  0.00    -0.360 OA
HETATM   26  H   UNL     1      42.956 -11.885  10.225  1.00  0.00     0.217 HD
ENDBRANCH  19  25
ENDBRANCH  17  18
ENDBRANCH   2  16
TORSDOF 5
ENDMDL
MODEL 10
REMARK VINA RESULT:      -7.1      3.966      9.064
REMARK  5 active torsions:
REMARK  status: ('A' for Active; 'I' for Inactive)
REMARK    1  A    between atoms: C_6  and  C_7 
REMARK    2  A    between atoms: C_7  and  C_8 
REMARK       I    between atoms: C_8  and  N_9 
REMARK    3  A    between atoms: N_9  and  N_10 
REMARK    4  A    between atoms: C_11  and  C_12 
REMARK    5  A    between atoms: C_13  and  O_14 
ROOT
HETATM    1  C   UNL     1      43.932 -10.937   7.955  1.00  0.00     0.244 C 
HETATM    2  N   UNL     1      44.393 -12.078   7.326  1.00  0.00    -0.247 N 
HETATM    3  O   UNL     1      42.848 -10.404   7.703  1.00  0.00    -0.271 OA
HETATM    4  H   UNL     1      45.353 -12.387   7.509  1.00  0.00     0.192 HD
ENDROOT
BRANCH   1   5
HETATM    5  C   UNL     1      44.793 -10.408   9.089  1.00  0.00     0.183 C 
BRANCH   5   6
HETATM    6  C   UNL     1      44.031  -9.910  10.273  1.00  0.00     0.114 A 
HETATM    7  N   UNL     1      44.353  -8.919  11.085  1.00  0.00    -0.233 NA
HETATM    8  C   UNL     1      43.363  -8.883  12.040  1.00  0.00     0.085 A 
HETATM    9  C   UNL     1      42.430  -9.888  11.822  1.00  0.00     0.062 A 
HETATM   10  C   UNL     1      43.199  -8.020  13.132  1.00  0.00     0.034 A 
HETATM   11  C   UNL     1      41.325 -10.103  12.648  1.00  0.00     0.032 A 
HETATM   12  N   UNL     1      42.872 -10.524  10.692  1.00  0.00    -0.342 N 
HETATM   13  C   UNL     1      41.180  -9.236  13.738  1.00  0.00     0.002 A 
HETATM   14  C   UNL     1      42.096  -8.209  13.976  1.00  0.00     0.002 A 
HETATM   15  H   UNL     1      42.428 -11.316  10.249  1.00  0.00     0.167 HD
ENDBRANCH   5   6
ENDBRANCH   1   5
BRANCH   2  16
HETATM   16  N   UNL     1      43.645 -12.676   6.361  1.00  0.00    -0.184 NA
HETATM   17  C   UNL     1      43.745 -13.965   6.300  1.00  0.00     0.153 C 
BRANCH  17  18
HETATM   18  C   UNL     1      42.976 -14.731   5.300  1.00  0.00     0.017 A 
HETATM   19  C   UNL     1      43.253 -16.075   5.020  1.00  0.00     0.077 A 
HETATM   20  C   UNL     1      42.506 -16.762   4.065  1.00  0.00     0.039 A 
HETATM   21  C   UNL     1      41.477 -16.111   3.384  1.00  0.00     0.022 A 
HETATM   22  C   UNL     1      41.203 -14.772   3.664  1.00  0.00     0.012 A 
HETATM   23 BR   UNL     1      39.810 -13.890   2.738  1.00  0.00    -0.051 Br
HETATM   24  C   UNL     1      41.945 -14.075   4.619  1.00  0.00     0.034 A 
BRANCH  19  25
HETATM   25  O   UNL     1      44.244 -16.785   5.639  1.00  0.00    -0.360 OA
HETATM   26  H   UNL     1      44.873 -16.148   6.053  1.00  0.00     0.217 HD
ENDBRANCH  19  25
ENDBRANCH  17  18
ENDBRANCH   2  16
TORSDOF 5
ENDMDL
