MODEL 1
REMARK VINA RESULT:      -9.6      0.000      0.000
REMARK  5 active torsions:
REMARK  status: ('A' for Active; 'I' for Inactive)
REMARK    1  A    between atoms: C_8  and  C_9 
REMARK    2  A    between atoms: C_13  and  C_14 
REMARK    3  A    between atoms: C_14  and  O_15 
REMARK    4  A    between atoms: O_15  and  C_16 
REMARK    5  A    between atoms: C_27  and  N_28 
ROOT
HETATM    1  C   UNL     1      39.233 -14.931  -1.642  1.00  0.00     0.073 C 
HETATM    2  C   UNL     1      40.093 -13.766  -1.963  1.00  0.00     0.062 A 
HETATM    3  N   UNL     1      40.613 -13.623  -3.194  1.00  0.00    -0.177 NA
HETATM    4  N   UNL     1      41.335 -12.485  -3.121  1.00  0.00    -0.256 N 
HETATM    5  H   UNL     1      41.834 -12.169  -3.944  1.00  0.00     0.191 HD
HETATM    6  C   UNL     1      41.266 -11.900  -1.899  1.00  0.00     0.175 A 
HETATM    7  C   UNL     1      40.485 -12.706  -1.115  1.00  0.00     0.035 A 
HETATM    8  C   UNL     1      40.221 -12.354   0.312  1.00  0.00     0.112 A 
HETATM    9  C   UNL     1      40.837 -10.976   0.619  1.00  0.00     0.081 A 
HETATM   10  C   UNL     1      40.554 -10.428   1.904  1.00  0.00     0.100 C 
HETATM   11  N   UNL     1      40.306  -9.955   2.935  1.00  0.00    -0.191 NA
HETATM   12  C   UNL     1      41.597 -10.280  -0.272  1.00  0.00     0.140 A 
HETATM   13  O   UNL     1      41.856 -10.760  -1.568  1.00  0.00    -0.279 OA
ENDROOT
BRANCH   8  14
HETATM   14  C   UNL     1      40.722 -13.449   1.237  1.00  0.00    -0.003 A 
HETATM   15  S   UNL     1      39.701 -14.082   2.454  1.00  0.00    -0.098 SA
HETATM   16  C   UNL     1      40.903 -15.164   3.009  1.00  0.00    -0.013 A 
HETATM   17  C   UNL     1      40.602 -16.085   4.147  1.00  0.00     0.057 C 
HETATM   18  C   UNL     1      42.084 -15.048   2.293  1.00  0.00    -0.020 A 
HETATM   19  C   UNL     1      41.962 -14.056   1.264  1.00  0.00     0.026 A 
BRANCH  18  20
HETATM   20  C   UNL     1      43.334 -15.851   2.533  1.00  0.00     0.215 C 
BRANCH  20  21
HETATM   21  O   UNL     1      43.224 -17.130   1.907  1.00  0.00    -0.347 OA
BRANCH  21  22
HETATM   22  C   UNL     1      43.478 -18.228   2.680  1.00  0.00     0.069 A 
HETATM   23  C   UNL     1      43.399 -19.561   2.268  1.00  0.00     0.040 A 
HETATM   24  C   UNL     1      43.686 -20.589   3.171  1.00  0.00     0.045 A 
HETATM   25  C   UNL     1      44.053 -20.281   4.476  1.00  0.00     0.116 A 
HETATM   26  F   UNL     1      44.327 -21.270   5.336  1.00  0.00    -0.206 F 
HETATM   27  C   UNL     1      44.141 -18.961   4.898  1.00  0.00     0.045 A 
HETATM   28  C   UNL     1      43.853 -17.936   3.997  1.00  0.00     0.040 A 
ENDBRANCH  21  22
ENDBRANCH  20  21
ENDBRANCH  18  20
ENDBRANCH   8  14
BRANCH  12  29
HETATM   29  N   UNL     1      42.177  -9.053  -0.040  1.00  0.00    -0.282 NA
HETATM   30  H   UNL     1      43.066  -9.070   0.455  1.00  0.00     0.126 HD
HETATM   31  H   UNL     1      41.518  -8.382   0.346  1.00  0.00     0.126 HD
ENDBRANCH  12  29
TORSDOF 5
ENDMDL
MODEL 2
REMARK VINA RESULT:      -8.9      3.806      5.895
REMARK  5 active torsions:
REMARK  status: ('A' for Active; 'I' for Inactive)
REMARK    1  A    between atoms: C_8  and  C_9 
REMARK    2  A    between atoms: C_13  and  C_14 
REMARK    3  A    between atoms: C_14  and  O_15 
REMARK    4  A    between atoms: O_15  and  C_16 
REMARK    5  A    between atoms: C_27  and  N_28 
ROOT
HETATM    1  C   UNL     1      42.782 -10.884   3.744  1.00  0.00     0.073 C 
HETATM    2  C   UNL     1      43.475 -11.567   4.863  1.00  0.00     0.062 A 
HETATM    3  N   UNL     1      44.657 -11.109   5.311  1.00  0.00    -0.177 NA
HETATM    4  N   UNL     1      44.992 -11.963   6.301  1.00  0.00    -0.256 N 
HETATM    5  H   UNL     1      45.864 -11.820   6.796  1.00  0.00     0.191 HD
HETATM    6  C   UNL     1      44.054 -12.923   6.503  1.00  0.00     0.175 A 
HETATM    7  C   UNL     1      43.063 -12.712   5.582  1.00  0.00     0.035 A 
HETATM    8  C   UNL     1      41.876 -13.616   5.520  1.00  0.00     0.112 A 
HETATM    9  C   UNL     1      41.947 -14.628   6.680  1.00  0.00     0.081 A 
HETATM   10  C   UNL     1      40.814 -15.476   6.849  1.00  0.00     0.100 C 
HETATM   11  N   UNL     1      39.885 -16.152   7.019  1.00  0.00    -0.191 NA
HETATM   12  C   UNL     1      43.007 -14.720   7.530  1.00  0.00     0.140 A 
HETATM   13  O   UNL     1      44.120 -13.867   7.432  1.00  0.00    -0.279 OA
ENDROOT
BRANCH   8  14
HETATM   14  C   UNL     1      41.774 -14.278   4.158  1.00  0.00    -0.003 A 
HETATM   15  S   UNL     1      40.574 -13.781   3.047  1.00  0.00    -0.098 SA
HETATM   16  C   UNL     1      41.082 -14.914   1.871  1.00  0.00    -0.013 A 
HETATM   17  C   UNL     1      40.381 -14.979   0.553  1.00  0.00     0.057 C 
HETATM   18  C   UNL     1      42.148 -15.683   2.311  1.00  0.00    -0.020 A 
HETATM   19  C   UNL     1      42.544 -15.298   3.635  1.00  0.00     0.026 A 
BRANCH  18  20
HETATM   20  C   UNL     1      42.825 -16.771   1.522  1.00  0.00     0.215 C 
BRANCH  20  21
HETATM   21  O   UNL     1      44.005 -17.207   2.199  1.00  0.00    -0.347 OA
BRANCH  21  22
HETATM   22  C   UNL     1      43.935 -18.393   2.875  1.00  0.00     0.069 A 
HETATM   23  C   UNL     1      43.661 -19.645   2.316  1.00  0.00     0.040 A 
HETATM   24  C   UNL     1      43.618 -20.780   3.133  1.00  0.00     0.045 A 
HETATM   25  C   UNL     1      43.853 -20.659   4.498  1.00  0.00     0.116 A 
HETATM   26  F   UNL     1      43.810 -21.749   5.273  1.00  0.00    -0.206 F 
HETATM   27  C   UNL     1      44.131 -19.423   5.065  1.00  0.00     0.045 A 
HETATM   28  C   UNL     1      44.173 -18.291   4.251  1.00  0.00     0.040 A 
ENDBRANCH  21  22
ENDBRANCH  20  21
ENDBRANCH  18  20
ENDBRANCH   8  14
BRANCH  12  29
HETATM   29  N   UNL     1      43.120 -15.613   8.572  1.00  0.00    -0.282 NA
HETATM   30  H   UNL     1      43.671 -16.447   8.382  1.00  0.00     0.126 HD
HETATM   31  H   UNL     1      42.222 -15.818   9.003  1.00  0.00     0.126 HD
ENDBRANCH  12  29
TORSDOF 5
ENDMDL
MODEL 3
REMARK VINA RESULT:      -8.5      4.937      8.338
REMARK  5 active torsions:
REMARK  status: ('A' for Active; 'I' for Inactive)
REMARK    1  A    between atoms: C_8  and  C_9 
REMARK    2  A    between atoms: C_13  and  C_14 
REMARK    3  A    between atoms: C_14  and  O_15 
REMARK    4  A    between atoms: O_15  and  C_16 
REMARK    5  A    between atoms: C_27  and  N_28 
ROOT
HETATM    1  C   UNL     1      44.189 -18.729   2.665  1.00  0.00     0.073 C 
HETATM    2  C   UNL     1      43.949 -18.828   4.126  1.00  0.00     0.062 A 
HETATM    3  N   UNL     1      43.825 -20.030   4.715  1.00  0.00    -0.177 NA
HETATM    4  N   UNL     1      43.607 -19.742   6.015  1.00  0.00    -0.256 N 
HETATM    5  H   UNL     1      43.474 -20.505   6.669  1.00  0.00     0.191 HD
HETATM    6  C   UNL     1      43.614 -18.408   6.265  1.00  0.00     0.175 A 
HETATM    7  C   UNL     1      43.817 -17.780   5.065  1.00  0.00     0.035 A 
HETATM    8  C   UNL     1      43.860 -16.290   4.984  1.00  0.00     0.112 A 
HETATM    9  C   UNL     1      43.776 -15.701   6.406  1.00  0.00     0.081 A 
HETATM   10  C   UNL     1      43.946 -14.290   6.517  1.00  0.00     0.100 C 
HETATM   11  N   UNL     1      44.115 -13.147   6.626  1.00  0.00    -0.191 NA
HETATM   12  C   UNL     1      43.574 -16.458   7.520  1.00  0.00     0.140 A 
HETATM   13  O   UNL     1      43.455 -17.857   7.460  1.00  0.00    -0.279 OA
ENDROOT
BRANCH   8  14
HETATM   14  C   UNL     1      42.775 -15.769   4.060  1.00  0.00    -0.003 A 
HETATM   15  S   UNL     1      41.140 -16.193   4.325  1.00  0.00    -0.098 SA
HETATM   16  C   UNL     1      40.605 -15.292   2.975  1.00  0.00    -0.013 A 
HETATM   17  C   UNL     1      39.147 -15.244   2.646  1.00  0.00     0.057 C 
HETATM   18  C   UNL     1      41.652 -14.677   2.306  1.00  0.00    -0.020 A 
HETATM   19  C   UNL     1      42.903 -14.956   2.950  1.00  0.00     0.026 A 
BRANCH  18  20
HETATM   20  C   UNL     1      41.521 -13.818   1.078  1.00  0.00     0.215 C 
BRANCH  20  21
HETATM   21  O   UNL     1      40.945 -14.573   0.010  1.00  0.00    -0.347 OA
BRANCH  21  22
HETATM   22  C   UNL     1      39.902 -14.004  -0.666  1.00  0.00     0.069 A 
HETATM   23  C   UNL     1      39.287 -12.787  -0.359  1.00  0.00     0.040 A 
HETATM   24  C   UNL     1      38.223 -12.325  -1.140  1.00  0.00     0.045 A 
HETATM   25  C   UNL     1      37.784 -13.078  -2.224  1.00  0.00     0.116 A 
HETATM   26  F   UNL     1      36.765 -12.630  -2.967  1.00  0.00    -0.206 F 
HETATM   27  C   UNL     1      38.388 -14.286  -2.544  1.00  0.00     0.045 A 
HETATM   28  C   UNL     1      39.449 -14.746  -1.763  1.00  0.00     0.040 A 
ENDBRANCH  21  22
ENDBRANCH  20  21
ENDBRANCH  18  20
ENDBRANCH   8  14
BRANCH  12  29
HETATM   29  N   UNL     1      43.481 -15.977   8.806  1.00  0.00    -0.282 NA
HETATM   30  H   UNL     1      42.633 -16.224   9.311  1.00  0.00     0.126 HD
HETATM   31  H   UNL     1      43.706 -14.987   8.864  1.00  0.00     0.126 HD
ENDBRANCH  12  29
TORSDOF 5
ENDMDL
MODEL 4
REMARK VINA RESULT:      -8.3      3.673      5.658
REMARK  5 active torsions:
REMARK  status: ('A' for Active; 'I' for Inactive)
REMARK    1  A    between atoms: C_8  and  C_9 
REMARK    2  A    between atoms: C_13  and  C_14 
REMARK    3  A    between atoms: C_14  and  O_15 
REMARK    4  A    between atoms: O_15  and  C_16 
REMARK    5  A    between atoms: C_27  and  N_28 
ROOT
HETATM    1  C   UNL     1      44.019 -11.243   6.329  1.00  0.00     0.073 C 
HETATM    2  C   UNL     1      42.760 -10.638   6.829  1.00  0.00     0.062 A 
HETATM    3  N   UNL     1      42.710 -10.089   8.055  1.00  0.00    -0.177 NA
HETATM    4  N   UNL     1      41.437  -9.660   8.177  1.00  0.00    -0.256 N 
HETATM    5  H   UNL     1      41.153  -9.208   9.038  1.00  0.00     0.191 HD
HETATM    6  C   UNL     1      40.696  -9.900   7.065  1.00  0.00     0.175 A 
HETATM    7  C   UNL     1      41.511 -10.546   6.175  1.00  0.00     0.035 A 
HETATM    8  C   UNL     1      40.993 -10.974   4.842  1.00  0.00     0.112 A 
HETATM    9  C   UNL     1      39.551 -10.459   4.666  1.00  0.00     0.081 A 
HETATM   10  C   UNL     1      38.958 -10.663   3.387  1.00  0.00     0.100 C 
HETATM   11  N   UNL     1      38.474 -10.793   2.340  1.00  0.00    -0.191 NA
HETATM   12  C   UNL     1      38.859  -9.821   5.650  1.00  0.00     0.140 A 
HETATM   13  O   UNL     1      39.426  -9.553   6.909  1.00  0.00    -0.279 OA
ENDROOT
BRANCH   8  14
HETATM   14  C   UNL     1      41.112 -12.478   4.676  1.00  0.00    -0.003 A 
HETATM   15  S   UNL     1      40.419 -13.530   5.833  1.00  0.00    -0.098 SA
HETATM   16  C   UNL     1      40.951 -14.925   4.999  1.00  0.00    -0.013 A 
HETATM   17  C   UNL     1      40.625 -16.280   5.539  1.00  0.00     0.057 C 
HETATM   18  C   UNL     1      41.665 -14.610   3.853  1.00  0.00    -0.020 A 
HETATM   19  C   UNL     1      41.744 -13.189   3.674  1.00  0.00     0.026 A 
BRANCH  18  20
HETATM   20  C   UNL     1      42.274 -15.605   2.902  1.00  0.00     0.215 C 
BRANCH  20  21
HETATM   21  O   UNL     1      43.429 -16.204   3.491  1.00  0.00    -0.347 OA
BRANCH  21  22
HETATM   22  C   UNL     1      43.536 -17.564   3.414  1.00  0.00     0.069 A 
HETATM   23  C   UNL     1      43.189 -18.357   2.316  1.00  0.00     0.040 A 
HETATM   24  C   UNL     1      43.350 -19.744   2.378  1.00  0.00     0.045 A 
HETATM   25  C   UNL     1      43.859 -20.331   3.531  1.00  0.00     0.116 A 
HETATM   26  F   UNL     1      44.010 -21.660   3.584  1.00  0.00    -0.206 F 
HETATM   27  C   UNL     1      44.212 -19.556   4.627  1.00  0.00     0.045 A 
HETATM   28  C   UNL     1      44.050 -18.171   4.565  1.00  0.00     0.040 A 
ENDBRANCH  21  22
ENDBRANCH  20  21
ENDBRANCH  18  20
ENDBRANCH   8  14
BRANCH  12  29
HETATM   29  N   UNL     1      37.568  -9.355   5.545  1.00  0.00    -0.282 NA
HETATM   30  H   UNL     1      37.120  -9.490   4.642  1.00  0.00     0.126 HD
HETATM   31  H   UNL     1      37.472  -8.406   5.900  1.00  0.00     0.126 HD
ENDBRANCH  12  29
TORSDOF 5
ENDMDL
MODEL 5
REMARK VINA RESULT:      -8.3      2.998      3.914
REMARK  5 active torsions:
REMARK  status: ('A' for Active; 'I' for Inactive)
REMARK    1  A    between atoms: C_8  and  C_9 
REMARK    2  A    between atoms: C_13  and  C_14 
REMARK    3  A    between atoms: C_14  and  O_15 
REMARK    4  A    between atoms: O_15  and  C_16 
REMARK    5  A    between atoms: C_27  and  N_28 
ROOT
HETATM    1  C   UNL     1      40.052 -15.278   2.049  1.00  0.00     0.073 C 
HETATM    2  C   UNL     1      39.872 -13.824   1.813  1.00  0.00     0.062 A 
HETATM    3  N   UNL     1      39.928 -13.326   0.565  1.00  0.00    -0.177 NA
HETATM    4  N   UNL     1      39.740 -12.000   0.727  1.00  0.00    -0.256 N 
HETATM    5  H   UNL     1      39.746 -11.402  -0.091  1.00  0.00     0.191 HD
HETATM    6  C   UNL     1      39.545 -11.654   2.025  1.00  0.00     0.175 A 
HETATM    7  C   UNL     1      39.639 -12.803   2.762  1.00  0.00     0.035 A 
HETATM    8  C   UNL     1      39.491 -12.769   4.247  1.00  0.00     0.112 A 
HETATM    9  C   UNL     1      39.114 -11.342   4.688  1.00  0.00     0.081 A 
HETATM   10  C   UNL     1      38.798 -11.168   6.067  1.00  0.00     0.100 C 
HETATM   11  N   UNL     1      38.506 -11.019   7.181  1.00  0.00    -0.191 NA
HETATM   12  C   UNL     1      39.055 -10.285   3.832  1.00  0.00     0.140 A 
HETATM   13  O   UNL     1      39.308 -10.423   2.456  1.00  0.00    -0.279 OA
ENDROOT
BRANCH   8  14
HETATM   14  C   UNL     1      40.746 -13.290   4.925  1.00  0.00    -0.003 A 
HETATM   15  S   UNL     1      41.999 -12.212   5.363  1.00  0.00    -0.098 SA
HETATM   16  C   UNL     1      42.962 -13.469   6.007  1.00  0.00    -0.013 A 
HETATM   17  C   UNL     1      44.293 -13.149   6.607  1.00  0.00     0.057 C 
HETATM   18  C   UNL     1      42.356 -14.709   5.884  1.00  0.00    -0.020 A 
HETATM   19  C   UNL     1      41.068 -14.590   5.263  1.00  0.00     0.026 A 
BRANCH  18  20
HETATM   20  C   UNL     1      42.940 -16.017   6.345  1.00  0.00     0.215 C 
BRANCH  20  21
HETATM   21  O   UNL     1      44.056 -16.371   5.526  1.00  0.00    -0.347 OA
BRANCH  21  22
HETATM   22  C   UNL     1      43.826 -17.241   4.497  1.00  0.00     0.069 A 
HETATM   23  C   UNL     1      43.262 -16.921   3.259  1.00  0.00     0.040 A 
HETATM   24  C   UNL     1      43.082 -17.918   2.295  1.00  0.00     0.045 A 
HETATM   25  C   UNL     1      43.468 -19.225   2.571  1.00  0.00     0.116 A 
HETATM   26  F   UNL     1      43.292 -20.174   1.644  1.00  0.00    -0.206 F 
HETATM   27  C   UNL     1      44.033 -19.556   3.795  1.00  0.00     0.045 A 
HETATM   28  C   UNL     1      44.211 -18.561   4.756  1.00  0.00     0.040 A 
ENDBRANCH  21  22
ENDBRANCH  20  21
ENDBRANCH  18  20
ENDBRANCH   8  14
BRANCH  12  29
HETATM   29  N   UNL     1      38.735  -8.992   4.180  1.00  0.00    -0.282 NA
HETATM   30  H   UNL     1      37.775  -8.839   4.481  1.00  0.00     0.126 HD
HETATM   31  H   UNL     1      39.047  -8.318   3.485  1.00  0.00     0.126 HD
ENDBRANCH  12  29
TORSDOF 5
ENDMDL
MODEL 6
REMARK VINA RESULT:      -8.2      4.414      6.488
REMARK  5 active torsions:
REMARK  status: ('A' for Active; 'I' for Inactive)
REMARK    1  A    between atoms: C_8  and  C_9 
REMARK    2  A    between atoms: C_13  and  C_14 
REMARK    3  A    between atoms: C_14  and  O_15 
REMARK    4  A    between atoms: O_15  and  C_16 
REMARK    5  A    between atoms: C_27  and  N_28 
ROOT
HETATM    1  C   UNL     1      45.716 -11.204   6.773  1.00  0.00     0.073 C 
HETATM    2  C   UNL     1      44.513 -10.800   7.541  1.00  0.00     0.062 A 
HETATM    3  N   UNL     1      44.548 -10.754   8.884  1.00  0.00    -0.177 NA
HETATM    4  N   UNL     1      43.303 -10.370   9.236  1.00  0.00    -0.256 N 
HETATM    5  H   UNL     1      43.083 -10.269  10.220  1.00  0.00     0.191 HD
HETATM    6  C   UNL     1      42.499 -10.152   8.164  1.00  0.00     0.175 A 
HETATM    7  C   UNL     1      43.239 -10.435   7.048  1.00  0.00     0.035 A 
HETATM    8  C   UNL     1      42.639 -10.314   5.686  1.00  0.00     0.112 A 
HETATM    9  C   UNL     1      41.217  -9.733   5.807  1.00  0.00     0.081 A 
HETATM   10  C   UNL     1      40.554  -9.423   4.584  1.00  0.00     0.100 C 
HETATM   11  N   UNL     1      40.015  -9.134   3.597  1.00  0.00    -0.191 NA
HETATM   12  C   UNL     1      40.604  -9.496   7.000  1.00  0.00     0.140 A 
HETATM   13  O   UNL     1      41.242  -9.739   8.229  1.00  0.00    -0.279 OA
ENDROOT
BRANCH   8  14
HETATM   14  C   UNL     1      42.678 -11.646   4.961  1.00  0.00    -0.003 A 
HETATM   15  S   UNL     1      43.248 -11.734   3.351  1.00  0.00    -0.098 SA
HETATM   16  C   UNL     1      42.989 -13.422   3.268  1.00  0.00    -0.013 A 
HETATM   17  C   UNL     1      43.330 -14.164   2.016  1.00  0.00     0.057 C 
HETATM   18  C   UNL     1      42.459 -13.929   4.444  1.00  0.00    -0.020 A 
HETATM   19  C   UNL     1      42.292 -12.891   5.419  1.00  0.00     0.026 A 
BRANCH  18  20
HETATM   20  C   UNL     1      42.110 -15.372   4.695  1.00  0.00     0.215 C 
BRANCH  20  21
HETATM   21  O   UNL     1      43.299 -16.134   4.910  1.00  0.00    -0.347 OA
BRANCH  21  22
HETATM   22  C   UNL     1      43.425 -17.304   4.214  1.00  0.00     0.069 A 
HETATM   23  C   UNL     1      42.987 -17.536   2.908  1.00  0.00     0.040 A 
HETATM   24  C   UNL     1      43.182 -18.790   2.319  1.00  0.00     0.045 A 
HETATM   25  C   UNL     1      43.815 -19.799   3.035  1.00  0.00     0.116 A 
HETATM   26  F   UNL     1      43.998 -20.997   2.464  1.00  0.00    -0.206 F 
HETATM   27  C   UNL     1      44.260 -19.581   4.331  1.00  0.00     0.045 A 
HETATM   28  C   UNL     1      44.064 -18.331   4.919  1.00  0.00     0.040 A 
ENDBRANCH  21  22
ENDBRANCH  20  21
ENDBRANCH  18  20
ENDBRANCH   8  14
BRANCH  12  29
HETATM   29  N   UNL     1      39.333  -8.991   7.158  1.00  0.00    -0.282 NA
HETATM   30  H   UNL     1      38.652  -9.277   6.458  1.00  0.00     0.126 HD
HETATM   31  H   UNL     1      39.336  -7.988   7.325  1.00  0.00     0.126 HD
ENDBRANCH  12  29
TORSDOF 5
ENDMDL
MODEL 7
REMARK VINA RESULT:      -8.0      1.612      3.735
REMARK  5 active torsions:
REMARK  status: ('A' for Active; 'I' for Inactive)
REMARK    1  A    between atoms: C_8  and  C_9 
REMARK    2  A    between atoms: C_13  and  C_14 
REMARK    3  A    between atoms: C_14  and  O_15 
REMARK    4  A    between atoms: O_15  and  C_16 
REMARK    5  A    between atoms: C_27  and  N_28 
ROOT
HETATM    1  C   UNL     1      40.757 -10.311   3.281  1.00  0.00     0.073 C 
HETATM    2  C   UNL     1      39.511 -10.452   2.489  1.00  0.00     0.062 A 
HETATM    3  N   UNL     1      38.393  -9.803   2.859  1.00  0.00    -0.177 NA
HETATM    4  N   UNL     1      37.477 -10.167   1.938  1.00  0.00    -0.256 N 
HETATM    5  H   UNL     1      36.535  -9.800   2.013  1.00  0.00     0.191 HD
HETATM    6  C   UNL     1      37.985 -11.001   0.995  1.00  0.00     0.175 A 
HETATM    7  C   UNL     1      39.295 -11.223   1.324  1.00  0.00     0.035 A 
HETATM    8  C   UNL     1      40.147 -12.122   0.491  1.00  0.00     0.112 A 
HETATM    9  C   UNL     1      39.351 -12.572  -0.749  1.00  0.00     0.081 A 
HETATM   10  C   UNL     1      40.069 -13.326  -1.723  1.00  0.00     0.100 C 
HETATM   11  N   UNL     1      40.649 -13.912  -2.540  1.00  0.00    -0.191 NA
HETATM   12  C   UNL     1      38.038 -12.267  -0.948  1.00  0.00     0.140 A 
HETATM   13  O   UNL     1      37.308 -11.483  -0.038  1.00  0.00    -0.279 OA
ENDROOT
BRANCH   8  14
HETATM   14  C   UNL     1      40.671 -13.283   1.316  1.00  0.00    -0.003 A 
HETATM   15  S   UNL     1      39.621 -14.145   2.355  1.00  0.00    -0.098 SA
HETATM   16  C   UNL     1      40.868 -15.192   2.875  1.00  0.00    -0.013 A 
HETATM   17  C   UNL     1      40.565 -16.272   3.863  1.00  0.00     0.057 C 
HETATM   18  C   UNL     1      42.085 -14.893   2.283  1.00  0.00    -0.020 A 
HETATM   19  C   UNL     1      41.955 -13.790   1.375  1.00  0.00     0.026 A 
BRANCH  18  20
HETATM   20  C   UNL     1      43.380 -15.620   2.530  1.00  0.00     0.215 C 
BRANCH  20  21
HETATM   21  O   UNL     1      43.341 -16.912   1.923  1.00  0.00    -0.347 OA
BRANCH  21  22
HETATM   22  C   UNL     1      43.543 -17.991   2.737  1.00  0.00     0.069 A 
HETATM   23  C   UNL     1      43.921 -17.950   4.082  1.00  0.00     0.040 A 
HETATM   24  C   UNL     1      44.094 -19.140   4.796  1.00  0.00     0.045 A 
HETATM   25  C   UNL     1      43.885 -20.361   4.165  1.00  0.00     0.116 A 
HETATM   26  F   UNL     1      44.052 -21.496   4.855  1.00  0.00    -0.206 F 
HETATM   27  C   UNL     1      43.504 -20.418   2.832  1.00  0.00     0.045 A 
HETATM   28  C   UNL     1      43.332 -19.230   2.120  1.00  0.00     0.040 A 
ENDBRANCH  21  22
ENDBRANCH  20  21
ENDBRANCH  18  20
ENDBRANCH   8  14
BRANCH  12  29
HETATM   29  N   UNL     1      37.283 -12.656  -2.031  1.00  0.00    -0.282 NA
HETATM   30  H   UNL     1      36.870 -13.584  -1.974  1.00  0.00     0.126 HD
HETATM   31  H   UNL     1      37.759 -12.485  -2.913  1.00  0.00     0.126 HD
ENDBRANCH  12  29
TORSDOF 5
ENDMDL
MODEL 8
REMARK VINA RESULT:      -7.9      3.036      5.110
REMARK  5 active torsions:
REMARK  status: ('A' for Active; 'I' for Inactive)
REMARK    1  A    between atoms: C_8  and  C_9 
REMARK    2  A    between atoms: C_13  and  C_14 
REMARK    3  A    between atoms: C_14  and  O_15 
REMARK    4  A    between atoms: O_15  and  C_16 
REMARK    5  A    between atoms: C_27  and  N_28 
ROOT
HETATM    1  C   UNL     1      44.892 -12.498   6.418  1.00  0.00     0.073 C 
HETATM    2  C   UNL     1      43.890 -11.405   6.412  1.00  0.00     0.062 A 
HETATM    3  N   UNL     1      43.678 -10.671   7.518  1.00  0.00    -0.177 NA
HETATM    4  N   UNL     1      42.713  -9.799   7.159  1.00  0.00    -0.256 N 
HETATM    5  H   UNL     1      42.376  -9.133   7.844  1.00  0.00     0.191 HD
HETATM    6  C   UNL     1      42.330  -9.945   5.865  1.00  0.00     0.175 A 
HETATM    7  C   UNL     1      43.057 -10.984   5.350  1.00  0.00     0.035 A 
HETATM    8  C   UNL     1      42.863 -11.422   3.936  1.00  0.00     0.112 A 
HETATM    9  C   UNL     1      41.881 -10.462   3.237  1.00  0.00     0.081 A 
HETATM   10  C   UNL     1      41.693 -10.658   1.837  1.00  0.00     0.100 C 
HETATM   11  N   UNL     1      41.555 -10.784   0.692  1.00  0.00    -0.191 NA
HETATM   12  C   UNL     1      41.227  -9.458   3.884  1.00  0.00     0.140 A 
HETATM   13  O   UNL     1      41.424  -9.198   5.251  1.00  0.00    -0.279 OA
ENDROOT
BRANCH   8  14
HETATM   14  C   UNL     1      42.420 -12.873   3.878  1.00  0.00    -0.003 A 
HETATM   15  S   UNL     1      41.409 -13.515   5.098  1.00  0.00    -0.098 SA
HETATM   16  C   UNL     1      41.379 -15.061   4.370  1.00  0.00    -0.013 A 
HETATM   17  C   UNL     1      40.589 -16.162   5.001  1.00  0.00     0.057 C 
HETATM   18  C   UNL     1      42.140 -15.110   3.212  1.00  0.00    -0.020 A 
HETATM   19  C   UNL     1      42.730 -13.833   2.934  1.00  0.00     0.026 A 
BRANCH  18  20
HETATM   20  C   UNL     1      42.326 -16.322   2.339  1.00  0.00     0.215 C 
BRANCH  20  21
HETATM   21  O   UNL     1      43.627 -16.876   2.539  1.00  0.00    -0.347 OA
BRANCH  21  22
HETATM   22  C   UNL     1      43.717 -18.000   3.311  1.00  0.00     0.069 A 
HETATM   23  C   UNL     1      43.882 -18.035   4.699  1.00  0.00     0.040 A 
HETATM   24  C   UNL     1      43.960 -19.264   5.361  1.00  0.00     0.045 A 
HETATM   25  C   UNL     1      43.870 -20.448   4.637  1.00  0.00     0.116 A 
HETATM   26  F   UNL     1      43.946 -21.621   5.278  1.00  0.00    -0.206 F 
HETATM   27  C   UNL     1      43.700 -20.428   3.259  1.00  0.00     0.045 A 
HETATM   28  C   UNL     1      43.623 -19.201   2.599  1.00  0.00     0.040 A 
ENDBRANCH  21  22
ENDBRANCH  20  21
ENDBRANCH  18  20
ENDBRANCH   8  14
BRANCH  12  29
HETATM   29  N   UNL     1      40.334  -8.584   3.306  1.00  0.00    -0.282 NA
HETATM   30  H   UNL     1      40.736  -7.881   2.690  1.00  0.00     0.126 HD
HETATM   31  H   UNL     1      39.683  -8.195   3.984  1.00  0.00     0.126 HD
ENDBRANCH  12  29
TORSDOF 5
ENDMDL
MODEL 9
REMARK VINA RESULT:      -7.7      2.592      4.450
REMARK  5 active torsions:
REMARK  status: ('A' for Active; 'I' for Inactive)
REMARK    1  A    between atoms: C_8  and  C_9 
REMARK    2  A    between atoms: C_13  and  C_14 
REMARK    3  A    between atoms: C_14  and  O_15 
REMARK    4  A    between atoms: O_15  and  C_16 
REMARK    5  A    between atoms: C_27  and  N_28 
ROOT
HETATM    1  C   UNL     1      40.419 -11.448   6.274  1.00  0.00     0.073 C 
HETATM    2  C   UNL     1      39.495 -10.646   5.435  1.00  0.00     0.062 A 
HETATM    3  N   UNL     1      38.328 -10.208   5.937  1.00  0.00    -0.177 NA
HETATM    4  N   UNL     1      37.754  -9.542   4.914  1.00  0.00    -0.256 N 
HETATM    5  H   UNL     1      36.844  -9.119   5.055  1.00  0.00     0.191 HD
HETATM    6  C   UNL     1      38.528  -9.527   3.799  1.00  0.00     0.175 A 
HETATM    7  C   UNL     1      39.657 -10.245   4.089  1.00  0.00     0.035 A 
HETATM    8  C   UNL     1      40.720 -10.440   3.059  1.00  0.00     0.112 A 
HETATM    9  C   UNL     1      40.362  -9.630   1.798  1.00  0.00     0.081 A 
HETATM   10  C   UNL     1      41.345  -9.596   0.768  1.00  0.00     0.100 C 
HETATM   11  N   UNL     1      42.150  -9.532  -0.067  1.00  0.00    -0.191 NA
HETATM   12  C   UNL     1      39.189  -8.953   1.651  1.00  0.00     0.140 A 
HETATM   13  O   UNL     1      38.215  -8.918   2.665  1.00  0.00    -0.279 OA
ENDROOT
BRANCH   8  14
HETATM   14  C   UNL     1      40.931 -11.917   2.777  1.00  0.00    -0.003 A 
HETATM   15  S   UNL     1      39.631 -12.884   2.232  1.00  0.00    -0.098 SA
HETATM   16  C   UNL     1      40.603 -14.289   2.163  1.00  0.00    -0.013 A 
HETATM   17  C   UNL     1      40.006 -15.582   1.708  1.00  0.00     0.057 C 
HETATM   18  C   UNL     1      41.907 -14.045   2.563  1.00  0.00    -0.020 A 
HETATM   19  C   UNL     1      42.086 -12.664   2.908  1.00  0.00     0.026 A 
BRANCH  18  20
HETATM   20  C   UNL     1      43.010 -15.067   2.622  1.00  0.00     0.215 C 
BRANCH  20  21
HETATM   21  O   UNL     1      42.841 -15.906   3.766  1.00  0.00    -0.347 OA
BRANCH  21  22
HETATM   22  C   UNL     1      43.211 -17.215   3.642  1.00  0.00     0.069 A 
HETATM   23  C   UNL     1      43.967 -17.948   4.562  1.00  0.00     0.040 A 
HETATM   24  C   UNL     1      44.275 -19.287   4.302  1.00  0.00     0.045 A 
HETATM   25  C   UNL     1      43.825 -19.886   3.131  1.00  0.00     0.116 A 
HETATM   26  F   UNL     1      44.124 -21.169   2.889  1.00  0.00    -0.206 F 
HETATM   27  C   UNL     1      43.070 -19.172   2.211  1.00  0.00     0.045 A 
HETATM   28  C   UNL     1      42.763 -17.836   2.470  1.00  0.00     0.040 A 
ENDBRANCH  21  22
ENDBRANCH  20  21
ENDBRANCH  18  20
ENDBRANCH   8  14
BRANCH  12  29
HETATM   29  N   UNL     1      38.820  -8.227   0.542  1.00  0.00    -0.282 NA
HETATM   30  H   UNL     1      39.291  -7.333   0.421  1.00  0.00     0.126 HD
HETATM   31  H   UNL     1      37.809  -8.162   0.443  1.00  0.00     0.126 HD
ENDBRANCH  12  29
TORSDOF 5
ENDMDL
MODEL 10
REMARK VINA RESULT:      -7.5      2.246      2.705
REMARK  5 active torsions:
REMARK  status: ('A' for Active; 'I' for Inactive)
REMARK    1  A    between atoms: C_8  and  C_9 
REMARK    2  A    between atoms: C_13  and  C_14 
REMARK    3  A    between atoms: C_14  and  O_15 
REMARK    4  A    between atoms: O_15  and  C_16 
REMARK    5  A    between atoms: C_27  and  N_28 
ROOT
HETATM    1  C   UNL     1      39.841 -15.095  -0.054  1.00  0.00     0.073 C 
HETATM    2  C   UNL     1      39.804 -13.842  -0.847  1.00  0.00     0.062 A 
HETATM    3  N   UNL     1      40.054 -13.866  -2.168  1.00  0.00    -0.177 NA
HETATM    4  N   UNL     1      39.948 -12.576  -2.550  1.00  0.00    -0.256 N 
HETATM    5  H   UNL     1      40.104 -12.340  -3.522  1.00  0.00     0.191 HD
HETATM    6  C   UNL     1      39.619 -11.751  -1.523  1.00  0.00     0.175 A 
HETATM    7  C   UNL     1      39.532 -12.529  -0.400  1.00  0.00     0.035 A 
HETATM    8  C   UNL     1      39.201 -11.921   0.923  1.00  0.00     0.112 A 
HETATM    9  C   UNL     1      38.881 -10.426   0.730  1.00  0.00     0.081 A 
HETATM   10  C   UNL     1      38.407  -9.727   1.878  1.00  0.00     0.100 C 
HETATM   11  N   UNL     1      37.990  -9.153   2.797  1.00  0.00    -0.191 NA
HETATM   12  C   UNL     1      39.011  -9.781  -0.462  1.00  0.00     0.140 A 
HETATM   13  O   UNL     1      39.423 -10.445  -1.630  1.00  0.00    -0.279 OA
ENDROOT
BRANCH   8  14
HETATM   14  C   UNL     1      40.316 -12.167   1.922  1.00  0.00    -0.003 A 
HETATM   15  S   UNL     1      41.779 -11.288   1.814  1.00  0.00    -0.098 SA
HETATM   16  C   UNL     1      42.449 -12.083   3.171  1.00  0.00    -0.013 A 
HETATM   17  C   UNL     1      43.822 -11.724   3.638  1.00  0.00     0.057 C 
HETATM   18  C   UNL     1      41.584 -13.025   3.706  1.00  0.00    -0.020 A 
HETATM   19  C   UNL     1      40.349 -13.057   2.978  1.00  0.00     0.026 A 
BRANCH  18  20
HETATM   20  C   UNL     1      41.872 -13.899   4.898  1.00  0.00     0.215 C 
BRANCH  20  21
HETATM   21  O   UNL     1      41.257 -15.177   4.729  1.00  0.00    -0.347 OA
BRANCH  21  22
HETATM   22  C   UNL     1      41.999 -16.152   4.123  1.00  0.00     0.069 A 
HETATM   23  C   UNL     1      41.784 -16.677   2.845  1.00  0.00     0.040 A 
HETATM   24  C   UNL     1      42.626 -17.679   2.351  1.00  0.00     0.045 A 
HETATM   25  C   UNL     1      43.676 -18.147   3.132  1.00  0.00     0.116 A 
HETATM   26  F   UNL     1      44.477 -19.106   2.652  1.00  0.00    -0.206 F 
HETATM   27  C   UNL     1      43.905 -17.632   4.400  1.00  0.00     0.045 A 
HETATM   28  C   UNL     1      43.064 -16.633   4.893  1.00  0.00     0.040 A 
ENDBRANCH  21  22
ENDBRANCH  20  21
ENDBRANCH  18  20
ENDBRANCH   8  14
BRANCH  12  29
HETATM   29  N   UNL     1      38.749  -8.447  -0.681  1.00  0.00    -0.282 NA
HETATM   30  H   UNL     1      38.952  -8.103  -1.616  1.00  0.00     0.126 HD
HETATM   31  H   UNL     1      39.129  -7.854   0.054  1.00  0.00     0.126 HD
ENDBRANCH  12  29
TORSDOF 5
ENDMDL
