MODEL 1
REMARK VINA RESULT:      -8.4      0.000      0.000
REMARK  7 active torsions:
REMARK  status: ('A' for Active; 'I' for Inactive)
REMARK    1  A    between atoms: C_2  and  C_3 
REMARK    2  A    between atoms: C_2  and  C_20 
REMARK    3  A    between atoms: C_3  and  C_4 
REMARK       I    between atoms: C_4  and  N_5 
REMARK    4  A    between atoms: N_5  and  C_6 
REMARK    5  A    between atoms: C_13  and  C_14 
REMARK       I    between atoms: C_14  and  N_15 
REMARK    6  A    between atoms: C_20  and  C_21 
REMARK    7  A    between atoms: C_22  and  O_23 
ROOT
HETATM    1  C   UNL     1      40.109 -15.426   1.898  1.00  0.00     0.222 C 
HETATM    2  N   UNL     1      39.467 -14.490   1.141  1.00  0.00    -0.327 N 
HETATM    3  O   UNL     1      39.453 -15.981   2.786  1.00  0.00    -0.273 OA
HETATM    4  H   UNL     1      38.565 -14.268   1.544  1.00  0.00     0.169 HD
ENDROOT
BRANCH   2   5
HETATM    5  C   UNL     1      39.818 -13.789  -0.026  1.00  0.00     0.035 A 
HETATM    6  C   UNL     1      40.402 -12.518  -0.031  1.00  0.00     0.046 A 
HETATM    7  C   UNL     1      40.675 -11.878  -1.259  1.00  0.00     0.030 A 
HETATM    8  C   UNL     1      40.415 -12.555  -2.442  1.00  0.00     0.063 A 
HETATM    9  C   UNL     1      41.189 -10.610  -1.661  1.00  0.00     0.156 A 
HETATM   10  N   UNL     1      40.777 -11.694  -3.440  1.00  0.00    -0.277 N 
HETATM   11  C   UNL     1      39.898 -13.851  -2.476  1.00  0.00     0.034 A 
HETATM   12  H   UNL     1      40.727 -11.855  -4.439  1.00  0.00     0.189 HD
HETATM   13  N   UNL     1      41.243 -10.508  -3.009  1.00  0.00    -0.168 NA
HETATM   14  C   UNL     1      39.611 -14.452  -1.243  1.00  0.00     0.032 A 
BRANCH   9  15
HETATM   15  C   UNL     1      41.598  -9.500  -0.788  1.00  0.00     0.270 C 
HETATM   16  N   UNL     1      40.579  -8.965  -0.050  1.00  0.00    -0.365 N 
HETATM   17  H   UNL     1      39.653  -9.369  -0.135  1.00  0.00     0.159 HD
HETATM   18  H   UNL     1      40.769  -8.221   0.603  1.00  0.00     0.159 HD
HETATM   19  O   UNL     1      42.744  -9.075  -0.697  1.00  0.00    -0.266 OA
ENDBRANCH   9  15
ENDBRANCH   2   5
BRANCH   1  20
HETATM   20  C   UNL     1      41.600 -15.677   1.767  1.00  0.00     0.107 C 
BRANCH  20  21
HETATM   21  C   UNL     1      42.311 -16.127   3.058  1.00  0.00    -0.006 C 
HETATM   22  C   UNL     1      42.467 -15.008   4.094  1.00  0.00     0.011 C 
BRANCH  21  23
HETATM   23  C   UNL     1      43.679 -16.797   2.785  1.00  0.00     0.046 C 
BRANCH  23  24
HETATM   24  C   UNL     1      43.736 -18.270   3.165  1.00  0.00    -0.024 A 
HETATM   25  C   UNL     1      44.097 -18.689   4.461  1.00  0.00     0.074 A 
HETATM   26  C   UNL     1      44.173 -20.057   4.749  1.00  0.00     0.037 A 
HETATM   27  C   UNL     1      43.878 -21.009   3.770  1.00  0.00     0.003 A 
HETATM   28  C   UNL     1      43.490 -20.603   2.500  1.00  0.00     0.001 A 
HETATM   29  C   UNL     1      43.409 -19.243   2.202  1.00  0.00     0.010 A 
BRANCH  25  30
HETATM   30  O   UNL     1      44.366 -17.696   5.366  1.00  0.00    -0.355 OA
HETATM   31  C   UNL     1      43.561 -17.629   6.533  1.00  0.00     0.210 C 
ENDBRANCH  25  30
ENDBRANCH  23  24
ENDBRANCH  21  23
ENDBRANCH  20  21
ENDBRANCH   1  20
TORSDOF 7
ENDMDL
MODEL 2
REMARK VINA RESULT:      -8.4      1.669      2.383
REMARK  7 active torsions:
REMARK  status: ('A' for Active; 'I' for Inactive)
REMARK    1  A    between atoms: C_2  and  C_3 
REMARK    2  A    between atoms: C_2  and  C_20 
REMARK    3  A    between atoms: C_3  and  C_4 
REMARK       I    between atoms: C_4  and  N_5 
REMARK    4  A    between atoms: N_5  and  C_6 
REMARK    5  A    between atoms: C_13  and  C_14 
REMARK       I    between atoms: C_14  and  N_15 
REMARK    6  A    between atoms: C_20  and  C_21 
REMARK    7  A    between atoms: C_22  and  O_23 
ROOT
HETATM    1  C   UNL     1      40.197 -13.310   4.978  1.00  0.00     0.222 C 
HETATM    2  N   UNL     1      39.471 -13.291   3.822  1.00  0.00    -0.327 N 
HETATM    3  O   UNL     1      39.569 -13.424   6.037  1.00  0.00    -0.273 OA
HETATM    4  H   UNL     1      38.482 -13.207   4.028  1.00  0.00     0.169 HD
ENDROOT
BRANCH   2   5
HETATM    5  C   UNL     1      39.823 -13.339   2.463  1.00  0.00     0.035 A 
HETATM    6  C   UNL     1      40.261 -12.234   1.727  1.00  0.00     0.046 A 
HETATM    7  C   UNL     1      40.548 -12.377   0.352  1.00  0.00     0.030 A 
HETATM    8  C   UNL     1      40.449 -13.633  -0.228  1.00  0.00     0.063 A 
HETATM    9  C   UNL     1      40.945 -11.509  -0.707  1.00  0.00     0.156 A 
HETATM   10  N   UNL     1      40.783 -13.454  -1.541  1.00  0.00    -0.277 N 
HETATM   11  C   UNL     1      40.082 -14.773   0.490  1.00  0.00     0.034 A 
HETATM   12  H   UNL     1      40.821 -14.160  -2.268  1.00  0.00     0.189 HD
HETATM   13  N   UNL     1      41.082 -12.185  -1.870  1.00  0.00    -0.168 NA
HETATM   14  C   UNL     1      39.778 -14.598   1.847  1.00  0.00     0.032 A 
BRANCH   9  15
HETATM   15  C   UNL     1      41.165 -10.057  -0.631  1.00  0.00     0.270 C 
HETATM   16  N   UNL     1      40.045  -9.308  -0.867  1.00  0.00    -0.365 N 
HETATM   17  H   UNL     1      39.170  -9.787  -1.049  1.00  0.00     0.159 HD
HETATM   18  H   UNL     1      40.090  -8.304  -0.802  1.00  0.00     0.159 HD
HETATM   19  O   UNL     1      42.241  -9.532  -0.368  1.00  0.00    -0.266 OA
ENDBRANCH   9  15
ENDBRANCH   2   5
BRANCH   1  20
HETATM   20  C   UNL     1      41.691 -13.052   4.988  1.00  0.00     0.107 C 
BRANCH  20  21
HETATM   21  C   UNL     1      42.571 -14.241   4.549  1.00  0.00    -0.006 C 
HETATM   22  C   UNL     1      43.185 -14.065   3.156  1.00  0.00     0.011 C 
BRANCH  21  23
HETATM   23  C   UNL     1      41.832 -15.597   4.642  1.00  0.00     0.046 C 
BRANCH  23  24
HETATM   24  C   UNL     1      42.615 -16.770   4.070  1.00  0.00    -0.024 A 
HETATM   25  C   UNL     1      43.666 -17.380   4.784  1.00  0.00     0.074 A 
HETATM   26  C   UNL     1      44.382 -18.430   4.197  1.00  0.00     0.037 A 
HETATM   27  C   UNL     1      44.053 -18.890   2.919  1.00  0.00     0.003 A 
HETATM   28  C   UNL     1      42.998 -18.316   2.223  1.00  0.00     0.001 A 
HETATM   29  C   UNL     1      42.277 -17.270   2.798  1.00  0.00     0.010 A 
BRANCH  25  30
HETATM   30  O   UNL     1      43.924 -16.876   6.031  1.00  0.00    -0.355 OA
HETATM   31  C   UNL     1      43.540 -17.658   7.152  1.00  0.00     0.210 C 
ENDBRANCH  25  30
ENDBRANCH  23  24
ENDBRANCH  21  23
ENDBRANCH  20  21
ENDBRANCH   1  20
TORSDOF 7
ENDMDL
MODEL 3
REMARK VINA RESULT:      -8.4      3.142      4.241
REMARK  7 active torsions:
REMARK  status: ('A' for Active; 'I' for Inactive)
REMARK    1  A    between atoms: C_2  and  C_3 
REMARK    2  A    between atoms: C_2  and  C_20 
REMARK    3  A    between atoms: C_3  and  C_4 
REMARK       I    between atoms: C_4  and  N_5 
REMARK    4  A    between atoms: N_5  and  C_6 
REMARK    5  A    between atoms: C_13  and  C_14 
REMARK       I    between atoms: C_14  and  N_15 
REMARK    6  A    between atoms: C_20  and  C_21 
REMARK    7  A    between atoms: C_22  and  O_23 
ROOT
HETATM    1  C   UNL     1      40.343 -14.995   1.027  1.00  0.00     0.222 C 
HETATM    2  N   UNL     1      39.735 -13.846   1.442  1.00  0.00    -0.327 N 
HETATM    3  O   UNL     1      39.655 -15.799   0.387  1.00  0.00    -0.273 OA
HETATM    4  H   UNL     1      38.733 -13.904   1.296  1.00  0.00     0.169 HD
ENDROOT
BRANCH   2   5
HETATM    5  C   UNL     1      40.212 -12.661   2.028  1.00  0.00     0.035 A 
HETATM    6  C   UNL     1      39.851 -12.218   3.304  1.00  0.00     0.046 A 
HETATM    7  C   UNL     1      40.351 -10.989   3.786  1.00  0.00     0.030 A 
HETATM    8  C   UNL     1      41.246 -10.274   3.003  1.00  0.00     0.063 A 
HETATM    9  C   UNL     1      40.175 -10.202   4.963  1.00  0.00     0.156 A 
HETATM   10  N   UNL     1      41.544  -9.152   3.725  1.00  0.00    -0.277 N 
HETATM   11  C   UNL     1      41.683 -10.718   1.754  1.00  0.00     0.034 A 
HETATM   12  H   UNL     1      42.170  -8.400   3.462  1.00  0.00     0.189 HD
HETATM   13  N   UNL     1      40.914  -9.070   4.910  1.00  0.00    -0.168 NA
HETATM   14  C   UNL     1      41.150 -11.928   1.289  1.00  0.00     0.032 A 
BRANCH   9  15
HETATM   15  C   UNL     1      39.302 -10.499   6.108  1.00  0.00     0.270 C 
HETATM   16  N   UNL     1      39.949 -11.059   7.174  1.00  0.00    -0.365 N 
HETATM   17  H   UNL     1      40.951 -11.205   7.112  1.00  0.00     0.159 HD
HETATM   18  H   UNL     1      39.439 -11.267   8.018  1.00  0.00     0.159 HD
HETATM   19  O   UNL     1      38.099 -10.265   6.141  1.00  0.00    -0.266 OA
ENDBRANCH   9  15
ENDBRANCH   2   5
BRANCH   1  20
HETATM   20  C   UNL     1      41.754 -15.353   1.454  1.00  0.00     0.107 C 
BRANCH  20  21
HETATM   21  C   UNL     1      41.860 -16.434   2.548  1.00  0.00    -0.006 C 
HETATM   22  C   UNL     1      41.071 -16.099   3.818  1.00  0.00     0.011 C 
BRANCH  21  23
HETATM   23  C   UNL     1      43.326 -16.782   2.903  1.00  0.00     0.046 C 
BRANCH  23  24
HETATM   24  C   UNL     1      43.552 -18.251   3.233  1.00  0.00    -0.024 A 
HETATM   25  C   UNL     1      43.987 -18.668   4.507  1.00  0.00     0.074 A 
HETATM   26  C   UNL     1      44.219 -20.027   4.748  1.00  0.00     0.037 A 
HETATM   27  C   UNL     1      44.006 -20.975   3.744  1.00  0.00     0.003 A 
HETATM   28  C   UNL     1      43.546 -20.575   2.496  1.00  0.00     0.001 A 
HETATM   29  C   UNL     1      43.311 -19.224   2.245  1.00  0.00     0.010 A 
BRANCH  25  30
HETATM   30  O   UNL     1      44.167 -17.680   5.439  1.00  0.00    -0.355 OA
HETATM   31  C   UNL     1      43.354 -17.711   6.602  1.00  0.00     0.210 C 
ENDBRANCH  25  30
ENDBRANCH  23  24
ENDBRANCH  21  23
ENDBRANCH  20  21
ENDBRANCH   1  20
TORSDOF 7
ENDMDL
MODEL 4
REMARK VINA RESULT:      -8.3      3.790      5.228
REMARK  7 active torsions:
REMARK  status: ('A' for Active; 'I' for Inactive)
REMARK    1  A    between atoms: C_2  and  C_3 
REMARK    2  A    between atoms: C_2  and  C_20 
REMARK    3  A    between atoms: C_3  and  C_4 
REMARK       I    between atoms: C_4  and  N_5 
REMARK    4  A    between atoms: N_5  and  C_6 
REMARK    5  A    between atoms: C_13  and  C_14 
REMARK       I    between atoms: C_14  and  N_15 
REMARK    6  A    between atoms: C_20  and  C_21 
REMARK    7  A    between atoms: C_22  and  O_23 
ROOT
HETATM    1  C   UNL     1      40.822 -14.490   1.659  1.00  0.00     0.222 C 
HETATM    2  N   UNL     1      41.169 -13.217   2.009  1.00  0.00    -0.327 N 
HETATM    3  O   UNL     1      41.042 -14.834   0.492  1.00  0.00    -0.273 OA
HETATM    4  H   UNL     1      41.412 -12.678   1.185  1.00  0.00     0.169 HD
ENDROOT
BRANCH   2   5
HETATM    5  C   UNL     1      41.226 -12.537   3.237  1.00  0.00     0.035 A 
HETATM    6  C   UNL     1      42.414 -12.200   3.893  1.00  0.00     0.046 A 
HETATM    7  C   UNL     1      42.363 -11.556   5.148  1.00  0.00     0.030 A 
HETATM    8  C   UNL     1      41.128 -11.212   5.677  1.00  0.00     0.063 A 
HETATM    9  C   UNL     1      43.316 -11.123   6.117  1.00  0.00     0.156 A 
HETATM   10  N   UNL     1      41.400 -10.614   6.876  1.00  0.00    -0.277 N 
HETATM   11  C   UNL     1      39.923 -11.469   5.020  1.00  0.00     0.034 A 
HETATM   12  H   UNL     1      40.734 -10.233   7.538  1.00  0.00     0.189 HD
HETATM   13  N   UNL     1      42.708 -10.547   7.179  1.00  0.00    -0.168 NA
HETATM   14  C   UNL     1      40.002 -12.133   3.788  1.00  0.00     0.032 A 
BRANCH   9  15
HETATM   15  C   UNL     1      44.778 -11.274   6.054  1.00  0.00     0.270 C 
HETATM   16  N   UNL     1      45.371 -11.480   7.269  1.00  0.00    -0.365 N 
HETATM   17  H   UNL     1      44.784 -11.534   8.093  1.00  0.00     0.159 HD
HETATM   18  H   UNL     1      46.366 -11.628   7.323  1.00  0.00     0.159 HD
HETATM   19  O   UNL     1      45.435 -11.236   5.020  1.00  0.00    -0.266 OA
ENDBRANCH   9  15
ENDBRANCH   2   5
BRANCH   1  20
HETATM   20  C   UNL     1      40.063 -15.401   2.605  1.00  0.00     0.107 C 
BRANCH  20  21
HETATM   21  C   UNL     1      40.928 -16.145   3.642  1.00  0.00    -0.006 C 
HETATM   22  C   UNL     1      40.805 -15.579   5.061  1.00  0.00     0.011 C 
BRANCH  21  23
HETATM   23  C   UNL     1      42.417 -16.232   3.227  1.00  0.00     0.046 C 
BRANCH  23  24
HETATM   24  C   UNL     1      42.991 -17.641   3.270  1.00  0.00    -0.024 A 
HETATM   25  C   UNL     1      43.701 -18.120   4.389  1.00  0.00     0.074 A 
HETATM   26  C   UNL     1      44.245 -19.410   4.362  1.00  0.00     0.037 A 
HETATM   27  C   UNL     1      44.075 -20.232   3.245  1.00  0.00     0.003 A 
HETATM   28  C   UNL     1      43.348 -19.778   2.152  1.00  0.00     0.001 A 
HETATM   29  C   UNL     1      42.802 -18.496   2.168  1.00  0.00     0.010 A 
BRANCH  25  30
HETATM   30  O   UNL     1      43.820 -17.257   5.446  1.00  0.00    -0.355 OA
HETATM   31  C   UNL     1      43.431 -17.725   6.728  1.00  0.00     0.210 C 
ENDBRANCH  25  30
ENDBRANCH  23  24
ENDBRANCH  21  23
ENDBRANCH  20  21
ENDBRANCH   1  20
TORSDOF 7
ENDMDL
MODEL 5
REMARK VINA RESULT:      -8.2      2.477      3.622
REMARK  7 active torsions:
REMARK  status: ('A' for Active; 'I' for Inactive)
REMARK    1  A    between atoms: C_2  and  C_3 
REMARK    2  A    between atoms: C_2  and  C_20 
REMARK    3  A    between atoms: C_3  and  C_4 
REMARK       I    between atoms: C_4  and  N_5 
REMARK    4  A    between atoms: N_5  and  C_6 
REMARK    5  A    between atoms: C_13  and  C_14 
REMARK       I    between atoms: C_14  and  N_15 
REMARK    6  A    between atoms: C_20  and  C_21 
REMARK    7  A    between atoms: C_22  and  O_23 
ROOT
HETATM    1  C   UNL     1      42.693 -11.795   2.883  1.00  0.00     0.222 C 
HETATM    2  N   UNL     1      42.144 -11.329   1.723  1.00  0.00    -0.327 N 
HETATM    3  O   UNL     1      43.750 -11.273   3.257  1.00  0.00    -0.273 OA
HETATM    4  H   UNL     1      42.796 -10.718   1.245  1.00  0.00     0.169 HD
ENDROOT
BRANCH   2   5
HETATM    5  C   UNL     1      40.912 -11.549   1.085  1.00  0.00     0.035 A 
HETATM    6  C   UNL     1      40.726 -12.439   0.024  1.00  0.00     0.046 A 
HETATM    7  C   UNL     1      39.455 -12.555  -0.580  1.00  0.00     0.030 A 
HETATM    8  C   UNL     1      38.396 -11.824  -0.062  1.00  0.00     0.063 A 
HETATM    9  C   UNL     1      38.905 -13.278  -1.680  1.00  0.00     0.156 A 
HETATM   10  N   UNL     1      37.319 -12.141  -0.842  1.00  0.00    -0.277 N 
HETATM   11  C   UNL     1      38.527 -10.978   1.041  1.00  0.00     0.034 A 
HETATM   12  H   UNL     1      36.372 -11.794  -0.753  1.00  0.00     0.189 HD
HETATM   13  N   UNL     1      37.588 -13.011  -1.832  1.00  0.00    -0.168 NA
HETATM   14  C   UNL     1      39.805 -10.862   1.604  1.00  0.00     0.032 A 
BRANCH   9  15
HETATM   15  C   UNL     1      39.617 -14.187  -2.590  1.00  0.00     0.270 C 
HETATM   16  N   UNL     1      38.954 -15.355  -2.845  1.00  0.00    -0.365 N 
HETATM   17  H   UNL     1      38.043 -15.499  -2.423  1.00  0.00     0.159 HD
HETATM   18  H   UNL     1      39.348 -16.027  -3.484  1.00  0.00     0.159 HD
HETATM   19  O   UNL     1      40.703 -13.944  -3.103  1.00  0.00    -0.266 OA
ENDBRANCH   9  15
ENDBRANCH   2   5
BRANCH   1  20
HETATM   20  C   UNL     1      42.125 -12.999   3.611  1.00  0.00     0.107 C 
BRANCH  20  21
HETATM   21  C   UNL     1      42.881 -14.324   3.387  1.00  0.00    -0.006 C 
HETATM   22  C   UNL     1      43.324 -14.539   1.936  1.00  0.00     0.011 C 
BRANCH  21  23
HETATM   23  C   UNL     1      42.092 -15.555   3.894  1.00  0.00     0.046 C 
BRANCH  23  24
HETATM   24  C   UNL     1      42.774 -16.887   3.615  1.00  0.00    -0.024 A 
HETATM   25  C   UNL     1      43.783 -17.395   4.458  1.00  0.00     0.074 A 
HETATM   26  C   UNL     1      44.408 -18.605   4.136  1.00  0.00     0.037 A 
HETATM   27  C   UNL     1      44.029 -19.322   2.998  1.00  0.00     0.003 A 
HETATM   28  C   UNL     1      43.013 -18.844   2.181  1.00  0.00     0.001 A 
HETATM   29  C   UNL     1      42.383 -17.640   2.493  1.00  0.00     0.010 A 
BRANCH  25  30
HETATM   30  O   UNL     1      44.094 -16.636   5.555  1.00  0.00    -0.355 OA
HETATM   31  C   UNL     1      43.769 -17.159   6.834  1.00  0.00     0.210 C 
ENDBRANCH  25  30
ENDBRANCH  23  24
ENDBRANCH  21  23
ENDBRANCH  20  21
ENDBRANCH   1  20
TORSDOF 7
ENDMDL
MODEL 6
REMARK VINA RESULT:      -8.1      5.492      7.380
REMARK  7 active torsions:
REMARK  status: ('A' for Active; 'I' for Inactive)
REMARK    1  A    between atoms: C_2  and  C_3 
REMARK    2  A    between atoms: C_2  and  C_20 
REMARK    3  A    between atoms: C_3  and  C_4 
REMARK       I    between atoms: C_4  and  N_5 
REMARK    4  A    between atoms: N_5  and  C_6 
REMARK    5  A    between atoms: C_13  and  C_14 
REMARK       I    between atoms: C_14  and  N_15 
REMARK    6  A    between atoms: C_20  and  C_21 
REMARK    7  A    between atoms: C_22  and  O_23 
ROOT
HETATM    1  C   UNL     1      41.065 -12.207   4.392  1.00  0.00     0.222 C 
HETATM    2  N   UNL     1      41.960 -11.218   4.683  1.00  0.00    -0.327 N 
HETATM    3  O   UNL     1      40.405 -12.084   3.354  1.00  0.00    -0.273 OA
HETATM    4  H   UNL     1      41.824 -10.426   4.064  1.00  0.00     0.169 HD
ENDROOT
BRANCH   2   5
HETATM    5  C   UNL     1      42.971 -11.087   5.650  1.00  0.00     0.035 A 
HETATM    6  C   UNL     1      42.762 -10.588   6.939  1.00  0.00     0.046 A 
HETATM    7  C   UNL     1      43.854 -10.454   7.823  1.00  0.00     0.030 A 
HETATM    8  C   UNL     1      45.108 -10.883   7.413  1.00  0.00     0.063 A 
HETATM    9  C   UNL     1      44.048  -9.950   9.143  1.00  0.00     0.156 A 
HETATM   10  N   UNL     1      45.942 -10.629   8.465  1.00  0.00    -0.277 N 
HETATM   11  C   UNL     1      45.342 -11.452   6.159  1.00  0.00     0.034 A 
HETATM   12  H   UNL     1      46.937 -10.816   8.521  1.00  0.00     0.189 HD
HETATM   13  N   UNL     1      45.341 -10.060   9.525  1.00  0.00    -0.168 NA
HETATM   14  C   UNL     1      44.245 -11.549   5.292  1.00  0.00     0.032 A 
BRANCH   9  15
HETATM   15  C   UNL     1      43.034  -9.348  10.022  1.00  0.00     0.270 C 
HETATM   16  N   UNL     1      42.236 -10.257  10.659  1.00  0.00    -0.365 N 
HETATM   17  H   UNL     1      42.405 -11.244  10.505  1.00  0.00     0.159 HD
HETATM   18  H   UNL     1      41.533  -9.940  11.308  1.00  0.00     0.159 HD
HETATM   19  O   UNL     1      42.899  -8.142  10.200  1.00  0.00    -0.266 OA
ENDBRANCH   9  15
ENDBRANCH   2   5
BRANCH   1  20
HETATM   20  C   UNL     1      40.775 -13.334   5.364  1.00  0.00     0.107 C 
BRANCH  20  21
HETATM   21  C   UNL     1      41.167 -14.744   4.878  1.00  0.00    -0.006 C 
HETATM   22  C   UNL     1      40.711 -15.865   5.819  1.00  0.00     0.011 C 
BRANCH  21  23
HETATM   23  C   UNL     1      42.681 -14.875   4.583  1.00  0.00     0.046 C 
BRANCH  23  24
HETATM   24  C   UNL     1      43.101 -16.255   4.098  1.00  0.00    -0.024 A 
HETATM   25  C   UNL     1      43.947 -17.085   4.862  1.00  0.00     0.074 A 
HETATM   26  C   UNL     1      44.337 -18.330   4.353  1.00  0.00     0.037 A 
HETATM   27  C   UNL     1      43.882 -18.764   3.105  1.00  0.00     0.003 A 
HETATM   28  C   UNL     1      43.023 -17.966   2.362  1.00  0.00     0.001 A 
HETATM   29  C   UNL     1      42.627 -16.725   2.859  1.00  0.00     0.010 A 
BRANCH  25  30
HETATM   30  O   UNL     1      44.345 -16.591   6.076  1.00  0.00    -0.355 OA
HETATM   31  C   UNL     1      43.801 -17.189   7.243  1.00  0.00     0.210 C 
ENDBRANCH  25  30
ENDBRANCH  23  24
ENDBRANCH  21  23
ENDBRANCH  20  21
ENDBRANCH   1  20
TORSDOF 7
ENDMDL
MODEL 7
REMARK VINA RESULT:      -8.0      3.268      8.426
REMARK  7 active torsions:
REMARK  status: ('A' for Active; 'I' for Inactive)
REMARK    1  A    between atoms: C_2  and  C_3 
REMARK    2  A    between atoms: C_2  and  C_20 
REMARK    3  A    between atoms: C_3  and  C_4 
REMARK       I    between atoms: C_4  and  N_5 
REMARK    4  A    between atoms: N_5  and  C_6 
REMARK    5  A    between atoms: C_13  and  C_14 
REMARK       I    between atoms: C_14  and  N_15 
REMARK    6  A    between atoms: C_20  and  C_21 
REMARK    7  A    between atoms: C_22  and  O_23 
ROOT
HETATM    1  C   UNL     1      41.557 -12.780   2.878  1.00  0.00     0.222 C 
HETATM    2  N   UNL     1      42.713 -13.483   3.059  1.00  0.00    -0.327 N 
HETATM    3  O   UNL     1      41.659 -11.561   2.704  1.00  0.00    -0.273 OA
HETATM    4  H   UNL     1      43.494 -12.850   3.190  1.00  0.00     0.169 HD
ENDROOT
BRANCH   2   5
HETATM    5  C   UNL     1      43.006 -14.856   3.121  1.00  0.00     0.035 A 
HETATM    6  C   UNL     1      43.080 -15.589   4.310  1.00  0.00     0.046 A 
HETATM    7  C   UNL     1      43.427 -16.957   4.269  1.00  0.00     0.030 A 
HETATM    8  C   UNL     1      43.625 -17.563   3.037  1.00  0.00     0.063 A 
HETATM    9  C   UNL     1      43.655 -17.986   5.230  1.00  0.00     0.156 A 
HETATM   10  N   UNL     1      43.941 -18.863   3.318  1.00  0.00    -0.277 N 
HETATM   11  C   UNL     1      43.491 -16.881   1.826  1.00  0.00     0.034 A 
HETATM   12  H   UNL     1      44.149 -19.602   2.657  1.00  0.00     0.189 HD
HETATM   13  N   UNL     1      43.974 -19.155   4.630  1.00  0.00    -0.168 NA
HETATM   14  C   UNL     1      43.172 -15.518   1.897  1.00  0.00     0.032 A 
BRANCH   9  15
HETATM   15  C   UNL     1      43.598 -17.861   6.694  1.00  0.00     0.270 C 
HETATM   16  N   UNL     1      43.240 -19.012   7.340  1.00  0.00    -0.365 N 
HETATM   17  H   UNL     1      43.066 -19.845   6.788  1.00  0.00     0.159 HD
HETATM   18  H   UNL     1      43.207 -19.033   8.347  1.00  0.00     0.159 HD
HETATM   19  O   UNL     1      43.857 -16.835   7.313  1.00  0.00    -0.266 OA
ENDBRANCH   9  15
ENDBRANCH   2   5
BRANCH   1  20
HETATM   20  C   UNL     1      40.194 -13.429   3.032  1.00  0.00     0.107 C 
BRANCH  20  21
HETATM   21  C   UNL     1      39.682 -14.193   1.795  1.00  0.00    -0.006 C 
HETATM   22  C   UNL     1      39.777 -15.717   1.934  1.00  0.00     0.011 C 
BRANCH  21  23
HETATM   23  C   UNL     1      40.361 -13.732   0.483  1.00  0.00     0.046 C 
BRANCH  23  24
HETATM   24  C   UNL     1      39.425 -13.679  -0.715  1.00  0.00    -0.024 A 
HETATM   25  C   UNL     1      38.573 -12.579  -0.944  1.00  0.00     0.074 A 
HETATM   26  C   UNL     1      37.700 -12.597  -2.039  1.00  0.00     0.037 A 
HETATM   27  C   UNL     1      37.679 -13.685  -2.916  1.00  0.00     0.003 A 
HETATM   28  C   UNL     1      38.538 -14.757  -2.715  1.00  0.00     0.001 A 
HETATM   29  C   UNL     1      39.412 -14.750  -1.628  1.00  0.00     0.010 A 
BRANCH  25  30
HETATM   30  O   UNL     1      38.657 -11.550  -0.044  1.00  0.00    -0.355 OA
HETATM   31  C   UNL     1      37.452 -11.094   0.553  1.00  0.00     0.210 C 
ENDBRANCH  25  30
ENDBRANCH  23  24
ENDBRANCH  21  23
ENDBRANCH  20  21
ENDBRANCH   1  20
TORSDOF 7
ENDMDL
MODEL 8
REMARK VINA RESULT:      -7.8      2.445      2.711
REMARK  7 active torsions:
REMARK  status: ('A' for Active; 'I' for Inactive)
REMARK    1  A    between atoms: C_2  and  C_3 
REMARK    2  A    between atoms: C_2  and  C_20 
REMARK    3  A    between atoms: C_3  and  C_4 
REMARK       I    between atoms: C_4  and  N_5 
REMARK    4  A    between atoms: N_5  and  C_6 
REMARK    5  A    between atoms: C_13  and  C_14 
REMARK       I    between atoms: C_14  and  N_15 
REMARK    6  A    between atoms: C_20  and  C_21 
REMARK    7  A    between atoms: C_22  and  O_23 
ROOT
HETATM    1  C   UNL     1      41.585 -13.247   2.718  1.00  0.00     0.222 C 
HETATM    2  N   UNL     1      41.549 -13.006   1.375  1.00  0.00    -0.327 N 
HETATM    3  O   UNL     1      42.538 -12.778   3.351  1.00  0.00    -0.273 OA
HETATM    4  H   UNL     1      42.426 -12.603   1.066  1.00  0.00     0.169 HD
ENDROOT
BRANCH   2   5
HETATM    5  C   UNL     1      40.578 -13.224   0.383  1.00  0.00     0.035 A 
HETATM    6  C   UNL     1      39.754 -12.223  -0.141  1.00  0.00     0.046 A 
HETATM    7  C   UNL     1      38.777 -12.554  -1.105  1.00  0.00     0.030 A 
HETATM    8  C   UNL     1      38.698 -13.862  -1.561  1.00  0.00     0.063 A 
HETATM    9  C   UNL     1      37.750 -11.854  -1.804  1.00  0.00     0.156 A 
HETATM   10  N   UNL     1      37.677 -13.868  -2.470  1.00  0.00    -0.277 N 
HETATM   11  C   UNL     1      39.549 -14.873  -1.112  1.00  0.00     0.034 A 
HETATM   12  H   UNL     1      37.338 -14.658  -3.007  1.00  0.00     0.189 HD
HETATM   13  N   UNL     1      37.077 -12.677  -2.640  1.00  0.00    -0.168 NA
HETATM   14  C   UNL     1      40.492 -14.523  -0.136  1.00  0.00     0.032 A 
BRANCH   9  15
HETATM   15  C   UNL     1      37.390 -10.435  -1.667  1.00  0.00     0.270 C 
HETATM   16  N   UNL     1      38.345  -9.569  -2.123  1.00  0.00    -0.365 N 
HETATM   17  H   UNL     1      39.192  -9.950  -2.529  1.00  0.00     0.159 HD
HETATM   18  H   UNL     1      38.174  -8.576  -2.102  1.00  0.00     0.159 HD
HETATM   19  O   UNL     1      36.330 -10.030  -1.201  1.00  0.00    -0.266 OA
ENDBRANCH   9  15
ENDBRANCH   2   5
BRANCH   1  20
HETATM   20  C   UNL     1      40.589 -14.172   3.392  1.00  0.00     0.107 C 
BRANCH  20  21
HETATM   21  C   UNL     1      41.063 -15.628   3.582  1.00  0.00    -0.006 C 
HETATM   22  C   UNL     1      40.636 -16.240   4.920  1.00  0.00     0.011 C 
BRANCH  21  23
HETATM   23  C   UNL     1      42.588 -15.791   3.380  1.00  0.00     0.046 C 
BRANCH  23  24
HETATM   24  C   UNL     1      43.056 -17.238   3.330  1.00  0.00    -0.024 A 
HETATM   25  C   UNL     1      43.855 -17.796   4.348  1.00  0.00     0.074 A 
HETATM   26  C   UNL     1      44.293 -19.121   4.236  1.00  0.00     0.037 A 
HETATM   27  C   UNL     1      43.931 -19.900   3.134  1.00  0.00     0.003 A 
HETATM   28  C   UNL     1      43.117 -19.367   2.143  1.00  0.00     0.001 A 
HETATM   29  C   UNL     1      42.674 -18.049   2.245  1.00  0.00     0.010 A 
BRANCH  25  30
HETATM   30  O   UNL     1      44.163 -16.971   5.398  1.00  0.00    -0.355 OA
HETATM   31  C   UNL     1      43.670 -17.322   6.682  1.00  0.00     0.210 C 
ENDBRANCH  25  30
ENDBRANCH  23  24
ENDBRANCH  21  23
ENDBRANCH  20  21
ENDBRANCH   1  20
TORSDOF 7
ENDMDL
MODEL 9
REMARK VINA RESULT:      -7.7      5.860      8.116
REMARK  7 active torsions:
REMARK  status: ('A' for Active; 'I' for Inactive)
REMARK    1  A    between atoms: C_2  and  C_3 
REMARK    2  A    between atoms: C_2  and  C_20 
REMARK    3  A    between atoms: C_3  and  C_4 
REMARK       I    between atoms: C_4  and  N_5 
REMARK    4  A    between atoms: N_5  and  C_6 
REMARK    5  A    between atoms: C_13  and  C_14 
REMARK       I    between atoms: C_14  and  N_15 
REMARK    6  A    between atoms: C_20  and  C_21 
REMARK    7  A    between atoms: C_22  and  O_23 
ROOT
HETATM    1  C   UNL     1      43.199 -12.660   4.530  1.00  0.00     0.222 C 
HETATM    2  N   UNL     1      43.692 -11.475   4.995  1.00  0.00    -0.327 N 
HETATM    3  O   UNL     1      43.074 -12.779   3.306  1.00  0.00    -0.273 OA
HETATM    4  H   UNL     1      43.728 -10.791   4.248  1.00  0.00     0.169 HD
ENDROOT
BRANCH   2   5
HETATM    5  C   UNL     1      44.115 -11.039   6.262  1.00  0.00     0.035 A 
HETATM    6  C   UNL     1      43.274 -10.445   7.208  1.00  0.00     0.046 A 
HETATM    7  C   UNL     1      43.807  -9.999   8.437  1.00  0.00     0.030 A 
HETATM    8  C   UNL     1      45.150 -10.219   8.706  1.00  0.00     0.063 A 
HETATM    9  C   UNL     1      43.303  -9.319   9.585  1.00  0.00     0.156 A 
HETATM   10  N   UNL     1      45.363  -9.686   9.947  1.00  0.00    -0.277 N 
HETATM   11  C   UNL     1      46.005 -10.870   7.816  1.00  0.00     0.034 A 
HETATM   12  H   UNL     1      46.233  -9.667  10.467  1.00  0.00     0.189 HD
HETATM   13  N   UNL     1      44.275  -9.129  10.507  1.00  0.00    -0.168 NA
HETATM   14  C   UNL     1      45.456 -11.279   6.592  1.00  0.00     0.032 A 
BRANCH   9  15
HETATM   15  C   UNL     1      41.933  -8.831   9.799  1.00  0.00     0.270 C 
HETATM   16  N   UNL     1      41.050  -9.798  10.191  1.00  0.00    -0.365 N 
HETATM   17  H   UNL     1      41.392 -10.743  10.324  1.00  0.00     0.159 HD
HETATM   18  H   UNL     1      40.094  -9.552  10.395  1.00  0.00     0.159 HD
HETATM   19  O   UNL     1      41.583  -7.664   9.658  1.00  0.00    -0.266 OA
ENDBRANCH   9  15
ENDBRANCH   2   5
BRANCH   1  20
HETATM   20  C   UNL     1      42.681 -13.735   5.468  1.00  0.00     0.107 C 
BRANCH  20  21
HETATM   21  C   UNL     1      41.235 -14.202   5.205  1.00  0.00    -0.006 C 
HETATM   22  C   UNL     1      40.190 -13.458   6.043  1.00  0.00     0.011 C 
BRANCH  21  23
HETATM   23  C   UNL     1      41.062 -15.731   5.368  1.00  0.00     0.046 C 
BRANCH  23  24
HETATM   24  C   UNL     1      41.996 -16.557   4.496  1.00  0.00    -0.024 A 
HETATM   25  C   UNL     1      41.790 -16.695   3.108  1.00  0.00     0.074 A 
HETATM   26  C   UNL     1      42.654 -17.499   2.356  1.00  0.00     0.037 A 
HETATM   27  C   UNL     1      43.730 -18.151   2.965  1.00  0.00     0.003 A 
HETATM   28  C   UNL     1      43.959 -17.995   4.325  1.00  0.00     0.001 A 
HETATM   29  C   UNL     1      43.105 -17.195   5.084  1.00  0.00     0.010 A 
BRANCH  25  30
HETATM   30  O   UNL     1      40.718 -16.020   2.586  1.00  0.00    -0.355 OA
HETATM   31  C   UNL     1      40.964 -15.104   1.529  1.00  0.00     0.210 C 
ENDBRANCH  25  30
ENDBRANCH  23  24
ENDBRANCH  21  23
ENDBRANCH  20  21
ENDBRANCH   1  20
TORSDOF 7
ENDMDL
MODEL 10
REMARK VINA RESULT:      -7.6      4.565      7.994
REMARK  7 active torsions:
REMARK  status: ('A' for Active; 'I' for Inactive)
REMARK    1  A    between atoms: C_2  and  C_3 
REMARK    2  A    between atoms: C_2  and  C_20 
REMARK    3  A    between atoms: C_3  and  C_4 
REMARK       I    between atoms: C_4  and  N_5 
REMARK    4  A    between atoms: N_5  and  C_6 
REMARK    5  A    between atoms: C_13  and  C_14 
REMARK       I    between atoms: C_14  and  N_15 
REMARK    6  A    between atoms: C_20  and  C_21 
REMARK    7  A    between atoms: C_22  and  O_23 
ROOT
HETATM    1  C   UNL     1      40.094 -12.337   4.872  1.00  0.00     0.222 C 
HETATM    2  N   UNL     1      39.879 -13.680   4.755  1.00  0.00    -0.327 N 
HETATM    3  O   UNL     1      39.374 -11.717   5.663  1.00  0.00    -0.273 OA
HETATM    4  H   UNL     1      39.023 -13.943   5.230  1.00  0.00     0.169 HD
ENDROOT
BRANCH   2   5
HETATM    5  C   UNL     1      40.575 -14.714   4.107  1.00  0.00     0.035 A 
HETATM    6  C   UNL     1      41.487 -15.562   4.742  1.00  0.00     0.046 A 
HETATM    7  C   UNL     1      42.170 -16.544   3.992  1.00  0.00     0.030 A 
HETATM    8  C   UNL     1      41.873 -16.688   2.645  1.00  0.00     0.063 A 
HETATM    9  C   UNL     1      43.178 -17.518   4.256  1.00  0.00     0.156 A 
HETATM   10  N   UNL     1      42.679 -17.699   2.201  1.00  0.00    -0.277 N 
HETATM   11  C   UNL     1      40.918 -15.907   1.992  1.00  0.00     0.034 A 
HETATM   12  H   UNL     1      42.730 -18.077   1.262  1.00  0.00     0.189 HD
HETATM   13  N   UNL     1      43.485 -18.221   3.142  1.00  0.00    -0.168 NA
HETATM   14  C   UNL     1      40.274 -14.922   2.754  1.00  0.00     0.032 A 
BRANCH   9  15
HETATM   15  C   UNL     1      43.861 -17.765   5.535  1.00  0.00     0.270 C 
HETATM   16  N   UNL     1      44.707 -16.762   5.919  1.00  0.00    -0.365 N 
HETATM   17  H   UNL     1      44.785 -15.940   5.332  1.00  0.00     0.159 HD
HETATM   18  H   UNL     1      45.195 -16.826   6.799  1.00  0.00     0.159 HD
HETATM   19  O   UNL     1      43.700 -18.765   6.225  1.00  0.00    -0.266 OA
ENDBRANCH   9  15
ENDBRANCH   2   5
BRANCH   1  20
HETATM   20  C   UNL     1      41.066 -11.601   3.969  1.00  0.00     0.107 C 
BRANCH  20  21
HETATM   21  C   UNL     1      42.549 -11.695   4.378  1.00  0.00    -0.006 C 
HETATM   22  C   UNL     1      43.395 -12.546   3.424  1.00  0.00     0.011 C 
BRANCH  21  23
HETATM   23  C   UNL     1      42.738 -12.178   5.836  1.00  0.00     0.046 C 
BRANCH  23  24
HETATM   24  C   UNL     1      43.715 -11.338   6.646  1.00  0.00    -0.024 A 
HETATM   25  C   UNL     1      43.291 -10.225   7.399  1.00  0.00     0.074 A 
HETATM   26  C   UNL     1      44.235  -9.460   8.095  1.00  0.00     0.037 A 
HETATM   27  C   UNL     1      45.590  -9.801   8.064  1.00  0.00     0.003 A 
HETATM   28  C   UNL     1      46.011 -10.915   7.351  1.00  0.00     0.001 A 
HETATM   29  C   UNL     1      45.079 -11.685   6.655  1.00  0.00     0.010 A 
BRANCH  25  30
HETATM   30  O   UNL     1      41.947  -9.960   7.383  1.00  0.00    -0.355 OA
HETATM   31  C   UNL     1      41.410  -9.203   8.458  1.00  0.00     0.210 C 
ENDBRANCH  25  30
ENDBRANCH  23  24
ENDBRANCH  21  23
ENDBRANCH  20  21
ENDBRANCH   1  20
TORSDOF 7
ENDMDL
