MODEL 1
REMARK VINA RESULT:      -8.3      0.000      0.000
REMARK  4 active torsions:
REMARK  status: ('A' for Active; 'I' for Inactive)
REMARK    1  A    between atoms: C_2  and  C_3 
REMARK    2  A    between atoms: C_6  and  C_7 
REMARK       I    between atoms: C_7  and  N_8 
REMARK    3  A    between atoms: N_8  and  C_9 
REMARK    4  A    between atoms: C_11  and  C_12 
ROOT
HETATM    1  C   UNL     1      42.412 -13.609   5.447  1.00  0.00     0.257 C 
HETATM    2  N   UNL     1      43.372 -14.147   4.607  1.00  0.00    -0.323 N 
HETATM    3  O   UNL     1      41.231 -13.929   5.509  1.00  0.00    -0.267 OA
HETATM    4  H   UNL     1      44.262 -13.670   4.557  1.00  0.00     0.169 HD
ENDROOT
BRANCH   2   5
HETATM    5  C   UNL     1      43.223 -15.240   3.725  1.00  0.00     0.035 A 
HETATM    6  C   UNL     1      43.530 -16.563   4.059  1.00  0.00     0.042 A 
HETATM    7  C   UNL     1      43.361 -17.609   3.133  1.00  0.00    -0.021 A 
HETATM    8  C   UNL     1      42.885 -17.299   1.852  1.00  0.00     0.012 A 
HETATM    9  C   UNL     1      42.585 -15.981   1.505  1.00  0.00     0.003 A 
HETATM   10  C   UNL     1      42.754 -14.958   2.437  1.00  0.00     0.029 A 
BRANCH   7  11
HETATM   11  C   UNL     1      43.677 -18.987   3.482  1.00  0.00     0.010 A 
HETATM   12  C   UNL     1      43.611 -20.177   2.715  1.00  0.00     0.152 A 
HETATM   13  N   UNL     1      43.981 -21.263   3.401  1.00  0.00    -0.187 NA
HETATM   14  N   UNL     1      44.287 -20.775   4.613  1.00  0.00    -0.289 N 
HETATM   15  H   UNL     1      44.604 -21.422   5.327  1.00  0.00     0.188 HD
HETATM   16  C   UNL     1      44.119 -19.425   4.714  1.00  0.00     0.123 A 
ENDBRANCH   7  11
ENDBRANCH   2   5
BRANCH   1  17
HETATM   17  C   UNL     1      42.883 -12.507   6.321  1.00  0.00     0.049 A 
HETATM   18  C   UNL     1      44.018 -12.702   7.093  1.00  0.00     0.134 A 
HETATM   19  N   UNL     1      44.539 -11.764   7.925  1.00  0.00    -0.264 NA
HETATM   20  C   UNL     1      43.913 -10.564   7.992  1.00  0.00     0.037 A 
HETATM   21  C   UNL     1      42.782 -10.277   7.228  1.00  0.00     0.028 A 
HETATM   22  C   UNL     1      42.263 -11.257   6.382  1.00  0.00     0.020 A 
BRANCH  20  23
HETATM   23  C   UNL     1      44.518  -9.498   8.887  1.00  0.00     0.029 C 
HETATM   24  C   UNL     1      45.861  -9.036   8.321  1.00  0.00     0.016 C 
HETATM   25  C   UNL     1      44.676  -9.987  10.329  1.00  0.00     0.016 C 
ENDBRANCH  20  23
ENDBRANCH   1  17
TORSDOF 4
ENDMDL
MODEL 2
REMARK VINA RESULT:      -8.2      4.237      7.143
REMARK  4 active torsions:
REMARK  status: ('A' for Active; 'I' for Inactive)
REMARK    1  A    between atoms: C_2  and  C_3 
REMARK    2  A    between atoms: C_6  and  C_7 
REMARK       I    between atoms: C_7  and  N_8 
REMARK    3  A    between atoms: N_8  and  C_9 
REMARK    4  A    between atoms: C_11  and  C_12 
ROOT
HETATM    1  C   UNL     1      40.703 -14.915   0.811  1.00  0.00     0.257 C 
HETATM    2  N   UNL     1      42.006 -14.871   1.278  1.00  0.00    -0.323 N 
HETATM    3  O   UNL     1      39.817 -15.674   1.183  1.00  0.00    -0.267 OA
HETATM    4  H   UNL     1      42.662 -14.302   0.762  1.00  0.00     0.169 HD
ENDROOT
BRANCH   2   5
HETATM    5  C   UNL     1      42.558 -15.614   2.345  1.00  0.00     0.035 A 
HETATM    6  C   UNL     1      42.836 -16.984   2.283  1.00  0.00     0.042 A 
HETATM    7  C   UNL     1      43.385 -17.668   3.383  1.00  0.00    -0.021 A 
HETATM    8  C   UNL     1      43.642 -16.950   4.559  1.00  0.00     0.012 A 
HETATM    9  C   UNL     1      43.359 -15.586   4.634  1.00  0.00     0.003 A 
HETATM   10  C   UNL     1      42.820 -14.923   3.533  1.00  0.00     0.029 A 
BRANCH   7  11
HETATM   11  C   UNL     1      43.677 -19.094   3.318  1.00  0.00     0.010 A 
HETATM   12  C   UNL     1      43.608 -20.008   2.237  1.00  0.00     0.152 A 
HETATM   13  N   UNL     1      43.952 -21.253   2.581  1.00  0.00    -0.187 NA
HETATM   14  N   UNL     1      44.245 -21.144   3.886  1.00  0.00    -0.289 N 
HETATM   15  H   UNL     1      44.542 -21.976   4.385  1.00  0.00     0.188 HD
HETATM   16  C   UNL     1      44.094 -19.879   4.375  1.00  0.00     0.123 A 
ENDBRANCH   7  11
ENDBRANCH   2   5
BRANCH   1  17
HETATM   17  C   UNL     1      40.390 -13.959  -0.280  1.00  0.00     0.049 A 
HETATM   18  C   UNL     1      40.865 -12.659  -0.188  1.00  0.00     0.134 A 
HETATM   19  N   UNL     1      40.642 -11.703  -1.125  1.00  0.00    -0.264 NA
HETATM   20  C   UNL     1      39.921 -12.050  -2.219  1.00  0.00     0.037 A 
HETATM   21  C   UNL     1      39.431 -13.343  -2.402  1.00  0.00     0.028 A 
HETATM   22  C   UNL     1      39.670 -14.308  -1.423  1.00  0.00     0.020 A 
BRANCH  20  23
HETATM   23  C   UNL     1      39.708 -10.996  -3.291  1.00  0.00     0.029 C 
HETATM   24  C   UNL     1      40.748  -9.885  -3.150  1.00  0.00     0.016 C 
HETATM   25  C   UNL     1      38.291 -10.421  -3.250  1.00  0.00     0.016 C 
ENDBRANCH  20  23
ENDBRANCH   1  17
TORSDOF 4
ENDMDL
MODEL 3
REMARK VINA RESULT:      -8.0      1.675      8.696
REMARK  4 active torsions:
REMARK  status: ('A' for Active; 'I' for Inactive)
REMARK    1  A    between atoms: C_2  and  C_3 
REMARK    2  A    between atoms: C_6  and  C_7 
REMARK       I    between atoms: C_7  and  N_8 
REMARK    3  A    between atoms: N_8  and  C_9 
REMARK    4  A    between atoms: C_11  and  C_12 
ROOT
HETATM    1  C   UNL     1      42.909 -14.360   3.941  1.00  0.00     0.257 C 
HETATM    2  N   UNL     1      42.706 -14.058   5.277  1.00  0.00    -0.323 N 
HETATM    3  O   UNL     1      42.838 -13.583   2.996  1.00  0.00    -0.267 OA
HETATM    4  H   UNL     1      42.640 -14.834   5.921  1.00  0.00     0.169 HD
ENDROOT
BRANCH   2   5
HETATM    5  C   UNL     1      42.479 -12.783   5.842  1.00  0.00     0.035 A 
HETATM    6  C   UNL     1      43.484 -11.983   6.395  1.00  0.00     0.042 A 
HETATM    7  C   UNL     1      43.192 -10.721   6.946  1.00  0.00    -0.021 A 
HETATM    8  C   UNL     1      41.862 -10.279   6.940  1.00  0.00     0.012 A 
HETATM    9  C   UNL     1      40.851 -11.073   6.400  1.00  0.00     0.003 A 
HETATM   10  C   UNL     1      41.159 -12.319   5.855  1.00  0.00     0.029 A 
BRANCH   7  11
HETATM   11  C   UNL     1      44.238  -9.885   7.520  1.00  0.00     0.010 A 
HETATM   12  C   UNL     1      44.176  -8.605   8.126  1.00  0.00     0.152 A 
HETATM   13  N   UNL     1      45.370  -8.157   8.526  1.00  0.00    -0.187 NA
HETATM   14  N   UNL     1      46.206  -9.148   8.178  1.00  0.00    -0.289 N 
HETATM   15  H   UNL     1      47.193  -9.040   8.383  1.00  0.00     0.188 HD
HETATM   16  C   UNL     1      45.581 -10.199   7.571  1.00  0.00     0.123 A 
ENDBRANCH   7  11
ENDBRANCH   2   5
BRANCH   1  17
HETATM   17  C   UNL     1      43.201 -15.785   3.653  1.00  0.00     0.049 A 
HETATM   18  C   UNL     1      43.784 -16.563   4.642  1.00  0.00     0.134 A 
HETATM   19  N   UNL     1      44.093 -17.876   4.489  1.00  0.00    -0.264 NA
HETATM   20  C   UNL     1      43.802 -18.458   3.300  1.00  0.00     0.037 A 
HETATM   21  C   UNL     1      43.189 -17.754   2.264  1.00  0.00     0.028 A 
HETATM   22  C   UNL     1      42.884 -16.404   2.442  1.00  0.00     0.020 A 
BRANCH  20  23
HETATM   23  C   UNL     1      44.104 -19.937   3.141  1.00  0.00     0.029 C 
HETATM   24  C   UNL     1      43.414 -20.484   1.891  1.00  0.00     0.016 C 
HETATM   25  C   UNL     1      43.695 -20.737   4.380  1.00  0.00     0.016 C 
ENDBRANCH  20  23
ENDBRANCH   1  17
TORSDOF 4
ENDMDL
MODEL 4
REMARK VINA RESULT:      -7.9      4.160      7.419
REMARK  4 active torsions:
REMARK  status: ('A' for Active; 'I' for Inactive)
REMARK    1  A    between atoms: C_2  and  C_3 
REMARK    2  A    between atoms: C_6  and  C_7 
REMARK       I    between atoms: C_7  and  N_8 
REMARK    3  A    between atoms: N_8  and  C_9 
REMARK    4  A    between atoms: C_11  and  C_12 
ROOT
HETATM    1  C   UNL     1      40.689 -15.319   1.201  1.00  0.00     0.257 C 
HETATM    2  N   UNL     1      42.026 -15.448   1.540  1.00  0.00    -0.323 N 
HETATM    3  O   UNL     1      39.751 -15.953   1.669  1.00  0.00    -0.267 OA
HETATM    4  H   UNL     1      42.699 -14.972   0.955  1.00  0.00     0.169 HD
ENDROOT
BRANCH   2   5
HETATM    5  C   UNL     1      42.577 -16.255   2.560  1.00  0.00     0.035 A 
HETATM    6  C   UNL     1      42.632 -15.884   3.907  1.00  0.00     0.042 A 
HETATM    7  C   UNL     1      43.197 -16.734   4.877  1.00  0.00    -0.021 A 
HETATM    8  C   UNL     1      43.718 -17.967   4.464  1.00  0.00     0.012 A 
HETATM    9  C   UNL     1      43.677 -18.343   3.121  1.00  0.00     0.003 A 
HETATM   10  C   UNL     1      43.109 -17.491   2.175  1.00  0.00     0.029 A 
BRANCH   7  11
HETATM   11  C   UNL     1      43.252 -16.349   6.281  1.00  0.00     0.010 A 
HETATM   12  C   UNL     1      42.909 -15.134   6.925  1.00  0.00     0.152 A 
HETATM   13  N   UNL     1      43.112 -15.166   8.245  1.00  0.00    -0.187 NA
HETATM   14  N   UNL     1      43.586 -16.404   8.456  1.00  0.00    -0.289 N 
HETATM   15  H   UNL     1      43.819 -16.676   9.405  1.00  0.00     0.188 HD
HETATM   16  C   UNL     1      43.692 -17.148   7.317  1.00  0.00     0.123 A 
ENDBRANCH   7  11
ENDBRANCH   2   5
BRANCH   1  17
HETATM   17  C   UNL     1      40.401 -14.332   0.132  1.00  0.00     0.049 A 
HETATM   18  C   UNL     1      41.027 -13.095   0.175  1.00  0.00     0.134 A 
HETATM   19  N   UNL     1      40.839 -12.119  -0.749  1.00  0.00    -0.264 NA
HETATM   20  C   UNL     1      39.997 -12.379  -1.778  1.00  0.00     0.037 A 
HETATM   21  C   UNL     1      39.350 -13.607  -1.911  1.00  0.00     0.028 A 
HETATM   22  C   UNL     1      39.556 -14.595  -0.947  1.00  0.00     0.020 A 
BRANCH  20  23
HETATM   23  C   UNL     1      39.820 -11.307  -2.838  1.00  0.00     0.029 C 
HETATM   24  C   UNL     1      40.820 -10.173  -2.612  1.00  0.00     0.016 C 
HETATM   25  C   UNL     1      38.388 -10.768  -2.870  1.00  0.00     0.016 C 
ENDBRANCH  20  23
ENDBRANCH   1  17
TORSDOF 4
ENDMDL
MODEL 5
REMARK VINA RESULT:      -7.8      2.268      9.314
REMARK  4 active torsions:
REMARK  status: ('A' for Active; 'I' for Inactive)
REMARK    1  A    between atoms: C_2  and  C_3 
REMARK    2  A    between atoms: C_6  and  C_7 
REMARK       I    between atoms: C_7  and  N_8 
REMARK    3  A    between atoms: N_8  and  C_9 
REMARK    4  A    between atoms: C_11  and  C_12 
ROOT
HETATM    1  C   UNL     1      43.379 -12.702   6.430  1.00  0.00     0.257 C 
HETATM    2  N   UNL     1      44.478 -12.420   7.224  1.00  0.00    -0.323 N 
HETATM    3  O   UNL     1      42.419 -11.970   6.223  1.00  0.00    -0.267 OA
HETATM    4  H   UNL     1      45.109 -13.183   7.427  1.00  0.00     0.169 HD
ENDROOT
BRANCH   2   5
HETATM    5  C   UNL     1      44.775 -11.202   7.874  1.00  0.00     0.035 A 
HETATM    6  C   UNL     1      44.051 -10.698   8.959  1.00  0.00     0.042 A 
HETATM    7  C   UNL     1      44.396  -9.474   9.563  1.00  0.00    -0.021 A 
HETATM    8  C   UNL     1      45.483  -8.756   9.048  1.00  0.00     0.012 A 
HETATM    9  C   UNL     1      46.206  -9.245   7.960  1.00  0.00     0.003 A 
HETATM   10  C   UNL     1      45.852 -10.461   7.376  1.00  0.00     0.029 A 
BRANCH   7  11
HETATM   11  C   UNL     1      43.644  -8.950  10.695  1.00  0.00     0.010 A 
HETATM   12  C   UNL     1      43.098  -7.664  10.932  1.00  0.00     0.152 A 
HETATM   13  N   UNL     1      42.475  -7.568  12.111  1.00  0.00    -0.187 NA
HETATM   14  N   UNL     1      42.617  -8.794  12.637  1.00  0.00    -0.289 N 
HETATM   15  H   UNL     1      42.217  -8.976  13.551  1.00  0.00     0.188 HD
HETATM   16  C   UNL     1      43.310  -9.654  11.835  1.00  0.00     0.123 A 
ENDBRANCH   7  11
ENDBRANCH   2   5
BRANCH   1  17
HETATM   17  C   UNL     1      43.374 -14.051   5.813  1.00  0.00     0.049 A 
HETATM   18  C   UNL     1      42.835 -14.206   4.545  1.00  0.00     0.134 A 
HETATM   19  N   UNL     1      42.780 -15.391   3.885  1.00  0.00    -0.264 NA
HETATM   20  C   UNL     1      43.294 -16.481   4.504  1.00  0.00     0.037 A 
HETATM   21  C   UNL     1      43.880 -16.406   5.767  1.00  0.00     0.028 A 
HETATM   22  C   UNL     1      43.922 -15.178   6.428  1.00  0.00     0.020 A 
BRANCH  20  23
HETATM   23  C   UNL     1      43.276 -17.799   3.751  1.00  0.00     0.029 C 
HETATM   24  C   UNL     1      44.487 -18.645   4.141  1.00  0.00     0.016 C 
HETATM   25  C   UNL     1      43.227 -17.588   2.236  1.00  0.00     0.016 C 
ENDBRANCH  20  23
ENDBRANCH   1  17
TORSDOF 4
ENDMDL
MODEL 6
REMARK VINA RESULT:      -7.5      4.483      7.471
REMARK  4 active torsions:
REMARK  status: ('A' for Active; 'I' for Inactive)
REMARK    1  A    between atoms: C_2  and  C_3 
REMARK    2  A    between atoms: C_6  and  C_7 
REMARK       I    between atoms: C_7  and  N_8 
REMARK    3  A    between atoms: N_8  and  C_9 
REMARK    4  A    between atoms: C_11  and  C_12 
ROOT
HETATM    1  C   UNL     1      43.656 -10.346  11.024  1.00  0.00     0.257 C 
HETATM    2  N   UNL     1      43.811  -9.709   9.805  1.00  0.00    -0.323 N 
HETATM    3  O   UNL     1      43.950 -11.507  11.286  1.00  0.00    -0.267 OA
HETATM    4  H   UNL     1      43.375  -8.803   9.699  1.00  0.00     0.169 HD
ENDROOT
BRANCH   2   5
HETATM    5  C   UNL     1      44.429 -10.221   8.643  1.00  0.00     0.035 A 
HETATM    6  C   UNL     1      43.733 -10.805   7.580  1.00  0.00     0.042 A 
HETATM    7  C   UNL     1      44.409 -11.301   6.449  1.00  0.00    -0.021 A 
HETATM    8  C   UNL     1      45.806 -11.207   6.409  1.00  0.00     0.012 A 
HETATM    9  C   UNL     1      46.511 -10.635   7.468  1.00  0.00     0.003 A 
HETATM   10  C   UNL     1      45.825 -10.146   8.579  1.00  0.00     0.029 A 
BRANCH   7  11
HETATM   11  C   UNL     1      43.684 -11.907   5.340  1.00  0.00     0.010 A 
HETATM   12  C   UNL     1      43.656 -11.581   3.961  1.00  0.00     0.152 A 
HETATM   13  N   UNL     1      42.850 -12.376   3.251  1.00  0.00    -0.187 NA
HETATM   14  N   UNL     1      42.357 -13.219   4.172  1.00  0.00    -0.289 N 
HETATM   15  H   UNL     1      41.705 -13.935   3.870  1.00  0.00     0.188 HD
HETATM   16  C   UNL     1      42.820 -12.978   5.433  1.00  0.00     0.123 A 
ENDBRANCH   7  11
ENDBRANCH   2   5
BRANCH   1  17
HETATM   17  C   UNL     1      43.032  -9.527  12.092  1.00  0.00     0.049 A 
HETATM   18  C   UNL     1      41.934 -10.033  12.771  1.00  0.00     0.134 A 
HETATM   19  N   UNL     1      41.287  -9.372  13.764  1.00  0.00    -0.264 NA
HETATM   20  C   UNL     1      41.754  -8.149  14.116  1.00  0.00     0.037 A 
HETATM   21  C   UNL     1      42.870  -7.580  13.503  1.00  0.00     0.028 A 
HETATM   22  C   UNL     1      43.517  -8.277  12.482  1.00  0.00     0.020 A 
BRANCH  20  23
HETATM   23  C   UNL     1      41.061  -7.427  15.257  1.00  0.00     0.029 C 
HETATM   24  C   UNL     1      40.068  -6.404  14.706  1.00  0.00     0.016 C 
HETATM   25  C   UNL     1      42.064  -6.757  16.199  1.00  0.00     0.016 C 
ENDBRANCH  20  23
ENDBRANCH   1  17
TORSDOF 4
ENDMDL
MODEL 7
REMARK VINA RESULT:      -7.4      3.177      4.867
REMARK  4 active torsions:
REMARK  status: ('A' for Active; 'I' for Inactive)
REMARK    1  A    between atoms: C_2  and  C_3 
REMARK    2  A    between atoms: C_6  and  C_7 
REMARK       I    between atoms: C_7  and  N_8 
REMARK    3  A    between atoms: N_8  and  C_9 
REMARK    4  A    between atoms: C_11  and  C_12 
ROOT
HETATM    1  C   UNL     1      43.849 -11.929   4.547  1.00  0.00     0.257 C 
HETATM    2  N   UNL     1      43.130 -13.113   4.570  1.00  0.00    -0.323 N 
HETATM    3  O   UNL     1      44.309 -11.371   3.558  1.00  0.00    -0.267 OA
HETATM    4  H   UNL     1      42.957 -13.530   5.474  1.00  0.00     0.169 HD
ENDROOT
BRANCH   2   5
HETATM    5  C   UNL     1      42.688 -13.867   3.461  1.00  0.00     0.035 A 
HETATM    6  C   UNL     1      41.711 -13.434   2.559  1.00  0.00     0.042 A 
HETATM    7  C   UNL     1      41.311 -14.235   1.473  1.00  0.00    -0.021 A 
HETATM    8  C   UNL     1      41.908 -15.493   1.314  1.00  0.00     0.012 A 
HETATM    9  C   UNL     1      42.876 -15.939   2.213  1.00  0.00     0.003 A 
HETATM   10  C   UNL     1      43.263 -15.130   3.281  1.00  0.00     0.029 A 
BRANCH   7  11
HETATM   11  C   UNL     1      40.296 -13.783   0.531  1.00  0.00     0.010 A 
HETATM   12  C   UNL     1      39.599 -12.553   0.437  1.00  0.00     0.152 A 
HETATM   13  N   UNL     1      38.724 -12.522  -0.573  1.00  0.00    -0.187 NA
HETATM   14  N   UNL     1      38.856 -13.734  -1.133  1.00  0.00    -0.289 N 
HETATM   15  H   UNL     1      38.282 -13.957  -1.940  1.00  0.00     0.188 HD
HETATM   16  C   UNL     1      39.776 -14.526  -0.510  1.00  0.00     0.123 A 
ENDBRANCH   7  11
ENDBRANCH   2   5
BRANCH   1  17
HETATM   17  C   UNL     1      44.106 -11.320   5.875  1.00  0.00     0.049 A 
HETATM   18  C   UNL     1      43.054 -10.721   6.552  1.00  0.00     0.134 A 
HETATM   19  N   UNL     1      43.174 -10.136   7.770  1.00  0.00    -0.264 NA
HETATM   20  C   UNL     1      44.394 -10.151   8.360  1.00  0.00     0.037 A 
HETATM   21  C   UNL     1      45.496 -10.758   7.760  1.00  0.00     0.028 A 
HETATM   22  C   UNL     1      45.351 -11.351   6.505  1.00  0.00     0.020 A 
BRANCH  20  23
HETATM   23  C   UNL     1      44.521  -9.538   9.743  1.00  0.00     0.029 C 
HETATM   24  C   UNL     1      44.044 -10.530  10.804  1.00  0.00     0.016 C 
HETATM   25  C   UNL     1      43.756  -8.217   9.853  1.00  0.00     0.016 C 
ENDBRANCH  20  23
ENDBRANCH   1  17
TORSDOF 4
ENDMDL
MODEL 8
REMARK VINA RESULT:      -7.3      4.418      6.556
REMARK  4 active torsions:
REMARK  status: ('A' for Active; 'I' for Inactive)
REMARK    1  A    between atoms: C_2  and  C_3 
REMARK    2  A    between atoms: C_6  and  C_7 
REMARK       I    between atoms: C_7  and  N_8 
REMARK    3  A    between atoms: N_8  and  C_9 
REMARK    4  A    between atoms: C_11  and  C_12 
ROOT
HETATM    1  C   UNL     1      41.294 -13.363   1.374  1.00  0.00     0.257 C 
HETATM    2  N   UNL     1      42.492 -14.051   1.475  1.00  0.00    -0.323 N 
HETATM    3  O   UNL     1      40.223 -13.682   1.876  1.00  0.00    -0.267 OA
HETATM    4  H   UNL     1      43.248 -13.752   0.874  1.00  0.00     0.169 HD
ENDROOT
BRANCH   2   5
HETATM    5  C   UNL     1      42.758 -15.198   2.254  1.00  0.00     0.035 A 
HETATM    6  C   UNL     1      42.865 -15.189   3.649  1.00  0.00     0.042 A 
HETATM    7  C   UNL     1      43.134 -16.368   4.368  1.00  0.00    -0.021 A 
HETATM    8  C   UNL     1      43.306 -17.563   3.657  1.00  0.00     0.012 A 
HETATM    9  C   UNL     1      43.212 -17.582   2.265  1.00  0.00     0.003 A 
HETATM   10  C   UNL     1      42.940 -16.405   1.569  1.00  0.00     0.029 A 
BRANCH   7  11
HETATM   11  C   UNL     1      43.242 -16.360   5.821  1.00  0.00     0.010 A 
HETATM   12  C   UNL     1      44.264 -16.840   6.679  1.00  0.00     0.152 A 
HETATM   13  N   UNL     1      43.989 -16.656   7.974  1.00  0.00    -0.187 NA
HETATM   14  N   UNL     1      42.789 -16.056   7.954  1.00  0.00    -0.289 N 
HETATM   15  H   UNL     1      42.359 -15.808   8.839  1.00  0.00     0.188 HD
HETATM   16  C   UNL     1      42.298 -15.861   6.696  1.00  0.00     0.123 A 
ENDBRANCH   7  11
ENDBRANCH   2   5
BRANCH   1  17
HETATM   17  C   UNL     1      41.335 -12.142   0.534  1.00  0.00     0.049 A 
HETATM   18  C   UNL     1      41.720 -10.942   1.115  1.00  0.00     0.134 A 
HETATM   19  N   UNL     1      41.795  -9.765   0.442  1.00  0.00    -0.264 NA
HETATM   20  C   UNL     1      41.485  -9.772  -0.877  1.00  0.00     0.037 A 
HETATM   21  C   UNL     1      41.116 -10.941  -1.543  1.00  0.00     0.028 A 
HETATM   22  C   UNL     1      41.042 -12.138  -0.831  1.00  0.00     0.020 A 
BRANCH  20  23
HETATM   23  C   UNL     1      41.611  -8.468  -1.643  1.00  0.00     0.029 C 
HETATM   24  C   UNL     1      41.107  -8.647  -3.075  1.00  0.00     0.016 C 
HETATM   25  C   UNL     1      43.048  -7.941  -1.636  1.00  0.00     0.016 C 
ENDBRANCH  20  23
ENDBRANCH   1  17
TORSDOF 4
ENDMDL
MODEL 9
REMARK VINA RESULT:      -7.2      4.737      8.588
REMARK  4 active torsions:
REMARK  status: ('A' for Active; 'I' for Inactive)
REMARK    1  A    between atoms: C_2  and  C_3 
REMARK    2  A    between atoms: C_6  and  C_7 
REMARK       I    between atoms: C_7  and  N_8 
REMARK    3  A    between atoms: N_8  and  C_9 
REMARK    4  A    between atoms: C_11  and  C_12 
ROOT
HETATM    1  C   UNL     1      42.264 -15.095   2.014  1.00  0.00     0.257 C 
HETATM    2  N   UNL     1      41.005 -15.253   1.460  1.00  0.00    -0.323 N 
HETATM    3  O   UNL     1      43.003 -14.126   1.887  1.00  0.00    -0.267 OA
HETATM    4  H   UNL     1      40.586 -16.171   1.521  1.00  0.00     0.169 HD
ENDROOT
BRANCH   2   5
HETATM    5  C   UNL     1      40.268 -14.301   0.723  1.00  0.00     0.035 A 
HETATM    6  C   UNL     1      39.699 -13.150   1.281  1.00  0.00     0.042 A 
HETATM    7  C   UNL     1      38.972 -12.239   0.492  1.00  0.00    -0.021 A 
HETATM    8  C   UNL     1      38.817 -12.510  -0.874  1.00  0.00     0.012 A 
HETATM    9  C   UNL     1      39.372 -13.659  -1.438  1.00  0.00     0.003 A 
HETATM   10  C   UNL     1      40.092 -14.549  -0.642  1.00  0.00     0.029 A 
BRANCH   7  11
HETATM   11  C   UNL     1      38.382 -11.039   1.071  1.00  0.00     0.010 A 
HETATM   12  C   UNL     1      38.985  -9.887   1.633  1.00  0.00     0.152 A 
HETATM   13  N   UNL     1      38.095  -8.992   2.073  1.00  0.00    -0.187 NA
HETATM   14  N   UNL     1      36.914  -9.567   1.795  1.00  0.00    -0.289 N 
HETATM   15  H   UNL     1      36.066  -9.068   2.041  1.00  0.00     0.188 HD
HETATM   16  C   UNL     1      37.031 -10.790   1.201  1.00  0.00     0.123 A 
ENDBRANCH   7  11
ENDBRANCH   2   5
BRANCH   1  17
HETATM   17  C   UNL     1      42.756 -16.249   2.805  1.00  0.00     0.049 A 
HETATM   18  C   UNL     1      42.938 -17.469   2.169  1.00  0.00     0.134 A 
HETATM   19  N   UNL     1      43.385 -18.588   2.793  1.00  0.00    -0.264 NA
HETATM   20  C   UNL     1      43.679 -18.500   4.113  1.00  0.00     0.037 A 
HETATM   21  C   UNL     1      43.552 -17.305   4.820  1.00  0.00     0.028 A 
HETATM   22  C   UNL     1      43.087 -16.167   4.159  1.00  0.00     0.020 A 
BRANCH  20  23
HETATM   23  C   UNL     1      44.222 -19.738   4.803  1.00  0.00     0.029 C 
HETATM   24  C   UNL     1      43.971 -20.975   3.939  1.00  0.00     0.016 C 
HETATM   25  C   UNL     1      43.623 -19.921   6.199  1.00  0.00     0.016 C 
ENDBRANCH  20  23
ENDBRANCH   1  17
TORSDOF 4
ENDMDL
MODEL 10
REMARK VINA RESULT:      -6.8      5.363      8.863
REMARK  4 active torsions:
REMARK  status: ('A' for Active; 'I' for Inactive)
REMARK    1  A    between atoms: C_2  and  C_3 
REMARK    2  A    between atoms: C_6  and  C_7 
REMARK       I    between atoms: C_7  and  N_8 
REMARK    3  A    between atoms: N_8  and  C_9 
REMARK    4  A    between atoms: C_11  and  C_12 
ROOT
HETATM    1  C   UNL     1      41.190 -14.217   1.139  1.00  0.00     0.257 C 
HETATM    2  N   UNL     1      40.452 -14.844   0.149  1.00  0.00    -0.323 N 
HETATM    3  O   UNL     1      41.279 -13.010   1.333  1.00  0.00    -0.267 OA
HETATM    4  H   UNL     1      40.607 -15.834   0.016  1.00  0.00     0.169 HD
ENDROOT
BRANCH   2   5
HETATM    5  C   UNL     1      39.573 -14.240  -0.776  1.00  0.00     0.035 A 
HETATM    6  C   UNL     1      39.034 -12.958  -0.621  1.00  0.00     0.042 A 
HETATM    7  C   UNL     1      38.159 -12.412  -1.579  1.00  0.00    -0.021 A 
HETATM    8  C   UNL     1      37.825 -13.185  -2.698  1.00  0.00     0.012 A 
HETATM    9  C   UNL     1      38.349 -14.468  -2.858  1.00  0.00     0.003 A 
HETATM   10  C   UNL     1      39.218 -14.992  -1.901  1.00  0.00     0.029 A 
BRANCH   7  11
HETATM   11  C   UNL     1      37.600 -11.076  -1.419  1.00  0.00     0.010 A 
HETATM   12  C   UNL     1      36.979 -10.457  -0.306  1.00  0.00     0.152 A 
HETATM   13  N   UNL     1      36.583  -9.205  -0.557  1.00  0.00    -0.187 NA
HETATM   14  N   UNL     1      36.949  -9.014  -1.834  1.00  0.00    -0.289 N 
HETATM   15  H   UNL     1      36.752  -8.117  -2.263  1.00  0.00     0.188 HD
HETATM   16  C   UNL     1      37.556 -10.101  -2.394  1.00  0.00     0.123 A 
ENDBRANCH   7  11
ENDBRANCH   2   5
BRANCH   1  17
HETATM   17  C   UNL     1      41.971 -15.123   2.015  1.00  0.00     0.049 A 
HETATM   18  C   UNL     1      41.831 -15.012   3.391  1.00  0.00     0.134 A 
HETATM   19  N   UNL     1      42.494 -15.789   4.285  1.00  0.00    -0.264 NA
HETATM   20  C   UNL     1      43.333 -16.735   3.797  1.00  0.00     0.037 A 
HETATM   21  C   UNL     1      43.509 -16.932   2.428  1.00  0.00     0.028 A 
HETATM   22  C   UNL     1      42.819 -16.119   1.528  1.00  0.00     0.020 A 
BRANCH  20  23
HETATM   23  C   UNL     1      44.041 -17.636   4.793  1.00  0.00     0.029 C 
HETATM   24  C   UNL     1      44.332 -18.996   4.158  1.00  0.00     0.016 C 
HETATM   25  C   UNL     1      43.235 -17.802   6.083  1.00  0.00     0.016 C 
ENDBRANCH  20  23
ENDBRANCH   1  17
TORSDOF 4
ENDMDL
