MODEL 1
REMARK VINA RESULT:      -8.9      0.000      0.000
REMARK  7 active torsions:
REMARK  status: ('A' for Active; 'I' for Inactive)
REMARK    1  A    between atoms: O_2  and  C_3 
REMARK    2  A    between atoms: C_5  and  C_6 
REMARK    3  A    between atoms: C_6  and  N_7 
REMARK    4  A    between atoms: C_6  and  C_13 
REMARK    5  A    between atoms: C_13  and  N_14 
REMARK       I    between atoms: N_14  and  C_15 
REMARK       I    between atoms: C_15  and  N_16 
REMARK    6  A    between atoms: N_16  and  C_17 
REMARK    7  A    between atoms: C_18  and  O_19 
ROOT
HETATM    1  N   UNL     1      40.579 -15.930   2.231  1.00  0.00    -0.341 N 
HETATM    2  C   UNL     1      41.870 -16.344   2.376  1.00  0.00     0.316 C 
HETATM    3  N   UNL     1      42.211 -16.579   3.668  1.00  0.00    -0.332 N 
HETATM    4  O   UNL     1      42.624 -16.491   1.418  1.00  0.00    -0.247 OA
HETATM    5  H   UNL     1      40.081 -15.748   3.093  1.00  0.00     0.164 HD
HETATM    6  H   UNL     1      41.650 -16.157   4.393  1.00  0.00     0.165 HD
ENDROOT
BRANCH   1   7
HETATM    7  C   UNL     1      40.087 -15.242   1.040  1.00  0.00     0.162 C 
BRANCH   7   8
HETATM    8  C   UNL     1      40.187 -13.679   1.044  1.00  0.00     0.238 C 
BRANCH   8   9
HETATM    9  C   UNL     1      40.350 -13.094  -0.350  1.00  0.00    -0.023 A 
HETATM   10  C   UNL     1      39.688 -13.693  -1.436  1.00  0.00     0.046 A 
HETATM   11  C   UNL     1      39.836 -13.213  -2.742  1.00  0.00     0.068 A 
HETATM   12  C   UNL     1      40.646 -12.105  -2.975  1.00  0.00     0.037 A 
HETATM   13  C   UNL     1      41.303 -11.487  -1.910  1.00  0.00     0.003 A 
HETATM   14  C   UNL     1      41.160 -11.975  -0.611  1.00  0.00     0.009 A 
BRANCH  11  15
HETATM   15  O   UNL     1      39.142 -13.917  -3.686  1.00  0.00    -0.356 OA
HETATM   16  C   UNL     1      38.348 -15.006  -3.223  1.00  0.00     0.210 C 
ENDBRANCH  11  15
ENDBRANCH   8   9
BRANCH   8  17
HETATM   17  N   UNL     1      39.043 -13.059   1.846  1.00  0.00    -0.061 N 
HETATM   18  H   UNL     1      38.282 -13.765   1.783  1.00  0.00     0.280 HD
HETATM   19  C   UNL     1      38.435 -11.781   1.350  1.00  0.00     0.236 C 
HETATM   20  C   UNL     1      39.091 -10.700   2.180  1.00  0.00     0.029 C 
HETATM   21  C   UNL     1      39.387 -11.350   3.520  1.00  0.00     0.029 C 
HETATM   22  C   UNL     1      39.309 -12.854   3.311  1.00  0.00     0.236 C 
ENDBRANCH   8  17
ENDBRANCH   7   8
ENDBRANCH   1   7
BRANCH   3  23
HETATM   23  C   UNL     1      43.580 -16.893   4.056  1.00  0.00     0.149 C 
HETATM   24  C   UNL     1      43.959 -16.433   5.505  1.00  0.00     0.149 C 
HETATM   25  C   UNL     1      43.567 -17.593   6.439  1.00  0.00     0.073 C 
HETATM   26  C   UNL     1      43.722 -18.773   5.531  1.00  0.00    -0.047 A 
HETATM   27  C   UNL     1      43.746 -18.381   4.185  1.00  0.00    -0.026 A 
HETATM   28  C   UNL     1      43.797 -20.108   5.889  1.00  0.00     0.008 A 
HETATM   29  C   UNL     1      43.854 -19.320   3.172  1.00  0.00     0.010 A 
HETATM   30  C   UNL     1      43.945 -20.668   3.525  1.00  0.00     0.001 A 
HETATM   31  C   UNL     1      43.915 -21.059   4.873  1.00  0.00     0.001 A 
BRANCH  24  32
HETATM   32  O   UNL     1      43.333 -15.220   5.915  1.00  0.00    -0.393 OA
HETATM   33  H   UNL     1      43.409 -15.191   6.888  1.00  0.00     0.210 HD
ENDBRANCH  24  32
ENDBRANCH   3  23
TORSDOF 7
ENDMDL
MODEL 2
REMARK VINA RESULT:      -8.8      1.985      8.202
REMARK  7 active torsions:
REMARK  status: ('A' for Active; 'I' for Inactive)
REMARK    1  A    between atoms: O_2  and  C_3 
REMARK    2  A    between atoms: C_5  and  C_6 
REMARK    3  A    between atoms: C_6  and  N_7 
REMARK    4  A    between atoms: C_6  and  C_13 
REMARK    5  A    between atoms: C_13  and  N_14 
REMARK       I    between atoms: N_14  and  C_15 
REMARK       I    between atoms: C_15  and  N_16 
REMARK    6  A    between atoms: N_16  and  C_17 
REMARK    7  A    between atoms: C_18  and  O_19 
ROOT
HETATM    1  N   UNL     1      39.539 -15.167   1.933  1.00  0.00    -0.341 N 
HETATM    2  C   UNL     1      40.262 -14.950   0.798  1.00  0.00     0.316 C 
HETATM    3  N   UNL     1      39.528 -14.403  -0.204  1.00  0.00    -0.332 N 
HETATM    4  O   UNL     1      41.456 -15.222   0.719  1.00  0.00    -0.247 OA
HETATM    5  H   UNL     1      38.544 -14.999   1.854  1.00  0.00     0.164 HD
HETATM    6  H   UNL     1      38.524 -14.491  -0.161  1.00  0.00     0.165 HD
ENDROOT
BRANCH   1   7
HETATM    7  C   UNL     1      39.959 -16.084   2.989  1.00  0.00     0.162 C 
BRANCH   7   8
HETATM    8  C   UNL     1      40.897 -15.494   4.096  1.00  0.00     0.238 C 
BRANCH   8   9
HETATM    9  C   UNL     1      42.032 -16.435   4.472  1.00  0.00    -0.023 A 
HETATM   10  C   UNL     1      42.680 -17.176   3.470  1.00  0.00     0.046 A 
HETATM   11  C   UNL     1      43.705 -18.080   3.771  1.00  0.00     0.068 A 
HETATM   12  C   UNL     1      44.105 -18.243   5.095  1.00  0.00     0.037 A 
HETATM   13  C   UNL     1      43.482 -17.508   6.105  1.00  0.00     0.003 A 
HETATM   14  C   UNL     1      42.455 -16.615   5.800  1.00  0.00     0.009 A 
BRANCH  11  15
HETATM   15  O   UNL     1      44.218 -18.735   2.688  1.00  0.00    -0.356 OA
HETATM   16  C   UNL     1      43.581 -19.951   2.307  1.00  0.00     0.210 C 
ENDBRANCH  11  15
ENDBRANCH   8   9
BRANCH   8  17
HETATM   17  N   UNL     1      41.358 -14.085   3.727  1.00  0.00    -0.061 N 
HETATM   18  H   UNL     1      41.047 -13.969   2.742  1.00  0.00     0.280 HD
HETATM   19  C   UNL     1      42.830 -13.797   3.711  1.00  0.00     0.236 C 
HETATM   20  C   UNL     1      43.101 -13.124   5.038  1.00  0.00     0.029 C 
HETATM   21  C   UNL     1      41.822 -12.380   5.378  1.00  0.00     0.029 C 
HETATM   22  C   UNL     1      40.722 -12.965   4.505  1.00  0.00     0.236 C 
ENDBRANCH   8  17
ENDBRANCH   7   8
ENDBRANCH   1   7
BRANCH   3  23
HETATM   23  C   UNL     1      40.073 -14.221  -1.543  1.00  0.00     0.149 C 
HETATM   24  C   UNL     1      39.143 -14.744  -2.691  1.00  0.00     0.149 C 
HETATM   25  C   UNL     1      38.210 -13.574  -3.054  1.00  0.00     0.073 C 
HETATM   26  C   UNL     1      39.067 -12.394  -2.717  1.00  0.00    -0.047 A 
HETATM   27  C   UNL     1      40.129 -12.757  -1.877  1.00  0.00    -0.026 A 
HETATM   28  C   UNL     1      38.882 -11.078  -3.107  1.00  0.00     0.008 A 
HETATM   29  C   UNL     1      41.031 -11.810  -1.419  1.00  0.00     0.010 A 
HETATM   30  C   UNL     1      40.860 -10.483  -1.820  1.00  0.00     0.001 A 
HETATM   31  C   UNL     1      39.792 -10.120  -2.657  1.00  0.00     0.001 A 
BRANCH  24  32
HETATM   32  O   UNL     1      38.389 -15.904  -2.349  1.00  0.00    -0.393 OA
HETATM   33  H   UNL     1      37.506 -15.781  -2.746  1.00  0.00     0.210 HD
ENDBRANCH  24  32
ENDBRANCH   3  23
TORSDOF 7
ENDMDL
MODEL 3
REMARK VINA RESULT:      -8.4      1.712      4.046
REMARK  7 active torsions:
REMARK  status: ('A' for Active; 'I' for Inactive)
REMARK    1  A    between atoms: O_2  and  C_3 
REMARK    2  A    between atoms: C_5  and  C_6 
REMARK    3  A    between atoms: C_6  and  N_7 
REMARK    4  A    between atoms: C_6  and  C_13 
REMARK    5  A    between atoms: C_13  and  N_14 
REMARK       I    between atoms: N_14  and  C_15 
REMARK       I    between atoms: C_15  and  N_16 
REMARK    6  A    between atoms: N_16  and  C_17 
REMARK    7  A    between atoms: C_18  and  O_19 
ROOT
HETATM    1  N   UNL     1      40.669 -15.933   2.022  1.00  0.00    -0.341 N 
HETATM    2  C   UNL     1      41.969 -16.303   2.200  1.00  0.00     0.316 C 
HETATM    3  N   UNL     1      42.239 -16.707   3.466  1.00  0.00    -0.332 N 
HETATM    4  O   UNL     1      42.790 -16.274   1.287  1.00  0.00    -0.247 OA
HETATM    5  H   UNL     1      40.107 -15.901   2.864  1.00  0.00     0.164 HD
HETATM    6  H   UNL     1      41.610 -16.421   4.202  1.00  0.00     0.165 HD
ENDROOT
BRANCH   1   7
HETATM    7  C   UNL     1      40.216 -15.103   0.909  1.00  0.00     0.162 C 
BRANCH   7   8
HETATM    8  C   UNL     1      39.900 -13.605   1.237  1.00  0.00     0.238 C 
BRANCH   8   9
HETATM    9  C   UNL     1      40.740 -13.060   2.382  1.00  0.00    -0.023 A 
HETATM   10  C   UNL     1      40.212 -13.045   3.685  1.00  0.00     0.046 A 
HETATM   11  C   UNL     1      40.933 -12.521   4.764  1.00  0.00     0.068 A 
HETATM   12  C   UNL     1      42.211 -12.013   4.549  1.00  0.00     0.037 A 
HETATM   13  C   UNL     1      42.759 -12.028   3.266  1.00  0.00     0.003 A 
HETATM   14  C   UNL     1      42.033 -12.544   2.192  1.00  0.00     0.009 A 
BRANCH  11  15
HETATM   15  O   UNL     1      40.272 -12.564   5.959  1.00  0.00    -0.356 OA
HETATM   16  C   UNL     1      39.622 -11.368   6.379  1.00  0.00     0.210 C 
ENDBRANCH  11  15
ENDBRANCH   8   9
BRANCH   8  17
HETATM   17  N   UNL     1      39.946 -12.747  -0.027  1.00  0.00    -0.061 N 
HETATM   18  H   UNL     1      40.808 -12.176   0.089  1.00  0.00     0.280 HD
HETATM   19  C   UNL     1      38.846 -11.753  -0.256  1.00  0.00     0.236 C 
HETATM   20  C   UNL     1      37.907 -12.442  -1.221  1.00  0.00     0.029 C 
HETATM   21  C   UNL     1      38.791 -13.344  -2.065  1.00  0.00     0.029 C 
HETATM   22  C   UNL     1      40.108 -13.497  -1.320  1.00  0.00     0.236 C 
ENDBRANCH   8  17
ENDBRANCH   7   8
ENDBRANCH   1   7
BRANCH   3  23
HETATM   23  C   UNL     1      43.596 -17.009   3.903  1.00  0.00     0.149 C 
HETATM   24  C   UNL     1      43.942 -16.484   5.338  1.00  0.00     0.149 C 
HETATM   25  C   UNL     1      43.520 -17.596   6.315  1.00  0.00     0.073 C 
HETATM   26  C   UNL     1      43.689 -18.818   5.467  1.00  0.00    -0.047 A 
HETATM   27  C   UNL     1      43.749 -18.490   4.106  1.00  0.00    -0.026 A 
HETATM   28  C   UNL     1      43.747 -20.136   5.889  1.00  0.00     0.008 A 
HETATM   29  C   UNL     1      43.876 -19.476   3.141  1.00  0.00     0.010 A 
HETATM   30  C   UNL     1      43.950 -20.807   3.559  1.00  0.00     0.001 A 
HETATM   31  C   UNL     1      43.884 -21.134   4.922  1.00  0.00     0.001 A 
BRANCH  24  32
HETATM   32  O   UNL     1      43.313 -15.250   5.675  1.00  0.00    -0.393 OA
HETATM   33  H   UNL     1      43.421 -14.668   4.899  1.00  0.00     0.210 HD
ENDBRANCH  24  32
ENDBRANCH   3  23
TORSDOF 7
ENDMDL
MODEL 4
REMARK VINA RESULT:      -8.4      4.479      6.990
REMARK  7 active torsions:
REMARK  status: ('A' for Active; 'I' for Inactive)
REMARK    1  A    between atoms: O_2  and  C_3 
REMARK    2  A    between atoms: C_5  and  C_6 
REMARK    3  A    between atoms: C_6  and  N_7 
REMARK    4  A    between atoms: C_6  and  C_13 
REMARK    5  A    between atoms: C_13  and  N_14 
REMARK       I    between atoms: N_14  and  C_15 
REMARK       I    between atoms: C_15  and  N_16 
REMARK    6  A    between atoms: N_16  and  C_17 
REMARK    7  A    between atoms: C_18  and  O_19 
ROOT
HETATM    1  N   UNL     1      43.843 -12.969   6.310  1.00  0.00    -0.341 N 
HETATM    2  C   UNL     1      43.243 -14.185   6.448  1.00  0.00     0.316 C 
HETATM    3  N   UNL     1      42.844 -14.719   5.266  1.00  0.00    -0.332 N 
HETATM    4  O   UNL     1      43.098 -14.724   7.541  1.00  0.00    -0.247 OA
HETATM    5  H   UNL     1      43.819 -12.575   5.377  1.00  0.00     0.164 HD
HETATM    6  H   UNL     1      42.729 -14.100   4.478  1.00  0.00     0.165 HD
ENDROOT
BRANCH   1   7
HETATM    7  C   UNL     1      43.997 -12.020   7.409  1.00  0.00     0.162 C 
BRANCH   7   8
HETATM    8  C   UNL     1      43.650 -10.525   7.096  1.00  0.00     0.238 C 
BRANCH   8   9
HETATM    9  C   UNL     1      42.358 -10.371   6.308  1.00  0.00    -0.023 A 
HETATM   10  C   UNL     1      41.139 -10.228   6.993  1.00  0.00     0.046 A 
HETATM   11  C   UNL     1      39.921 -10.120   6.312  1.00  0.00     0.068 A 
HETATM   12  C   UNL     1      39.913 -10.138   4.920  1.00  0.00     0.037 A 
HETATM   13  C   UNL     1      41.113 -10.267   4.219  1.00  0.00     0.003 A 
HETATM   14  C   UNL     1      42.323 -10.384   4.903  1.00  0.00     0.009 A 
BRANCH  11  15
HETATM   15  O   UNL     1      38.828 -10.007   7.123  1.00  0.00    -0.356 OA
HETATM   16  C   UNL     1      39.058 -10.065   8.528  1.00  0.00     0.210 C 
ENDBRANCH  11  15
ENDBRANCH   8   9
BRANCH   8  17
HETATM   17  N   UNL     1      43.705  -9.673   8.364  1.00  0.00    -0.061 N 
HETATM   18  H   UNL     1      42.776  -9.207   8.394  1.00  0.00     0.280 HD
HETATM   19  C   UNL     1      44.706  -8.559   8.431  1.00  0.00     0.236 C 
HETATM   20  C   UNL     1      45.860  -9.130   9.226  1.00  0.00     0.029 C 
HETATM   21  C   UNL     1      45.231 -10.125  10.184  1.00  0.00     0.029 C 
HETATM   22  C   UNL     1      43.838 -10.433   9.655  1.00  0.00     0.236 C 
ENDBRANCH   8  17
ENDBRANCH   7   8
ENDBRANCH   1   7
BRANCH   3  23
HETATM   23  C   UNL     1      42.058 -15.945   5.204  1.00  0.00     0.149 C 
HETATM   24  C   UNL     1      40.817 -15.864   4.252  1.00  0.00     0.149 C 
HETATM   25  C   UNL     1      41.321 -16.272   2.855  1.00  0.00     0.073 C 
HETATM   26  C   UNL     1      42.445 -17.198   3.202  1.00  0.00    -0.047 A 
HETATM   27  C   UNL     1      42.854 -17.028   4.532  1.00  0.00    -0.026 A 
HETATM   28  C   UNL     1      43.080 -18.103   2.369  1.00  0.00     0.008 A 
HETATM   29  C   UNL     1      43.902 -17.768   5.055  1.00  0.00     0.010 A 
HETATM   30  C   UNL     1      44.539 -18.693   4.225  1.00  0.00     0.001 A 
HETATM   31  C   UNL     1      44.132 -18.858   2.891  1.00  0.00     0.001 A 
BRANCH  24  32
HETATM   32  O   UNL     1      40.195 -14.582   4.210  1.00  0.00    -0.393 OA
HETATM   33  H   UNL     1      39.349 -14.706   3.740  1.00  0.00     0.210 HD
ENDBRANCH  24  32
ENDBRANCH   3  23
TORSDOF 7
ENDMDL
MODEL 5
REMARK VINA RESULT:      -8.4      4.171      6.131
REMARK  7 active torsions:
REMARK  status: ('A' for Active; 'I' for Inactive)
REMARK    1  A    between atoms: O_2  and  C_3 
REMARK    2  A    between atoms: C_5  and  C_6 
REMARK    3  A    between atoms: C_6  and  N_7 
REMARK    4  A    between atoms: C_6  and  C_13 
REMARK    5  A    between atoms: C_13  and  N_14 
REMARK       I    between atoms: N_14  and  C_15 
REMARK       I    between atoms: C_15  and  N_16 
REMARK    6  A    between atoms: N_16  and  C_17 
REMARK    7  A    between atoms: C_18  and  O_19 
ROOT
HETATM    1  N   UNL     1      44.165 -13.165   6.229  1.00  0.00    -0.341 N 
HETATM    2  C   UNL     1      43.442 -14.305   6.415  1.00  0.00     0.316 C 
HETATM    3  N   UNL     1      43.114 -14.923   5.253  1.00  0.00    -0.332 N 
HETATM    4  O   UNL     1      43.141 -14.716   7.532  1.00  0.00    -0.247 OA
HETATM    5  H   UNL     1      44.269 -12.868   5.267  1.00  0.00     0.164 HD
HETATM    6  H   UNL     1      43.135 -14.379   4.402  1.00  0.00     0.165 HD
ENDROOT
BRANCH   1   7
HETATM    7  C   UNL     1      44.298 -12.124   7.246  1.00  0.00     0.162 C 
BRANCH   7   8
HETATM    8  C   UNL     1      43.671 -10.730   6.906  1.00  0.00     0.238 C 
BRANCH   8   9
HETATM    9  C   UNL     1      42.550 -10.820   5.881  1.00  0.00    -0.023 A 
HETATM   10  C   UNL     1      42.861 -10.814   4.510  1.00  0.00     0.046 A 
HETATM   11  C   UNL     1      41.863 -10.858   3.531  1.00  0.00     0.068 A 
HETATM   12  C   UNL     1      40.527 -10.923   3.919  1.00  0.00     0.037 A 
HETATM   13  C   UNL     1      40.197 -10.941   5.274  1.00  0.00     0.003 A 
HETATM   14  C   UNL     1      41.195 -10.888   6.247  1.00  0.00     0.009 A 
BRANCH  11  15
HETATM   15  O   UNL     1      42.329 -10.826   2.246  1.00  0.00    -0.356 OA
HETATM   16  C   UNL     1      41.612 -11.589   1.281  1.00  0.00     0.210 C 
ENDBRANCH  11  15
ENDBRANCH   8   9
BRANCH   8  17
HETATM   17  N   UNL     1      43.285  -9.979   8.180  1.00  0.00    -0.061 N 
HETATM   18  H   UNL     1      42.271 -10.177   8.291  1.00  0.00     0.280 HD
HETATM   19  C   UNL     1      43.396  -8.483   8.187  1.00  0.00     0.236 C 
HETATM   20  C   UNL     1      44.711  -8.201   8.878  1.00  0.00     0.029 C 
HETATM   21  C   UNL     1      44.895  -9.339   9.867  1.00  0.00     0.029 C 
HETATM   22  C   UNL     1      43.948 -10.452   9.443  1.00  0.00     0.236 C 
ENDBRANCH   8  17
ENDBRANCH   7   8
ENDBRANCH   1   7
BRANCH   3  23
HETATM   23  C   UNL     1      42.226 -16.078   5.221  1.00  0.00     0.149 C 
HETATM   24  C   UNL     1      40.927 -15.868   4.371  1.00  0.00     0.149 C 
HETATM   25  C   UNL     1      41.289 -16.270   2.929  1.00  0.00     0.073 C 
HETATM   26  C   UNL     1      42.355 -17.294   3.164  1.00  0.00    -0.047 A 
HETATM   27  C   UNL     1      42.876 -17.200   4.462  1.00  0.00    -0.026 A 
HETATM   28  C   UNL     1      42.848 -18.221   2.261  1.00  0.00     0.008 A 
HETATM   29  C   UNL     1      43.896 -18.039   4.883  1.00  0.00     0.010 A 
HETATM   30  C   UNL     1      44.389 -18.985   3.982  1.00  0.00     0.001 A 
HETATM   31  C   UNL     1      43.870 -19.075   2.681  1.00  0.00     0.001 A 
BRANCH  24  32
HETATM   32  O   UNL     1      40.413 -14.539   4.409  1.00  0.00    -0.393 OA
HETATM   33  H   UNL     1      40.831 -14.107   5.178  1.00  0.00     0.210 HD
ENDBRANCH  24  32
ENDBRANCH   3  23
TORSDOF 7
ENDMDL
MODEL 6
REMARK VINA RESULT:      -8.1      2.329      8.413
REMARK  7 active torsions:
REMARK  status: ('A' for Active; 'I' for Inactive)
REMARK    1  A    between atoms: O_2  and  C_3 
REMARK    2  A    between atoms: C_5  and  C_6 
REMARK    3  A    between atoms: C_6  and  N_7 
REMARK    4  A    between atoms: C_6  and  C_13 
REMARK    5  A    between atoms: C_13  and  N_14 
REMARK       I    between atoms: N_14  and  C_15 
REMARK       I    between atoms: C_15  and  N_16 
REMARK    6  A    between atoms: N_16  and  C_17 
REMARK    7  A    between atoms: C_18  and  O_19 
ROOT
HETATM    1  N   UNL     1      41.770 -14.006   1.338  1.00  0.00    -0.341 N 
HETATM    2  C   UNL     1      41.524 -12.827   0.699  1.00  0.00     0.316 C 
HETATM    3  N   UNL     1      41.005 -12.994  -0.544  1.00  0.00    -0.332 N 
HETATM    4  O   UNL     1      41.750 -11.739   1.220  1.00  0.00    -0.247 OA
HETATM    5  H   UNL     1      41.640 -14.839   0.779  1.00  0.00     0.164 HD
HETATM    6  H   UNL     1      41.132 -13.887  -0.997  1.00  0.00     0.165 HD
ENDROOT
BRANCH   1   7
HETATM    7  C   UNL     1      42.671 -14.126   2.481  1.00  0.00     0.162 C 
BRANCH   7   8
HETATM    8  C   UNL     1      42.160 -14.983   3.688  1.00  0.00     0.238 C 
BRANCH   8   9
HETATM    9  C   UNL     1      42.894 -16.307   3.826  1.00  0.00    -0.023 A 
HETATM   10  C   UNL     1      42.750 -17.288   2.830  1.00  0.00     0.046 A 
HETATM   11  C   UNL     1      43.377 -18.536   2.931  1.00  0.00     0.068 A 
HETATM   12  C   UNL     1      44.175 -18.811   4.038  1.00  0.00     0.037 A 
HETATM   13  C   UNL     1      44.340 -17.848   5.034  1.00  0.00     0.003 A 
HETATM   14  C   UNL     1      43.706 -16.609   4.933  1.00  0.00     0.009 A 
BRANCH  11  15
HETATM   15  O   UNL     1      43.121 -19.383   1.889  1.00  0.00    -0.356 OA
HETATM   16  C   UNL     1      43.834 -20.616   1.871  1.00  0.00     0.210 C 
ENDBRANCH  11  15
ENDBRANCH   8   9
BRANCH   8  17
HETATM   17  N   UNL     1      42.130 -14.155   4.972  1.00  0.00    -0.061 N 
HETATM   18  H   UNL     1      42.909 -14.545   5.540  1.00  0.00     0.280 HD
HETATM   19  C   UNL     1      40.919 -14.247   5.853  1.00  0.00     0.236 C 
HETATM   20  C   UNL     1      40.100 -13.025   5.502  1.00  0.00     0.029 C 
HETATM   21  C   UNL     1      41.113 -11.966   5.103  1.00  0.00     0.029 C 
HETATM   22  C   UNL     1      42.419 -12.688   4.811  1.00  0.00     0.236 C 
ENDBRANCH   8  17
ENDBRANCH   7   8
ENDBRANCH   1   7
BRANCH   3  23
HETATM   23  C   UNL     1      40.801 -11.870  -1.448  1.00  0.00     0.149 C 
HETATM   24  C   UNL     1      40.732 -12.267  -2.962  1.00  0.00     0.149 C 
HETATM   25  C   UNL     1      39.256 -12.598  -3.252  1.00  0.00     0.073 C 
HETATM   26  C   UNL     1      38.555 -11.723  -2.260  1.00  0.00    -0.047 A 
HETATM   27  C   UNL     1      39.427 -11.296  -1.249  1.00  0.00    -0.026 A 
HETATM   28  C   UNL     1      37.217 -11.367  -2.248  1.00  0.00     0.008 A 
HETATM   29  C   UNL     1      38.976 -10.498  -0.210  1.00  0.00     0.010 A 
HETATM   30  C   UNL     1      37.631 -10.122  -0.198  1.00  0.00     0.001 A 
HETATM   31  C   UNL     1      36.758 -10.555  -1.209  1.00  0.00     0.001 A 
BRANCH  24  32
HETATM   32  O   UNL     1      41.574 -13.361  -3.318  1.00  0.00    -0.393 OA
HETATM   33  H   UNL     1      41.755 -13.845  -2.490  1.00  0.00     0.210 HD
ENDBRANCH  24  32
ENDBRANCH   3  23
TORSDOF 7
ENDMDL
MODEL 7
REMARK VINA RESULT:      -8.0      2.106      4.558
REMARK  7 active torsions:
REMARK  status: ('A' for Active; 'I' for Inactive)
REMARK    1  A    between atoms: O_2  and  C_3 
REMARK    2  A    between atoms: C_5  and  C_6 
REMARK    3  A    between atoms: C_6  and  N_7 
REMARK    4  A    between atoms: C_6  and  C_13 
REMARK    5  A    between atoms: C_13  and  N_14 
REMARK       I    between atoms: N_14  and  C_15 
REMARK       I    between atoms: C_15  and  N_16 
REMARK    6  A    between atoms: N_16  and  C_17 
REMARK    7  A    between atoms: C_18  and  O_19 
ROOT
HETATM    1  N   UNL     1      40.104 -15.355   3.025  1.00  0.00    -0.341 N 
HETATM    2  C   UNL     1      41.383 -15.741   2.760  1.00  0.00     0.316 C 
HETATM    3  N   UNL     1      41.999 -16.311   3.827  1.00  0.00    -0.332 N 
HETATM    4  O   UNL     1      41.900 -15.587   1.657  1.00  0.00    -0.247 OA
HETATM    5  H   UNL     1      39.815 -15.438   3.992  1.00  0.00     0.164 HD
HETATM    6  H   UNL     1      41.625 -16.128   4.746  1.00  0.00     0.165 HD
ENDROOT
BRANCH   1   7
HETATM    7  C   UNL     1      39.374 -14.385   2.213  1.00  0.00     0.162 C 
BRANCH   7   8
HETATM    8  C   UNL     1      39.766 -12.880   2.401  1.00  0.00     0.238 C 
BRANCH   8   9
HETATM    9  C   UNL     1      39.719 -12.433   3.854  1.00  0.00    -0.023 A 
HETATM   10  C   UNL     1      38.914 -11.340   4.218  1.00  0.00     0.046 A 
HETATM   11  C   UNL     1      38.866 -10.869   5.535  1.00  0.00     0.068 A 
HETATM   12  C   UNL     1      39.623 -11.505   6.515  1.00  0.00     0.037 A 
HETATM   13  C   UNL     1      40.420 -12.599   6.178  1.00  0.00     0.003 A 
HETATM   14  C   UNL     1      40.472 -13.059   4.862  1.00  0.00     0.009 A 
BRANCH  11  15
HETATM   15  O   UNL     1      38.051  -9.788   5.720  1.00  0.00    -0.356 OA
HETATM   16  C   UNL     1      38.087  -8.775   4.720  1.00  0.00     0.210 C 
ENDBRANCH  11  15
ENDBRANCH   8   9
BRANCH   8  17
HETATM   17  N   UNL     1      41.088 -12.569   1.700  1.00  0.00    -0.061 N 
HETATM   18  H   UNL     1      41.695 -13.379   1.938  1.00  0.00     0.280 HD
HETATM   19  C   UNL     1      41.860 -11.360   2.138  1.00  0.00     0.236 C 
HETATM   20  C   UNL     1      41.513 -10.297   1.119  1.00  0.00     0.029 C 
HETATM   21  C   UNL     1      41.258 -11.051  -0.174  1.00  0.00     0.029 C 
HETATM   22  C   UNL     1      41.034 -12.509   0.199  1.00  0.00     0.236 C 
ENDBRANCH   8  17
ENDBRANCH   7   8
ENDBRANCH   1   7
BRANCH   3  23
HETATM   23  C   UNL     1      43.412 -16.665   3.799  1.00  0.00     0.149 C 
HETATM   24  C   UNL     1      44.129 -16.559   5.188  1.00  0.00     0.149 C 
HETATM   25  C   UNL     1      43.936 -17.924   5.875  1.00  0.00     0.073 C 
HETATM   26  C   UNL     1      43.845 -18.841   4.696  1.00  0.00    -0.047 A 
HETATM   27  C   UNL     1      43.566 -18.133   3.518  1.00  0.00    -0.026 A 
HETATM   28  C   UNL     1      43.967 -20.220   4.689  1.00  0.00     0.008 A 
HETATM   29  C   UNL     1      43.412 -18.793   2.310  1.00  0.00     0.010 A 
HETATM   30  C   UNL     1      43.547 -20.183   2.292  1.00  0.00     0.001 A 
HETATM   31  C   UNL     1      43.822 -20.891   3.473  1.00  0.00     0.001 A 
BRANCH  24  32
HETATM   32  O   UNL     1      43.646 -15.504   6.016  1.00  0.00    -0.393 OA
HETATM   33  H   UNL     1      42.831 -15.839   6.435  1.00  0.00     0.210 HD
ENDBRANCH  24  32
ENDBRANCH   3  23
TORSDOF 7
ENDMDL
MODEL 8
REMARK VINA RESULT:      -7.9      4.464      7.755
REMARK  7 active torsions:
REMARK  status: ('A' for Active; 'I' for Inactive)
REMARK    1  A    between atoms: O_2  and  C_3 
REMARK    2  A    between atoms: C_5  and  C_6 
REMARK    3  A    between atoms: C_6  and  N_7 
REMARK    4  A    between atoms: C_6  and  C_13 
REMARK    5  A    between atoms: C_13  and  N_14 
REMARK       I    between atoms: N_14  and  C_15 
REMARK       I    between atoms: C_15  and  N_16 
REMARK    6  A    between atoms: N_16  and  C_17 
REMARK    7  A    between atoms: C_18  and  O_19 
ROOT
HETATM    1  N   UNL     1      41.787 -13.762   6.064  1.00  0.00    -0.341 N 
HETATM    2  C   UNL     1      42.314 -12.521   5.864  1.00  0.00     0.316 C 
HETATM    3  N   UNL     1      42.400 -11.790   7.004  1.00  0.00    -0.332 N 
HETATM    4  O   UNL     1      42.676 -12.132   4.758  1.00  0.00    -0.247 OA
HETATM    5  H   UNL     1      41.431 -13.940   6.995  1.00  0.00     0.164 HD
HETATM    6  H   UNL     1      41.821 -12.058   7.787  1.00  0.00     0.165 HD
ENDROOT
BRANCH   1   7
HETATM    7  C   UNL     1      41.224 -14.577   4.990  1.00  0.00     0.162 C 
BRANCH   7   8
HETATM    8  C   UNL     1      42.158 -14.861   3.765  1.00  0.00     0.238 C 
BRANCH   8   9
HETATM    9  C   UNL     1      42.913 -16.176   3.890  1.00  0.00    -0.023 A 
HETATM   10  C   UNL     1      42.813 -17.133   2.865  1.00  0.00     0.046 A 
HETATM   11  C   UNL     1      43.459 -18.371   2.951  1.00  0.00     0.068 A 
HETATM   12  C   UNL     1      44.234 -18.661   4.072  1.00  0.00     0.037 A 
HETATM   13  C   UNL     1      44.357 -17.721   5.095  1.00  0.00     0.003 A 
HETATM   14  C   UNL     1      43.703 -16.491   5.009  1.00  0.00     0.009 A 
BRANCH  11  15
HETATM   15  O   UNL     1      43.246 -19.196   1.883  1.00  0.00    -0.356 OA
HETATM   16  C   UNL     1      43.713 -20.537   2.000  1.00  0.00     0.210 C 
ENDBRANCH  11  15
ENDBRANCH   8   9
BRANCH   8  17
HETATM   17  N   UNL     1      41.397 -14.708   2.449  1.00  0.00    -0.061 N 
HETATM   18  H   UNL     1      41.541 -15.618   1.968  1.00  0.00     0.280 HD
HETATM   19  C   UNL     1      41.863 -13.669   1.472  1.00  0.00     0.236 C 
HETATM   20  C   UNL     1      40.940 -12.493   1.698  1.00  0.00     0.029 C 
HETATM   21  C   UNL     1      39.619 -13.099   2.139  1.00  0.00     0.029 C 
HETATM   22  C   UNL     1      39.909 -14.527   2.573  1.00  0.00     0.236 C 
ENDBRANCH   8  17
ENDBRANCH   7   8
ENDBRANCH   1   7
BRANCH   3  23
HETATM   23  C   UNL     1      42.803 -10.390   6.990  1.00  0.00     0.149 C 
HETATM   24  C   UNL     1      41.615  -9.378   7.128  1.00  0.00     0.149 C 
HETATM   25  C   UNL     1      41.405  -9.166   8.639  1.00  0.00     0.073 C 
HETATM   26  C   UNL     1      42.787  -9.395   9.166  1.00  0.00    -0.047 A 
HETATM   27  C   UNL     1      43.585 -10.071   8.233  1.00  0.00    -0.026 A 
HETATM   28  C   UNL     1      43.281  -9.052  10.414  1.00  0.00     0.008 A 
HETATM   29  C   UNL     1      44.896 -10.410   8.528  1.00  0.00     0.010 A 
HETATM   30  C   UNL     1      45.406 -10.055   9.779  1.00  0.00     0.001 A 
HETATM   31  C   UNL     1      44.604  -9.382  10.715  1.00  0.00     0.001 A 
BRANCH  24  32
HETATM   32  O   UNL     1      40.406  -9.807   6.506  1.00  0.00    -0.393 OA
HETATM   33  H   UNL     1      39.985  -9.003   6.146  1.00  0.00     0.210 HD
ENDBRANCH  24  32
ENDBRANCH   3  23
TORSDOF 7
ENDMDL
MODEL 9
REMARK VINA RESULT:      -7.8      6.239      8.829
REMARK  7 active torsions:
REMARK  status: ('A' for Active; 'I' for Inactive)
REMARK    1  A    between atoms: O_2  and  C_3 
REMARK    2  A    between atoms: C_5  and  C_6 
REMARK    3  A    between atoms: C_6  and  N_7 
REMARK    4  A    between atoms: C_6  and  C_13 
REMARK    5  A    between atoms: C_13  and  N_14 
REMARK       I    between atoms: N_14  and  C_15 
REMARK       I    between atoms: C_15  and  N_16 
REMARK    6  A    between atoms: N_16  and  C_17 
REMARK    7  A    between atoms: C_18  and  O_19 
ROOT
HETATM    1  N   UNL     1      43.451 -11.205   7.878  1.00  0.00    -0.341 N 
HETATM    2  C   UNL     1      43.971 -12.252   7.178  1.00  0.00     0.316 C 
HETATM    3  N   UNL     1      43.165 -13.344   7.175  1.00  0.00    -0.332 N 
HETATM    4  O   UNL     1      45.057 -12.187   6.609  1.00  0.00    -0.247 OA
HETATM    5  H   UNL     1      42.599 -11.404   8.389  1.00  0.00     0.164 HD
HETATM    6  H   UNL     1      42.459 -13.417   7.893  1.00  0.00     0.165 HD
ENDROOT
BRANCH   1   7
HETATM    7  C   UNL     1      44.255 -10.090   8.369  1.00  0.00     0.162 C 
BRANCH   7   8
HETATM    8  C   UNL     1      43.658  -9.269   9.562  1.00  0.00     0.238 C 
BRANCH   8   9
HETATM    9  C   UNL     1      43.013  -7.965   9.117  1.00  0.00    -0.023 A 
HETATM   10  C   UNL     1      42.372  -7.898   7.868  1.00  0.00     0.046 A 
HETATM   11  C   UNL     1      41.796  -6.712   7.400  1.00  0.00     0.068 A 
HETATM   12  C   UNL     1      41.843  -5.570   8.196  1.00  0.00     0.037 A 
HETATM   13  C   UNL     1      42.463  -5.617   9.445  1.00  0.00     0.003 A 
HETATM   14  C   UNL     1      43.045  -6.800   9.902  1.00  0.00     0.009 A 
BRANCH  11  15
HETATM   15  O   UNL     1      41.231  -6.808   6.160  1.00  0.00    -0.356 OA
HETATM   16  C   UNL     1      41.792  -5.999   5.131  1.00  0.00     0.210 C 
ENDBRANCH  11  15
ENDBRANCH   8   9
BRANCH   8  17
HETATM   17  N   UNL     1      42.753 -10.143  10.429  1.00  0.00    -0.061 N 
HETATM   18  H   UNL     1      42.542 -10.962   9.824  1.00  0.00     0.280 HD
HETATM   19  C   UNL     1      41.415  -9.601  10.835  1.00  0.00     0.236 C 
HETATM   20  C   UNL     1      41.623  -9.090  12.244  1.00  0.00     0.029 C 
HETATM   21  C   UNL     1      42.693  -9.988  12.840  1.00  0.00     0.029 C 
HETATM   22  C   UNL     1      43.379 -10.692  11.680  1.00  0.00     0.236 C 
ENDBRANCH   8  17
ENDBRANCH   7   8
ENDBRANCH   1   7
BRANCH   3  23
HETATM   23  C   UNL     1      43.594 -14.614   6.604  1.00  0.00     0.149 C 
HETATM   24  C   UNL     1      43.231 -15.865   7.475  1.00  0.00     0.149 C 
HETATM   25  C   UNL     1      41.818 -16.296   7.038  1.00  0.00     0.073 C 
HETATM   26  C   UNL     1      41.797 -15.843   5.611  1.00  0.00    -0.047 A 
HETATM   27  C   UNL     1      42.808 -14.906   5.358  1.00  0.00    -0.026 A 
HETATM   28  C   UNL     1      40.906 -16.220   4.620  1.00  0.00     0.008 A 
HETATM   29  C   UNL     1      42.950 -14.334   4.104  1.00  0.00     0.010 A 
HETATM   30  C   UNL     1      42.065 -14.719   3.095  1.00  0.00     0.001 A 
HETATM   31  C   UNL     1      41.049 -15.654   3.352  1.00  0.00     0.001 A 
BRANCH  24  32
HETATM   32  O   UNL     1      43.275 -15.631   8.880  1.00  0.00    -0.393 OA
HETATM   33  H   UNL     1      43.874 -14.872   9.011  1.00  0.00     0.210 HD
ENDBRANCH  24  32
ENDBRANCH   3  23
TORSDOF 7
ENDMDL
MODEL 10
REMARK VINA RESULT:      -7.8      4.737      7.766
REMARK  7 active torsions:
REMARK  status: ('A' for Active; 'I' for Inactive)
REMARK    1  A    between atoms: O_2  and  C_3 
REMARK    2  A    between atoms: C_5  and  C_6 
REMARK    3  A    between atoms: C_6  and  N_7 
REMARK    4  A    between atoms: C_6  and  C_13 
REMARK    5  A    between atoms: C_13  and  N_14 
REMARK       I    between atoms: N_14  and  C_15 
REMARK       I    between atoms: C_15  and  N_16 
REMARK    6  A    between atoms: N_16  and  C_17 
REMARK    7  A    between atoms: C_18  and  O_19 
ROOT
HETATM    1  N   UNL     1      43.320 -12.530   5.132  1.00  0.00    -0.341 N 
HETATM    2  C   UNL     1      42.418 -13.539   5.288  1.00  0.00     0.316 C 
HETATM    3  N   UNL     1      42.801 -14.693   4.686  1.00  0.00    -0.332 N 
HETATM    4  O   UNL     1      41.376 -13.397   5.922  1.00  0.00    -0.247 OA
HETATM    5  H   UNL     1      44.092 -12.729   4.508  1.00  0.00     0.164 HD
HETATM    6  H   UNL     1      43.496 -14.642   3.956  1.00  0.00     0.165 HD
ENDROOT
BRANCH   1   7
HETATM    7  C   UNL     1      42.987 -11.120   5.321  1.00  0.00     0.162 C 
BRANCH   7   8
HETATM    8  C   UNL     1      42.460 -10.710   6.738  1.00  0.00     0.238 C 
BRANCH   8   9
HETATM    9  C   UNL     1      43.574 -10.281   7.681  1.00  0.00    -0.023 A 
HETATM   10  C   UNL     1      43.254  -9.599   8.868  1.00  0.00     0.046 A 
HETATM   11  C   UNL     1      44.245  -9.152   9.749  1.00  0.00     0.068 A 
HETATM   12  C   UNL     1      45.583  -9.399   9.454  1.00  0.00     0.037 A 
HETATM   13  C   UNL     1      45.923 -10.084   8.287  1.00  0.00     0.003 A 
HETATM   14  C   UNL     1      44.931 -10.520   7.407  1.00  0.00     0.009 A 
BRANCH  11  15
HETATM   15  O   UNL     1      43.770  -8.491  10.846  1.00  0.00    -0.356 OA
HETATM   16  C   UNL     1      43.241  -9.288  11.901  1.00  0.00     0.210 C 
ENDBRANCH  11  15
ENDBRANCH   8   9
BRANCH   8  17
HETATM   17  N   UNL     1      41.321  -9.698   6.625  1.00  0.00    -0.061 N 
HETATM   18  H   UNL     1      41.692  -8.849   7.098  1.00  0.00     0.280 HD
HETATM   19  C   UNL     1      40.027 -10.000   7.321  1.00  0.00     0.236 C 
HETATM   20  C   UNL     1      39.130 -10.552   6.235  1.00  0.00     0.029 C 
HETATM   21  C   UNL     1      39.577  -9.861   4.959  1.00  0.00     0.029 C 
HETATM   22  C   UNL     1      40.956  -9.278   5.229  1.00  0.00     0.236 C 
ENDBRANCH   8  17
ENDBRANCH   7   8
ENDBRANCH   1   7
BRANCH   3  23
HETATM   23  C   UNL     1      41.919 -15.851   4.613  1.00  0.00     0.149 C 
HETATM   24  C   UNL     1      40.856 -15.778   3.464  1.00  0.00     0.149 C 
HETATM   25  C   UNL     1      41.531 -16.378   2.217  1.00  0.00     0.073 C 
HETATM   26  C   UNL     1      42.491 -17.346   2.835  1.00  0.00    -0.047 A 
HETATM   27  C   UNL     1      42.700 -17.063   4.191  1.00  0.00    -0.026 A 
HETATM   28  C   UNL     1      43.158 -18.387   2.210  1.00  0.00     0.008 A 
HETATM   29  C   UNL     1      43.577 -17.822   4.951  1.00  0.00     0.010 A 
HETATM   30  C   UNL     1      44.243 -18.882   4.332  1.00  0.00     0.001 A 
HETATM   31  C   UNL     1      44.036 -19.161   2.971  1.00  0.00     0.001 A 
BRANCH  24  32
HETATM   32  O   UNL     1      40.376 -14.463   3.195  1.00  0.00    -0.393 OA
HETATM   33  H   UNL     1      41.036 -13.850   3.572  1.00  0.00     0.210 HD
ENDBRANCH  24  32
ENDBRANCH   3  23
TORSDOF 7
ENDMDL
