MODEL 1
REMARK VINA RESULT:      -8.9      0.000      0.000
REMARK  3 active torsions:
REMARK  status: ('A' for Active; 'I' for Inactive)
REMARK    1  A    between atoms: O_2  and  C_3 
REMARK       I    between atoms: N_13  and  C_14 
REMARK       I    between atoms: C_14  and  N_15 
REMARK    2  A    between atoms: N_15  and  C_16 
REMARK    3  A    between atoms: C_22  and  C_23 
ROOT
HETATM    1  C   UNL     1      38.569 -12.372  -1.182  1.00  0.00     0.069 A 
HETATM    2  C   UNL     1      38.627 -12.629   0.193  1.00  0.00     0.051 A 
HETATM    3  C   UNL     1      39.861 -12.979   0.784  1.00  0.00     0.002 A 
HETATM    4  C   UNL     1      41.000 -13.046  -0.022  1.00  0.00     0.043 A 
HETATM    5  N   UNL     1      42.061 -13.402   0.784  1.00  0.00    -0.356 N 
HETATM    6  H   UNL     1      43.010 -13.524   0.458  1.00  0.00     0.166 HD
HETATM    7  C   UNL     1      41.622 -13.603   2.066  1.00  0.00     0.045 A 
HETATM    8  C   UNL     1      40.272 -13.303   2.105  1.00  0.00    -0.019 A 
HETATM    9  C   UNL     1      39.505 -13.336   3.389  1.00  0.00     0.061 C 
HETATM   10  C   UNL     1      40.314 -14.093   4.463  1.00  0.00     0.133 C 
HETATM   11  N   UNL     1      41.739 -13.699   4.450  1.00  0.00    -0.320 N 
HETATM   12  C   UNL     1      42.132 -12.713   5.340  1.00  0.00     0.319 C 
HETATM   13  N   UNL     1      43.458 -12.363   5.276  1.00  0.00    -0.338 N 
HETATM   14  O   UNL     1      41.356 -12.197   6.139  1.00  0.00    -0.247 OA
HETATM   15  C   UNL     1      42.481 -14.055   3.217  1.00  0.00     0.172 C 
HETATM   16  C   UNL     1      40.967 -12.773  -1.392  1.00  0.00     0.033 A 
HETATM   17  C   UNL     1      39.731 -12.437  -1.952  1.00  0.00     0.039 A 
HETATM   18  H   UNL     1      44.075 -13.117   5.026  1.00  0.00     0.164 HD
ENDROOT
BRANCH  15  19
HETATM   19  C   UNL     1      42.839 -15.546   3.219  1.00  0.00    -0.029 A 
HETATM   20  C   UNL     1      42.503 -16.421   2.168  1.00  0.00     0.012 A 
HETATM   21  C   UNL     1      42.850 -17.774   2.219  1.00  0.00     0.043 A 
HETATM   22  C   UNL     1      43.528 -18.268   3.324  1.00  0.00     0.116 A 
HETATM   23  F   UNL     1      43.854 -19.567   3.374  1.00  0.00    -0.206 F 
HETATM   24  C   UNL     1      43.864 -17.436   4.381  1.00  0.00     0.043 A 
HETATM   25  C   UNL     1      43.522 -16.083   4.329  1.00  0.00     0.012 A 
ENDBRANCH  15  19
BRANCH  13  26
HETATM   26  C   UNL     1      44.064 -11.354   6.127  1.00  0.00     0.086 C 
HETATM   27  C   UNL     1      43.931 -11.604   7.632  1.00  0.00     0.025 C 
HETATM   28  C   UNL     1      45.094 -10.818   8.218  1.00  0.00     0.002 C 
HETATM   29  C   UNL     1      46.224 -11.087   7.237  1.00  0.00     0.002 C 
HETATM   30  C   UNL     1      45.557 -11.109   5.863  1.00  0.00     0.025 C 
ENDBRANCH  13  26
BRANCH   1  31
HETATM   31  O   UNL     1      37.441 -12.042  -1.884  1.00  0.00    -0.356 OA
HETATM   32  C   UNL     1      36.914 -13.037  -2.753  1.00  0.00     0.210 C 
ENDBRANCH   1  31
TORSDOF 3
ENDMDL
MODEL 2
REMARK VINA RESULT:      -8.6      4.960      7.458
REMARK  3 active torsions:
REMARK  status: ('A' for Active; 'I' for Inactive)
REMARK    1  A    between atoms: O_2  and  C_3 
REMARK       I    between atoms: N_13  and  C_14 
REMARK       I    between atoms: C_14  and  N_15 
REMARK    2  A    between atoms: N_15  and  C_16 
REMARK    3  A    between atoms: C_22  and  C_23 
ROOT
HETATM    1  C   UNL     1      42.582 -16.441   4.768  1.00  0.00     0.069 A 
HETATM    2  C   UNL     1      43.399 -15.391   5.205  1.00  0.00     0.051 A 
HETATM    3  C   UNL     1      42.807 -14.223   5.733  1.00  0.00     0.002 A 
HETATM    4  C   UNL     1      41.415 -14.152   5.819  1.00  0.00     0.043 A 
HETATM    5  N   UNL     1      41.093 -12.926   6.364  1.00  0.00    -0.356 N 
HETATM    6  H   UNL     1      40.149 -12.608   6.537  1.00  0.00     0.166 HD
HETATM    7  C   UNL     1      42.234 -12.204   6.585  1.00  0.00     0.045 A 
HETATM    8  C   UNL     1      43.315 -13.000   6.248  1.00  0.00    -0.019 A 
HETATM    9  C   UNL     1      44.720 -12.535   6.459  1.00  0.00     0.061 C 
HETATM   10  C   UNL     1      44.737 -11.010   6.699  1.00  0.00     0.133 C 
HETATM   11  N   UNL     1      43.661 -10.592   7.623  1.00  0.00    -0.320 N 
HETATM   12  C   UNL     1      43.991 -10.461   8.962  1.00  0.00     0.319 C 
HETATM   13  N   UNL     1      42.957 -10.095   9.786  1.00  0.00    -0.338 N 
HETATM   14  O   UNL     1      45.131 -10.644   9.382  1.00  0.00    -0.247 OA
HETATM   15  C   UNL     1      42.282 -10.796   7.120  1.00  0.00     0.172 C 
HETATM   16  C   UNL     1      40.582 -15.196   5.408  1.00  0.00     0.033 A 
HETATM   17  C   UNL     1      41.195 -16.338   4.881  1.00  0.00     0.039 A 
HETATM   18  H   UNL     1      42.275  -9.493   9.355  1.00  0.00     0.164 HD
ENDROOT
BRANCH  15  19
HETATM   19  C   UNL     1      41.912  -9.702   6.111  1.00  0.00    -0.029 A 
HETATM   20  C   UNL     1      41.734  -9.948   4.736  1.00  0.00     0.012 A 
HETATM   21  C   UNL     1      41.400  -8.914   3.857  1.00  0.00     0.043 A 
HETATM   22  C   UNL     1      41.249  -7.623   4.341  1.00  0.00     0.116 A 
HETATM   23  F   UNL     1      40.935  -6.632   3.496  1.00  0.00    -0.206 F 
HETATM   24  C   UNL     1      41.428  -7.344   5.687  1.00  0.00     0.043 A 
HETATM   25  C   UNL     1      41.756  -8.377   6.568  1.00  0.00     0.012 A 
ENDBRANCH  15  19
BRANCH  13  26
HETATM   26  C   UNL     1      43.101  -9.901  11.218  1.00  0.00     0.086 C 
HETATM   27  C   UNL     1      43.690  -8.551  11.639  1.00  0.00     0.025 C 
HETATM   28  C   UNL     1      43.179  -8.378  13.061  1.00  0.00     0.002 C 
HETATM   29  C   UNL     1      41.747  -8.882  12.979  1.00  0.00     0.002 C 
HETATM   30  C   UNL     1      41.801 -10.070  12.019  1.00  0.00     0.025 C 
ENDBRANCH  13  26
BRANCH   1  31
HETATM   31  O   UNL     1      43.020 -17.617   4.220  1.00  0.00    -0.356 OA
HETATM   32  C   UNL     1      44.245 -18.139   4.722  1.00  0.00     0.210 C 
ENDBRANCH   1  31
TORSDOF 3
ENDMDL
MODEL 3
REMARK VINA RESULT:      -8.6     16.059     18.057
REMARK  3 active torsions:
REMARK  status: ('A' for Active; 'I' for Inactive)
REMARK    1  A    between atoms: O_2  and  C_3 
REMARK       I    between atoms: N_13  and  C_14 
REMARK       I    between atoms: C_14  and  N_15 
REMARK    2  A    between atoms: N_15  and  C_16 
REMARK    3  A    between atoms: C_22  and  C_23 
ROOT
HETATM    1  C   UNL     1      44.139 -31.147  -6.534  1.00  0.00     0.069 A 
HETATM    2  C   UNL     1      44.381 -30.164  -5.566  1.00  0.00     0.051 A 
HETATM    3  C   UNL     1      44.570 -30.545  -4.219  1.00  0.00     0.002 A 
HETATM    4  C   UNL     1      44.524 -31.902  -3.890  1.00  0.00     0.043 A 
HETATM    5  N   UNL     1      44.737 -32.008  -2.531  1.00  0.00    -0.356 N 
HETATM    6  H   UNL     1      44.754 -32.882  -2.023  1.00  0.00     0.166 HD
HETATM    7  C   UNL     1      44.873 -30.761  -1.985  1.00  0.00     0.045 A 
HETATM    8  C   UNL     1      44.821 -29.837  -3.014  1.00  0.00    -0.019 A 
HETATM    9  C   UNL     1      45.029 -28.378  -2.761  1.00  0.00     0.061 C 
HETATM   10  C   UNL     1      44.904 -28.085  -1.251  1.00  0.00     0.133 C 
HETATM   11  N   UNL     1      45.613 -29.096  -0.439  1.00  0.00    -0.320 N 
HETATM   12  C   UNL     1      46.906 -28.795  -0.040  1.00  0.00     0.319 C 
HETATM   13  N   UNL     1      47.534 -29.772   0.690  1.00  0.00    -0.338 N 
HETATM   14  O   UNL     1      47.448 -27.726  -0.309  1.00  0.00    -0.247 OA
HETATM   15  C   UNL     1      45.063 -30.470  -0.519  1.00  0.00     0.172 C 
HETATM   16  C   UNL     1      44.305 -32.900  -4.844  1.00  0.00     0.033 A 
HETATM   17  C   UNL     1      44.113 -32.493  -6.168  1.00  0.00     0.039 A 
HETATM   18  H   UNL     1      46.920 -30.313   1.275  1.00  0.00     0.164 HD
ENDROOT
BRANCH  15  19
HETATM   19  C   UNL     1      43.799 -30.592   0.340  1.00  0.00    -0.029 A 
HETATM   20  C   UNL     1      43.239 -29.509   1.046  1.00  0.00     0.012 A 
HETATM   21  C   UNL     1      42.086 -29.673   1.818  1.00  0.00     0.043 A 
HETATM   22  C   UNL     1      41.486 -30.921   1.900  1.00  0.00     0.116 A 
HETATM   23  F   UNL     1      40.383 -31.078   2.646  1.00  0.00    -0.206 F 
HETATM   24  C   UNL     1      42.017 -32.010   1.227  1.00  0.00     0.043 A 
HETATM   25  C   UNL     1      43.167 -31.847   0.451  1.00  0.00     0.012 A 
ENDBRANCH  15  19
BRANCH  13  26
HETATM   26  C   UNL     1      48.887 -29.646   1.203  1.00  0.00     0.086 C 
HETATM   27  C   UNL     1      49.011 -29.652   2.729  1.00  0.00     0.025 C 
HETATM   28  C   UNL     1      50.442 -30.112   2.959  1.00  0.00     0.002 C 
HETATM   29  C   UNL     1      50.627 -31.205   1.919  1.00  0.00     0.002 C 
HETATM   30  C   UNL     1      49.867 -30.712   0.689  1.00  0.00     0.025 C 
ENDBRANCH  13  26
BRANCH   1  31
HETATM   31  O   UNL     1      43.921 -30.917  -7.866  1.00  0.00    -0.356 OA
HETATM   32  C   UNL     1      44.128 -32.014  -8.747  1.00  0.00     0.210 C 
ENDBRANCH   1  31
TORSDOF 3
ENDMDL
MODEL 4
REMARK VINA RESULT:      -8.4      3.223      7.899
REMARK  3 active torsions:
REMARK  status: ('A' for Active; 'I' for Inactive)
REMARK    1  A    between atoms: O_2  and  C_3 
REMARK       I    between atoms: N_13  and  C_14 
REMARK       I    between atoms: C_14  and  N_15 
REMARK    2  A    between atoms: N_15  and  C_16 
REMARK    3  A    between atoms: C_22  and  C_23 
ROOT
HETATM    1  C   UNL     1      44.879 -10.383   8.711  1.00  0.00     0.069 A 
HETATM    2  C   UNL     1      43.764 -11.106   8.270  1.00  0.00     0.051 A 
HETATM    3  C   UNL     1      43.758 -11.650   6.967  1.00  0.00     0.002 A 
HETATM    4  C   UNL     1      44.878 -11.464   6.153  1.00  0.00     0.043 A 
HETATM    5  N   UNL     1      44.626 -12.085   4.948  1.00  0.00    -0.356 N 
HETATM    6  H   UNL     1      45.271 -12.105   4.170  1.00  0.00     0.166 HD
HETATM    7  C   UNL     1      43.367 -12.622   4.958  1.00  0.00     0.045 A 
HETATM    8  C   UNL     1      42.823 -12.408   6.213  1.00  0.00    -0.019 A 
HETATM    9  C   UNL     1      41.480 -12.954   6.582  1.00  0.00     0.061 C 
HETATM   10  C   UNL     1      40.722 -13.386   5.309  1.00  0.00     0.133 C 
HETATM   11  N   UNL     1      41.601 -14.121   4.375  1.00  0.00    -0.320 N 
HETATM   12  C   UNL     1      41.580 -15.505   4.442  1.00  0.00     0.319 C 
HETATM   13  N   UNL     1      42.428 -16.145   3.573  1.00  0.00    -0.338 N 
HETATM   14  O   UNL     1      40.846 -16.118   5.213  1.00  0.00    -0.247 OA
HETATM   15  C   UNL     1      42.715 -13.331   3.800  1.00  0.00     0.172 C 
HETATM   16  C   UNL     1      46.010 -10.764   6.582  1.00  0.00     0.033 A 
HETATM   17  C   UNL     1      45.985 -10.229   7.874  1.00  0.00     0.039 A 
HETATM   18  H   UNL     1      42.566 -15.667   2.699  1.00  0.00     0.164 HD
ENDROOT
BRANCH  15  19
HETATM   19  C   UNL     1      42.202 -12.417   2.681  1.00  0.00    -0.029 A 
HETATM   20  C   UNL     1      42.254 -11.011   2.747  1.00  0.00     0.012 A 
HETATM   21  C   UNL     1      41.769 -10.223   1.700  1.00  0.00     0.043 A 
HETATM   22  C   UNL     1      41.220 -10.830   0.580  1.00  0.00     0.116 A 
HETATM   23  F   UNL     1      40.750 -10.072  -0.420  1.00  0.00    -0.206 F 
HETATM   24  C   UNL     1      41.143 -12.211   0.487  1.00  0.00     0.043 A 
HETATM   25  C   UNL     1      41.632 -13.000   1.531  1.00  0.00     0.012 A 
ENDBRANCH  15  19
BRANCH  13  26
HETATM   26  C   UNL     1      42.549 -17.590   3.487  1.00  0.00     0.086 C 
HETATM   27  C   UNL     1      42.845 -18.139   2.089  1.00  0.00     0.025 C 
HETATM   28  C   UNL     1      43.495 -19.483   2.375  1.00  0.00     0.002 C 
HETATM   29  C   UNL     1      44.396 -19.187   3.564  1.00  0.00     0.002 C 
HETATM   30  C   UNL     1      43.606 -18.199   4.420  1.00  0.00     0.025 C 
ENDBRANCH  13  26
BRANCH   1  31
HETATM   31  O   UNL     1      45.009  -9.789   9.938  1.00  0.00    -0.356 OA
HETATM   32  C   UNL     1      43.868  -9.817  10.787  1.00  0.00     0.210 C 
ENDBRANCH   1  31
TORSDOF 3
ENDMDL
MODEL 5
REMARK VINA RESULT:      -8.4      3.832      6.455
REMARK  3 active torsions:
REMARK  status: ('A' for Active; 'I' for Inactive)
REMARK    1  A    between atoms: O_2  and  C_3 
REMARK       I    between atoms: N_13  and  C_14 
REMARK       I    between atoms: C_14  and  N_15 
REMARK    2  A    between atoms: N_15  and  C_16 
REMARK    3  A    between atoms: C_22  and  C_23 
ROOT
HETATM    1  C   UNL     1      42.649 -17.258   2.385  1.00  0.00     0.069 A 
HETATM    2  C   UNL     1      41.973 -16.646   3.448  1.00  0.00     0.051 A 
HETATM    3  C   UNL     1      42.112 -15.256   3.652  1.00  0.00     0.002 A 
HETATM    4  C   UNL     1      42.913 -14.521   2.775  1.00  0.00     0.043 A 
HETATM    5  N   UNL     1      42.883 -13.205   3.184  1.00  0.00    -0.356 N 
HETATM    6  H   UNL     1      43.379 -12.453   2.727  1.00  0.00     0.166 HD
HETATM    7  C   UNL     1      42.122 -13.090   4.317  1.00  0.00     0.045 A 
HETATM    8  C   UNL     1      41.593 -14.337   4.604  1.00  0.00    -0.019 A 
HETATM    9  C   UNL     1      40.639 -14.535   5.737  1.00  0.00     0.061 C 
HETATM   10  C   UNL     1      40.682 -13.312   6.678  1.00  0.00     0.133 C 
HETATM   11  N   UNL     1      40.695 -12.042   5.922  1.00  0.00    -0.320 N 
HETATM   12  C   UNL     1      39.478 -11.412   5.720  1.00  0.00     0.319 C 
HETATM   13  N   UNL     1      39.535 -10.250   4.992  1.00  0.00    -0.338 N 
HETATM   14  O   UNL     1      38.424 -11.853   6.170  1.00  0.00    -0.247 OA
HETATM   15  C   UNL     1      41.900 -11.816   5.089  1.00  0.00     0.172 C 
HETATM   16  C   UNL     1      43.579 -15.109   1.696  1.00  0.00     0.033 A 
HETATM   17  C   UNL     1      43.430 -16.489   1.522  1.00  0.00     0.039 A 
HETATM   18  H   UNL     1      40.382  -9.721   5.119  1.00  0.00     0.164 HD
ENDROOT
BRANCH  15  19
HETATM   19  C   UNL     1      43.078 -11.368   5.963  1.00  0.00    -0.029 A 
HETATM   20  C   UNL     1      44.356 -11.957   5.896  1.00  0.00     0.012 A 
HETATM   21  C   UNL     1      45.396 -11.514   6.717  1.00  0.00     0.043 A 
HETATM   22  C   UNL     1      45.169 -10.485   7.619  1.00  0.00     0.116 A 
HETATM   23  F   UNL     1      46.167 -10.065   8.409  1.00  0.00    -0.206 F 
HETATM   24  C   UNL     1      43.921  -9.890   7.718  1.00  0.00     0.043 A 
HETATM   25  C   UNL     1      42.881 -10.328   6.894  1.00  0.00     0.012 A 
ENDBRANCH  15  19
BRANCH  13  26
HETATM   26  C   UNL     1      38.370  -9.442   4.678  1.00  0.00     0.086 C 
HETATM   27  C   UNL     1      38.262  -8.122   5.447  1.00  0.00     0.025 C 
HETATM   28  C   UNL     1      37.387  -7.266   4.546  1.00  0.00     0.002 C 
HETATM   29  C   UNL     1      37.899  -7.592   3.153  1.00  0.00     0.002 C 
HETATM   30  C   UNL     1      38.224  -9.084   3.191  1.00  0.00     0.025 C 
ENDBRANCH  13  26
BRANCH   1  31
HETATM   31  O   UNL     1      42.618 -18.593   2.084  1.00  0.00    -0.356 OA
HETATM   32  C   UNL     1      43.663 -19.395   2.622  1.00  0.00     0.210 C 
ENDBRANCH   1  31
TORSDOF 3
ENDMDL
MODEL 6
REMARK VINA RESULT:      -8.2      2.553      7.104
REMARK  3 active torsions:
REMARK  status: ('A' for Active; 'I' for Inactive)
REMARK    1  A    between atoms: O_2  and  C_3 
REMARK       I    between atoms: N_13  and  C_14 
REMARK       I    between atoms: C_14  and  N_15 
REMARK    2  A    between atoms: N_15  and  C_16 
REMARK    3  A    between atoms: C_22  and  C_23 
ROOT
HETATM    1  C   UNL     1      39.931  -9.785   6.987  1.00  0.00     0.069 A 
HETATM    2  C   UNL     1      40.713 -10.026   5.850  1.00  0.00     0.051 A 
HETATM    3  C   UNL     1      40.490 -11.194   5.088  1.00  0.00     0.002 A 
HETATM    4  C   UNL     1      39.481 -12.075   5.483  1.00  0.00     0.043 A 
HETATM    5  N   UNL     1      39.466 -13.122   4.585  1.00  0.00    -0.356 N 
HETATM    6  H   UNL     1      38.832 -13.907   4.634  1.00  0.00     0.166 HD
HETATM    7  C   UNL     1      40.460 -12.951   3.659  1.00  0.00     0.045 A 
HETATM    8  C   UNL     1      41.081 -11.742   3.918  1.00  0.00    -0.019 A 
HETATM    9  C   UNL     1      42.160 -11.215   3.027  1.00  0.00     0.061 C 
HETATM   10  C   UNL     1      42.683 -12.344   2.113  1.00  0.00     0.133 C 
HETATM   11  N   UNL     1      41.577 -13.150   1.556  1.00  0.00    -0.320 N 
HETATM   12  C   UNL     1      41.117 -12.809   0.294  1.00  0.00     0.319 C 
HETATM   13  N   UNL     1      40.074 -13.569  -0.173  1.00  0.00    -0.338 N 
HETATM   14  O   UNL     1      41.615 -11.902  -0.367  1.00  0.00    -0.247 OA
HETATM   15  C   UNL     1      40.790 -13.917   2.551  1.00  0.00     0.172 C 
HETATM   16  C   UNL     1      38.677 -11.843   6.602  1.00  0.00     0.033 A 
HETATM   17  C   UNL     1      38.924 -10.683   7.343  1.00  0.00     0.039 A 
HETATM   18  H   UNL     1      40.085 -14.526   0.138  1.00  0.00     0.164 HD
ENDROOT
BRANCH  15  19
HETATM   19  C   UNL     1      41.556 -15.172   2.986  1.00  0.00    -0.029 A 
HETATM   20  C   UNL     1      41.829 -15.482   4.333  1.00  0.00     0.012 A 
HETATM   21  C   UNL     1      42.535 -16.638   4.677  1.00  0.00     0.043 A 
HETATM   22  C   UNL     1      42.982 -17.493   3.679  1.00  0.00     0.116 A 
HETATM   23  F   UNL     1      43.663 -18.598   4.011  1.00  0.00    -0.206 F 
HETATM   24  C   UNL     1      42.739 -17.213   2.343  1.00  0.00     0.043 A 
HETATM   25  C   UNL     1      42.030 -16.060   1.998  1.00  0.00     0.012 A 
ENDBRANCH  15  19
BRANCH  13  26
HETATM   26  C   UNL     1      39.456 -13.373  -1.472  1.00  0.00     0.086 C 
HETATM   27  C   UNL     1      39.044 -14.655  -2.202  1.00  0.00     0.025 C 
HETATM   28  C   UNL     1      37.951 -14.181  -3.146  1.00  0.00     0.002 C 
HETATM   29  C   UNL     1      37.163 -13.195  -2.297  1.00  0.00     0.002 C 
HETATM   30  C   UNL     1      38.214 -12.469  -1.459  1.00  0.00     0.025 C 
ENDBRANCH  13  26
BRANCH   1  31
HETATM   31  O   UNL     1      40.052  -8.707   7.822  1.00  0.00    -0.356 OA
HETATM   32  C   UNL     1      39.377  -8.788   9.072  1.00  0.00     0.210 C 
ENDBRANCH   1  31
TORSDOF 3
ENDMDL
MODEL 7
REMARK VINA RESULT:      -8.0      4.164      6.193
REMARK  3 active torsions:
REMARK  status: ('A' for Active; 'I' for Inactive)
REMARK    1  A    between atoms: O_2  and  C_3 
REMARK       I    between atoms: N_13  and  C_14 
REMARK       I    between atoms: C_14  and  N_15 
REMARK    2  A    between atoms: N_15  and  C_16 
REMARK    3  A    between atoms: C_22  and  C_23 
ROOT
HETATM    1  C   UNL     1      41.250  -6.318  -0.197  1.00  0.00     0.069 A 
HETATM    2  C   UNL     1      40.402  -7.249   0.417  1.00  0.00     0.051 A 
HETATM    3  C   UNL     1      40.635  -8.629   0.233  1.00  0.00     0.002 A 
HETATM    4  C   UNL     1      41.720  -9.032  -0.550  1.00  0.00     0.043 A 
HETATM    5  N   UNL     1      41.730 -10.411  -0.571  1.00  0.00    -0.356 N 
HETATM    6  H   UNL     1      42.411 -10.969  -1.068  1.00  0.00     0.166 HD
HETATM    7  C   UNL     1      40.662 -10.893   0.137  1.00  0.00     0.045 A 
HETATM    8  C   UNL     1      39.993  -9.813   0.686  1.00  0.00    -0.019 A 
HETATM    9  C   UNL     1      38.823 -10.004   1.597  1.00  0.00     0.061 C 
HETATM   10  C   UNL     1      38.300 -11.452   1.482  1.00  0.00     0.133 C 
HETATM   11  N   UNL     1      39.408 -12.431   1.466  1.00  0.00    -0.320 N 
HETATM   12  C   UNL     1      39.752 -13.016   2.674  1.00  0.00     0.319 C 
HETATM   13  N   UNL     1      40.801 -13.900   2.617  1.00  0.00    -0.338 N 
HETATM   14  O   UNL     1      39.156 -12.773   3.720  1.00  0.00    -0.247 OA
HETATM   15  C   UNL     1      40.308 -12.348   0.292  1.00  0.00     0.172 C 
HETATM   16  C   UNL     1      42.590  -8.119  -1.154  1.00  0.00     0.033 A 
HETATM   17  C   UNL     1      42.331  -6.759  -0.961  1.00  0.00     0.039 A 
HETATM   18  H   UNL     1      40.868 -14.409   1.752  1.00  0.00     0.164 HD
ENDROOT
BRANCH  15  19
HETATM   19  C   UNL     1      39.651 -12.994  -0.933  1.00  0.00    -0.029 A 
HETATM   20  C   UNL     1      39.063 -12.251  -1.975  1.00  0.00     0.012 A 
HETATM   21  C   UNL     1      38.473 -12.889  -3.070  1.00  0.00     0.043 A 
HETATM   22  C   UNL     1      38.457 -14.275  -3.131  1.00  0.00     0.116 A 
HETATM   23  F   UNL     1      37.886 -14.884  -4.179  1.00  0.00    -0.206 F 
HETATM   24  C   UNL     1      39.017 -15.037  -2.118  1.00  0.00     0.043 A 
HETATM   25  C   UNL     1      39.611 -14.401  -1.025  1.00  0.00     0.012 A 
ENDBRANCH  15  19
BRANCH  13  26
HETATM   26  C   UNL     1      41.309 -14.618   3.772  1.00  0.00     0.086 C 
HETATM   27  C   UNL     1      40.888 -16.088   3.866  1.00  0.00     0.025 C 
HETATM   28  C   UNL     1      41.975 -16.706   4.731  1.00  0.00     0.002 C 
HETATM   29  C   UNL     1      43.244 -16.041   4.221  1.00  0.00     0.002 C 
HETATM   30  C   UNL     1      42.838 -14.601   3.913  1.00  0.00     0.025 C 
ENDBRANCH  13  26
BRANCH   1  31
HETATM   31  O   UNL     1      41.129  -4.957  -0.118  1.00  0.00    -0.356 OA
HETATM   32  C   UNL     1      41.738  -4.198  -1.156  1.00  0.00     0.210 C 
ENDBRANCH   1  31
TORSDOF 3
ENDMDL
MODEL 8
REMARK VINA RESULT:      -7.9      5.134      9.447
REMARK  3 active torsions:
REMARK  status: ('A' for Active; 'I' for Inactive)
REMARK    1  A    between atoms: O_2  and  C_3 
REMARK       I    between atoms: N_13  and  C_14 
REMARK       I    between atoms: C_14  and  N_15 
REMARK    2  A    between atoms: N_15  and  C_16 
REMARK    3  A    between atoms: C_22  and  C_23 
ROOT
HETATM    1  C   UNL     1      38.685  -6.521  11.150  1.00  0.00     0.069 A 
HETATM    2  C   UNL     1      39.042  -6.812   9.828  1.00  0.00     0.051 A 
HETATM    3  C   UNL     1      39.905  -7.898   9.563  1.00  0.00     0.002 A 
HETATM    4  C   UNL     1      40.370  -8.666  10.633  1.00  0.00     0.043 A 
HETATM    5  N   UNL     1      41.183  -9.652  10.116  1.00  0.00    -0.356 N 
HETATM    6  H   UNL     1      41.657 -10.351  10.671  1.00  0.00     0.166 HD
HETATM    7  C   UNL     1      41.281  -9.507   8.758  1.00  0.00     0.045 A 
HETATM    8  C   UNL     1      40.462  -8.457   8.382  1.00  0.00    -0.019 A 
HETATM    9  C   UNL     1      40.273  -8.094   6.944  1.00  0.00     0.061 C 
HETATM   10  C   UNL     1      41.369  -8.762   6.086  1.00  0.00     0.133 C 
HETATM   11  N   UNL     1      41.589 -10.169   6.483  1.00  0.00    -0.320 N 
HETATM   12  C   UNL     1      40.914 -11.143   5.764  1.00  0.00     0.319 C 
HETATM   13  N   UNL     1      41.129 -12.432   6.182  1.00  0.00    -0.338 N 
HETATM   14  O   UNL     1      40.187 -10.875   4.812  1.00  0.00    -0.247 OA
HETATM   15  C   UNL     1      42.125 -10.364   7.851  1.00  0.00     0.172 C 
HETATM   16  C   UNL     1      40.009  -8.405  11.958  1.00  0.00     0.033 A 
HETATM   17  C   UNL     1      39.160  -7.319  12.192  1.00  0.00     0.039 A 
HETATM   18  H   UNL     1      42.049 -12.600   6.554  1.00  0.00     0.164 HD
ENDROOT
BRANCH  15  19
HETATM   19  C   UNL     1      43.628 -10.065   7.884  1.00  0.00    -0.029 A 
HETATM   20  C   UNL     1      44.170  -8.895   8.450  1.00  0.00     0.012 A 
HETATM   21  C   UNL     1      45.549  -8.668   8.452  1.00  0.00     0.043 A 
HETATM   22  C   UNL     1      46.400  -9.604   7.882  1.00  0.00     0.116 A 
HETATM   23  F   UNL     1      47.722  -9.382   7.880  1.00  0.00    -0.206 F 
HETATM   24  C   UNL     1      45.900 -10.762   7.307  1.00  0.00     0.043 A 
HETATM   25  C   UNL     1      44.521 -10.992   7.308  1.00  0.00     0.012 A 
ENDBRANCH  15  19
BRANCH  13  26
HETATM   26  C   UNL     1      40.519 -13.591   5.556  1.00  0.00     0.086 C 
HETATM   27  C   UNL     1      41.287 -14.172   4.365  1.00  0.00     0.025 C 
HETATM   28  C   UNL     1      40.809 -15.615   4.315  1.00  0.00     0.002 C 
HETATM   29  C   UNL     1      40.752 -16.013   5.782  1.00  0.00     0.002 C 
HETATM   30  C   UNL     1      40.253 -14.766   6.509  1.00  0.00     0.025 C 
ENDBRANCH  13  26
BRANCH   1  31
HETATM   31  O   UNL     1      37.875  -5.491  11.549  1.00  0.00    -0.356 OA
HETATM   32  C   UNL     1      37.340  -5.570  12.865  1.00  0.00     0.210 C 
ENDBRANCH   1  31
TORSDOF 3
ENDMDL
MODEL 9
REMARK VINA RESULT:      -7.6      3.797      7.216
REMARK  3 active torsions:
REMARK  status: ('A' for Active; 'I' for Inactive)
REMARK    1  A    between atoms: O_2  and  C_3 
REMARK       I    between atoms: N_13  and  C_14 
REMARK       I    between atoms: C_14  and  N_15 
REMARK    2  A    between atoms: N_15  and  C_16 
REMARK    3  A    between atoms: C_22  and  C_23 
ROOT
HETATM    1  C   UNL     1      42.893 -15.881   5.359  1.00  0.00     0.069 A 
HETATM    2  C   UNL     1      42.998 -14.718   4.587  1.00  0.00     0.051 A 
HETATM    3  C   UNL     1      41.849 -14.199   3.952  1.00  0.00     0.002 A 
HETATM    4  C   UNL     1      40.628 -14.855   4.124  1.00  0.00     0.043 A 
HETATM    5  N   UNL     1      39.675 -14.157   3.413  1.00  0.00    -0.356 N 
HETATM    6  H   UNL     1      38.699 -14.415   3.362  1.00  0.00     0.166 HD
HETATM    7  C   UNL     1      40.261 -13.105   2.762  1.00  0.00     0.045 A 
HETATM    8  C   UNL     1      41.599 -13.078   3.115  1.00  0.00    -0.019 A 
HETATM    9  C   UNL     1      42.507 -11.989   2.640  1.00  0.00     0.061 C 
HETATM   10  C   UNL     1      41.845 -11.226   1.473  1.00  0.00     0.133 C 
HETATM   11  N   UNL     1      40.418 -10.950   1.743  1.00  0.00    -0.320 N 
HETATM   12  C   UNL     1      40.102  -9.712   2.278  1.00  0.00     0.319 C 
HETATM   13  N   UNL     1      38.770  -9.508   2.534  1.00  0.00    -0.338 N 
HETATM   14  O   UNL     1      40.951  -8.851   2.497  1.00  0.00    -0.247 OA
HETATM   15  C   UNL     1      39.550 -12.148   1.842  1.00  0.00     0.172 C 
HETATM   16  C   UNL     1      40.498 -16.005   4.908  1.00  0.00     0.033 A 
HETATM   17  C   UNL     1      41.654 -16.502   5.519  1.00  0.00     0.039 A 
HETATM   18  H   UNL     1      38.148  -9.975   1.895  1.00  0.00     0.164 HD
ENDROOT
BRANCH  15  19
HETATM   19  C   UNL     1      39.234 -12.697   0.446  1.00  0.00    -0.029 A 
HETATM   20  C   UNL     1      38.354 -12.062  -0.452  1.00  0.00     0.012 A 
HETATM   21  C   UNL     1      38.097 -12.606  -1.714  1.00  0.00     0.043 A 
HETATM   22  C   UNL     1      38.709 -13.793  -2.088  1.00  0.00     0.116 A 
HETATM   23  F   UNL     1      38.457 -14.316  -3.295  1.00  0.00    -0.206 F 
HETATM   24  C   UNL     1      39.573 -14.450  -1.224  1.00  0.00     0.043 A 
HETATM   25  C   UNL     1      39.834 -13.905   0.035  1.00  0.00     0.012 A 
ENDBRANCH  15  19
BRANCH  13  26
HETATM   26  C   UNL     1      38.238  -8.277   3.091  1.00  0.00     0.086 C 
HETATM   27  C   UNL     1      36.886  -7.834   2.524  1.00  0.00     0.025 C 
HETATM   28  C   UNL     1      36.317  -6.958   3.630  1.00  0.00     0.002 C 
HETATM   29  C   UNL     1      36.692  -7.710   4.896  1.00  0.00     0.002 C 
HETATM   30  C   UNL     1      38.082  -8.281   4.619  1.00  0.00     0.025 C 
ENDBRANCH  13  26
BRANCH   1  31
HETATM   31  O   UNL     1      43.926 -16.500   6.012  1.00  0.00    -0.356 OA
HETATM   32  C   UNL     1      43.574 -17.466   6.996  1.00  0.00     0.210 C 
ENDBRANCH   1  31
TORSDOF 3
ENDMDL
MODEL 10
REMARK VINA RESULT:      -7.6      4.388      7.421
REMARK  3 active torsions:
REMARK  status: ('A' for Active; 'I' for Inactive)
REMARK    1  A    between atoms: O_2  and  C_3 
REMARK       I    between atoms: N_13  and  C_14 
REMARK       I    between atoms: C_14  and  N_15 
REMARK    2  A    between atoms: N_15  and  C_16 
REMARK    3  A    between atoms: C_22  and  C_23 
ROOT
HETATM    1  C   UNL     1      43.315 -16.463   5.618  1.00  0.00     0.069 A 
HETATM    2  C   UNL     1      43.560 -15.086   5.677  1.00  0.00     0.051 A 
HETATM    3  C   UNL     1      42.488 -14.197   5.912  1.00  0.00     0.002 A 
HETATM    4  C   UNL     1      41.206 -14.721   6.095  1.00  0.00     0.043 A 
HETATM    5  N   UNL     1      40.349 -13.661   6.307  1.00  0.00    -0.356 N 
HETATM    6  H   UNL     1      39.356 -13.754   6.467  1.00  0.00     0.166 HD
HETATM    7  C   UNL     1      41.041 -12.483   6.222  1.00  0.00     0.045 A 
HETATM    8  C   UNL     1      42.377 -12.786   6.025  1.00  0.00    -0.019 A 
HETATM    9  C   UNL     1      43.419 -11.714   5.977  1.00  0.00     0.061 C 
HETATM   10  C   UNL     1      42.747 -10.338   5.786  1.00  0.00     0.133 C 
HETATM   11  N   UNL     1      41.555 -10.189   6.649  1.00  0.00    -0.320 N 
HETATM   12  C   UNL     1      41.731  -9.551   7.867  1.00  0.00     0.319 C 
HETATM   13  N   UNL     1      40.604  -9.457   8.644  1.00  0.00    -0.338 N 
HETATM   14  O   UNL     1      42.812  -9.090   8.221  1.00  0.00    -0.247 OA
HETATM   15  C   UNL     1      40.435 -11.109   6.343  1.00  0.00     0.172 C 
HETATM   16  C   UNL     1      40.943 -16.093   6.061  1.00  0.00     0.033 A 
HETATM   17  C   UNL     1      42.022 -16.950   5.818  1.00  0.00     0.039 A 
HETATM   18  H   UNL     1      39.747  -9.364   8.125  1.00  0.00     0.164 HD
ENDROOT
BRANCH  15  19
HETATM   19  C   UNL     1      39.666 -10.624   5.108  1.00  0.00    -0.029 A 
HETATM   20  C   UNL     1      39.705 -11.286   3.866  1.00  0.00     0.012 A 
HETATM   21  C   UNL     1      38.987 -10.801   2.769  1.00  0.00     0.043 A 
HETATM   22  C   UNL     1      38.231  -9.646   2.899  1.00  0.00     0.116 A 
HETATM   23  F   UNL     1      37.548  -9.179   1.845  1.00  0.00    -0.206 F 
HETATM   24  C   UNL     1      38.179  -8.963   4.105  1.00  0.00     0.043 A 
HETATM   25  C   UNL     1      38.891  -9.450   5.204  1.00  0.00     0.012 A 
ENDBRANCH  15  19
BRANCH  13  26
HETATM   26  C   UNL     1      40.580  -8.821   9.949  1.00  0.00     0.086 C 
HETATM   27  C   UNL     1      39.218  -8.272  10.386  1.00  0.00     0.025 C 
HETATM   28  C   UNL     1      39.326  -8.243  11.902  1.00  0.00     0.002 C 
HETATM   29  C   UNL     1      40.051  -9.540  12.224  1.00  0.00     0.002 C 
HETATM   30  C   UNL     1      41.074  -9.708  11.102  1.00  0.00     0.025 C 
ENDBRANCH  13  26
BRANCH   1  31
HETATM   31  O   UNL     1      44.254 -17.431   5.380  1.00  0.00    -0.356 OA
HETATM   32  C   UNL     1      44.060 -18.240   4.225  1.00  0.00     0.210 C 
ENDBRANCH   1  31
TORSDOF 3
ENDMDL
