MODEL 1
REMARK VINA RESULT:      -8.5      0.000      0.000
REMARK  6 active torsions:
REMARK  status: ('A' for Active; 'I' for Inactive)
REMARK    1  A    between atoms: C_2  and  C_3 
REMARK    2  A    between atoms: C_8  and  C_9 
REMARK    3  A    between atoms: C_9  and  N_10 
REMARK    4  A    between atoms: C_12  and  C_13 
REMARK    5  A    between atoms: C_13  and  N_14 
REMARK       I    between atoms: N_14  and  C_15 
REMARK    6  A    between atoms: C_15  and  C_16 
ROOT
HETATM    1  N   UNL     1      43.797 -12.421   5.817  1.00  0.00    -0.061 N 
HETATM    2  H   UNL     1      44.702 -12.795   5.509  1.00  0.00     0.280 HD
HETATM    3  C   UNL     1      42.754 -13.528   5.565  1.00  0.00     0.206 C 
HETATM    4  C   UNL     1      42.810 -13.892   4.067  1.00  0.00     0.035 C 
HETATM    5  C   UNL     1      42.595 -12.684   3.164  1.00  0.00     0.004 C 
HETATM    6  C   UNL     1      43.583 -11.576   3.491  1.00  0.00     0.028 C 
HETATM    7  C   UNL     1      43.517 -11.199   4.962  1.00  0.00     0.236 C 
ENDROOT
BRANCH   1   8
HETATM    8  C   UNL     1      44.012 -12.015   7.274  1.00  0.00     0.277 C 
BRANCH   8   9
HETATM    9  C   UNL     1      44.950 -10.888   7.525  1.00  0.00     0.012 A 
HETATM   10  C   UNL     1      44.743  -9.585   8.103  1.00  0.00     0.071 A 
HETATM   11  N   UNL     1      45.907  -8.916   8.167  1.00  0.00    -0.178 NA
HETATM   12  N   UNL     1      46.810  -9.698   7.584  1.00  0.00    -0.288 N 
HETATM   13  H   UNL     1      47.765  -9.359   7.500  1.00  0.00     0.188 HD
HETATM   14  C   UNL     1      46.288 -10.881   7.171  1.00  0.00     0.120 A 
BRANCH  10  15
HETATM   15  C   UNL     1      43.517  -8.839   8.649  1.00  0.00    -0.004 C 
HETATM   16  C   UNL     1      42.967  -9.583   9.893  1.00  0.00     0.021 C 
HETATM   17  C   UNL     1      42.411  -8.801   7.571  1.00  0.00     0.021 C 
HETATM   18  C   UNL     1      43.785  -7.393   9.091  1.00  0.00     0.021 C 
ENDBRANCH  10  15
ENDBRANCH   8   9
ENDBRANCH   1   8
BRANCH   3  19
HETATM   19  C   UNL     1      43.037 -14.801   6.419  1.00  0.00     0.156 C 
BRANCH  19  20
HETATM   20  N   UNL     1      42.936 -16.057   5.694  1.00  0.00    -0.355 N 
HETATM   21  C   UNL     1      44.057 -16.848   5.510  1.00  0.00     0.251 C 
HETATM   22  O   UNL     1      45.129 -16.578   6.044  1.00  0.00    -0.268 OA
HETATM   23  H   UNL     1      42.179 -16.166   5.026  1.00  0.00     0.162 HD
BRANCH  21  24
HETATM   24  C   UNL     1      43.923 -18.027   4.615  1.00  0.00     0.032 A 
HETATM   25  C   UNL     1      44.116 -19.301   5.166  1.00  0.00     0.017 A 
HETATM   26  C   UNL     1      43.993 -20.437   4.366  1.00  0.00     0.001 A 
HETATM   27  C   UNL     1      43.669 -20.307   3.016  1.00  0.00     0.000 A 
HETATM   28  C   UNL     1      43.461 -19.043   2.466  1.00  0.00     0.001 A 
HETATM   29  C   UNL     1      43.583 -17.901   3.262  1.00  0.00     0.017 A 
ENDBRANCH  21  24
ENDBRANCH  19  20
ENDBRANCH   3  19
TORSDOF 6
ENDMDL
MODEL 2
REMARK VINA RESULT:      -8.4      0.930      1.630
REMARK  6 active torsions:
REMARK  status: ('A' for Active; 'I' for Inactive)
REMARK    1  A    between atoms: C_2  and  C_3 
REMARK    2  A    between atoms: C_8  and  C_9 
REMARK    3  A    between atoms: C_9  and  N_10 
REMARK    4  A    between atoms: C_12  and  C_13 
REMARK    5  A    between atoms: C_13  and  N_14 
REMARK       I    between atoms: N_14  and  C_15 
REMARK    6  A    between atoms: C_15  and  C_16 
ROOT
HETATM    1  N   UNL     1      43.124 -12.009   5.016  1.00  0.00    -0.061 N 
HETATM    2  H   UNL     1      44.079 -12.066   4.643  1.00  0.00     0.280 HD
HETATM    3  C   UNL     1      42.457 -13.368   4.729  1.00  0.00     0.206 C 
HETATM    4  C   UNL     1      42.527 -13.613   3.207  1.00  0.00     0.035 C 
HETATM    5  C   UNL     1      41.897 -12.483   2.404  1.00  0.00     0.004 C 
HETATM    6  C   UNL     1      42.516 -11.144   2.768  1.00  0.00     0.028 C 
HETATM    7  C   UNL     1      42.431 -10.887   4.264  1.00  0.00     0.236 C 
ENDROOT
BRANCH   1   8
HETATM    8  C   UNL     1      43.295 -11.637   6.488  1.00  0.00     0.277 C 
BRANCH   8   9
HETATM    9  C   UNL     1      44.627 -11.119   6.899  1.00  0.00     0.012 A 
HETATM   10  C   UNL     1      45.017 -10.223   7.958  1.00  0.00     0.071 A 
HETATM   11  N   UNL     1      46.352 -10.076   7.973  1.00  0.00    -0.178 NA
HETATM   12  N   UNL     1      46.807 -10.763   6.930  1.00  0.00    -0.288 N 
HETATM   13  H   UNL     1      47.806 -10.757   6.741  1.00  0.00     0.188 HD
HETATM   14  C   UNL     1      45.817 -11.394   6.248  1.00  0.00     0.120 A 
BRANCH  10  15
HETATM   15  C   UNL     1      44.251  -9.443   9.036  1.00  0.00    -0.004 C 
HETATM   16  C   UNL     1      44.442  -7.921   8.812  1.00  0.00     0.021 C 
HETATM   17  C   UNL     1      44.806  -9.806  10.431  1.00  0.00     0.021 C 
HETATM   18  C   UNL     1      42.736  -9.692   9.059  1.00  0.00     0.021 C 
ENDBRANCH  10  15
ENDBRANCH   8   9
ENDBRANCH   1   8
BRANCH   3  19
HETATM   19  C   UNL     1      43.168 -14.537   5.476  1.00  0.00     0.156 C 
BRANCH  19  20
HETATM   20  N   UNL     1      43.013 -15.842   4.855  1.00  0.00    -0.355 N 
HETATM   21  C   UNL     1      43.938 -16.843   5.095  1.00  0.00     0.251 C 
HETATM   22  O   UNL     1      44.839 -16.702   5.916  1.00  0.00    -0.268 OA
HETATM   23  H   UNL     1      42.478 -15.903   3.994  1.00  0.00     0.162 HD
BRANCH  21  24
HETATM   24  C   UNL     1      43.818 -18.092   4.296  1.00  0.00     0.032 A 
HETATM   25  C   UNL     1      43.395 -17.987   2.964  1.00  0.00     0.017 A 
HETATM   26  C   UNL     1      43.275 -19.130   2.174  1.00  0.00     0.001 A 
HETATM   27  C   UNL     1      43.584 -20.380   2.708  1.00  0.00     0.000 A 
HETATM   28  C   UNL     1      44.021 -20.489   4.028  1.00  0.00     0.001 A 
HETATM   29  C   UNL     1      44.142 -19.348   4.824  1.00  0.00     0.017 A 
ENDBRANCH  21  24
ENDBRANCH  19  20
ENDBRANCH   3  19
TORSDOF 6
ENDMDL
MODEL 3
REMARK VINA RESULT:      -8.3      2.577      5.413
REMARK  6 active torsions:
REMARK  status: ('A' for Active; 'I' for Inactive)
REMARK    1  A    between atoms: C_2  and  C_3 
REMARK    2  A    between atoms: C_8  and  C_9 
REMARK    3  A    between atoms: C_9  and  N_10 
REMARK    4  A    between atoms: C_12  and  C_13 
REMARK    5  A    between atoms: C_13  and  N_14 
REMARK       I    between atoms: N_14  and  C_15 
REMARK    6  A    between atoms: C_15  and  C_16 
ROOT
HETATM    1  N   UNL     1      41.654 -12.930   6.216  1.00  0.00    -0.061 N 
HETATM    2  H   UNL     1      41.505 -12.700   7.205  1.00  0.00     0.280 HD
HETATM    3  C   UNL     1      42.796 -13.964   6.170  1.00  0.00     0.206 C 
HETATM    4  C   UNL     1      44.023 -13.337   6.864  1.00  0.00     0.035 C 
HETATM    5  C   UNL     1      44.429 -12.006   6.245  1.00  0.00     0.004 C 
HETATM    6  C   UNL     1      43.260 -11.035   6.227  1.00  0.00     0.028 C 
HETATM    7  C   UNL     1      42.054 -11.639   5.525  1.00  0.00     0.236 C 
ENDROOT
BRANCH   1   8
HETATM    8  C   UNL     1      40.292 -13.404   5.710  1.00  0.00     0.277 C 
BRANCH   8   9
HETATM    9  C   UNL     1      39.885 -12.951   4.353  1.00  0.00     0.012 A 
HETATM   10  C   UNL     1      40.155 -13.491   3.045  1.00  0.00     0.071 A 
HETATM   11  N   UNL     1      39.535 -12.760   2.105  1.00  0.00    -0.178 NA
HETATM   12  N   UNL     1      38.964 -11.745   2.747  1.00  0.00    -0.288 N 
HETATM   13  H   UNL     1      38.463 -11.047   2.205  1.00  0.00     0.188 HD
HETATM   14  C   UNL     1      39.154 -11.805   4.090  1.00  0.00     0.120 A 
BRANCH  10  15
HETATM   15  C   UNL     1      40.963 -14.691   2.529  1.00  0.00    -0.004 C 
HETATM   16  C   UNL     1      40.752 -14.840   1.001  1.00  0.00     0.021 C 
HETATM   17  C   UNL     1      40.472 -15.982   3.221  1.00  0.00     0.021 C 
HETATM   18  C   UNL     1      42.479 -14.592   2.752  1.00  0.00     0.021 C 
ENDBRANCH  10  15
ENDBRANCH   8   9
ENDBRANCH   1   8
BRANCH   3  19
HETATM   19  C   UNL     1      42.411 -15.291   6.893  1.00  0.00     0.156 C 
BRANCH  19  20
HETATM   20  N   UNL     1      42.487 -16.481   6.062  1.00  0.00    -0.355 N 
HETATM   21  C   UNL     1      43.701 -17.115   5.861  1.00  0.00     0.251 C 
HETATM   22  O   UNL     1      44.714 -16.768   6.461  1.00  0.00    -0.268 OA
HETATM   23  H   UNL     1      41.770 -16.620   5.356  1.00  0.00     0.162 HD
BRANCH  21  24
HETATM   24  C   UNL     1      43.740 -18.219   4.866  1.00  0.00     0.032 A 
HETATM   25  C   UNL     1      43.967 -19.522   5.332  1.00  0.00     0.017 A 
HETATM   26  C   UNL     1      44.005 -20.590   4.436  1.00  0.00     0.001 A 
HETATM   27  C   UNL     1      43.807 -20.365   3.075  1.00  0.00     0.000 A 
HETATM   28  C   UNL     1      43.564 -19.073   2.608  1.00  0.00     0.001 A 
HETATM   29  C   UNL     1      43.526 -17.999   3.499  1.00  0.00     0.017 A 
ENDBRANCH  21  24
ENDBRANCH  19  20
ENDBRANCH   3  19
TORSDOF 6
ENDMDL
MODEL 4
REMARK VINA RESULT:      -8.0      2.391      7.752
REMARK  6 active torsions:
REMARK  status: ('A' for Active; 'I' for Inactive)
REMARK    1  A    between atoms: C_2  and  C_3 
REMARK    2  A    between atoms: C_8  and  C_9 
REMARK    3  A    between atoms: C_9  and  N_10 
REMARK    4  A    between atoms: C_12  and  C_13 
REMARK    5  A    between atoms: C_13  and  N_14 
REMARK       I    between atoms: N_14  and  C_15 
REMARK    6  A    between atoms: C_15  and  C_16 
ROOT
HETATM    1  N   UNL     1      41.526 -14.037   3.705  1.00  0.00    -0.061 N 
HETATM    2  H   UNL     1      40.982 -14.828   4.069  1.00  0.00     0.280 HD
HETATM    3  C   UNL     1      41.233 -12.838   4.629  1.00  0.00     0.206 C 
HETATM    4  C   UNL     1      39.707 -12.609   4.629  1.00  0.00     0.035 C 
HETATM    5  C   UNL     1      39.146 -12.404   3.228  1.00  0.00     0.004 C 
HETATM    6  C   UNL     1      39.522 -13.561   2.317  1.00  0.00     0.028 C 
HETATM    7  C   UNL     1      41.026 -13.778   2.295  1.00  0.00     0.236 C 
ENDROOT
BRANCH   1   8
HETATM    8  C   UNL     1      42.972 -14.530   3.675  1.00  0.00     0.277 C 
BRANCH   8   9
HETATM    9  C   UNL     1      43.181 -15.982   3.429  1.00  0.00     0.012 A 
HETATM   10  C   UNL     1      43.346 -17.089   4.335  1.00  0.00     0.071 A 
HETATM   11  N   UNL     1      43.463 -18.237   3.647  1.00  0.00    -0.178 NA
HETATM   12  N   UNL     1      43.465 -17.896   2.362  1.00  0.00    -0.288 N 
HETATM   13  H   UNL     1      43.577 -18.626   1.665  1.00  0.00     0.188 HD
HETATM   14  C   UNL     1      43.312 -16.559   2.177  1.00  0.00     0.120 A 
BRANCH  10  15
HETATM   15  C   UNL     1      43.401 -17.222   5.864  1.00  0.00    -0.004 C 
HETATM   16  C   UNL     1      44.671 -16.514   6.402  1.00  0.00     0.021 C 
HETATM   17  C   UNL     1      43.471 -18.716   6.252  1.00  0.00     0.021 C 
HETATM   18  C   UNL     1      42.210 -16.603   6.609  1.00  0.00     0.021 C 
ENDBRANCH  10  15
ENDBRANCH   8   9
ENDBRANCH   1   8
BRANCH   3  19
HETATM   19  C   UNL     1      41.721 -13.093   6.088  1.00  0.00     0.156 C 
BRANCH  19  20
HETATM   20  N   UNL     1      42.498 -12.010   6.668  1.00  0.00    -0.355 N 
HETATM   21  C   UNL     1      43.840 -12.190   6.953  1.00  0.00     0.251 C 
HETATM   22  O   UNL     1      44.436 -13.211   6.622  1.00  0.00    -0.268 OA
HETATM   23  H   UNL     1      42.005 -11.295   7.194  1.00  0.00     0.162 HD
BRANCH  21  24
HETATM   24  C   UNL     1      44.532 -11.108   7.702  1.00  0.00     0.032 A 
HETATM   25  C   UNL     1      43.949 -10.652   8.893  1.00  0.00     0.017 A 
HETATM   26  C   UNL     1      44.566  -9.643   9.633  1.00  0.00     0.001 A 
HETATM   27  C   UNL     1      45.769  -9.093   9.194  1.00  0.00     0.000 A 
HETATM   28  C   UNL     1      46.361  -9.554   8.019  1.00  0.00     0.001 A 
HETATM   29  C   UNL     1      45.748 -10.563   7.272  1.00  0.00     0.017 A 
ENDBRANCH  21  24
ENDBRANCH  19  20
ENDBRANCH   3  19
TORSDOF 6
ENDMDL
MODEL 5
REMARK VINA RESULT:      -8.0      2.383      7.795
REMARK  6 active torsions:
REMARK  status: ('A' for Active; 'I' for Inactive)
REMARK    1  A    between atoms: C_2  and  C_3 
REMARK    2  A    between atoms: C_8  and  C_9 
REMARK    3  A    between atoms: C_9  and  N_10 
REMARK    4  A    between atoms: C_12  and  C_13 
REMARK    5  A    between atoms: C_13  and  N_14 
REMARK       I    between atoms: N_14  and  C_15 
REMARK    6  A    between atoms: C_15  and  C_16 
ROOT
HETATM    1  N   UNL     1      41.525 -13.996   3.638  1.00  0.00    -0.061 N 
HETATM    2  H   UNL     1      40.994 -14.801   3.988  1.00  0.00     0.280 HD
HETATM    3  C   UNL     1      41.275 -12.840   4.626  1.00  0.00     0.206 C 
HETATM    4  C   UNL     1      39.752 -12.608   4.700  1.00  0.00     0.035 C 
HETATM    5  C   UNL     1      39.134 -12.339   3.334  1.00  0.00     0.004 C 
HETATM    6  C   UNL     1      39.467 -13.454   2.356  1.00  0.00     0.028 C 
HETATM    7  C   UNL     1      40.968 -13.673   2.263  1.00  0.00     0.236 C 
ENDROOT
BRANCH   1   8
HETATM    8  C   UNL     1      42.967 -14.489   3.526  1.00  0.00     0.277 C 
BRANCH   8   9
HETATM    9  C   UNL     1      43.160 -15.936   3.238  1.00  0.00     0.012 A 
HETATM   10  C   UNL     1      43.337 -17.068   4.111  1.00  0.00     0.071 A 
HETATM   11  N   UNL     1      43.431 -18.198   3.392  1.00  0.00    -0.178 NA
HETATM   12  N   UNL     1      43.409 -17.823   2.117  1.00  0.00    -0.288 N 
HETATM   13  H   UNL     1      43.501 -18.536   1.398  1.00  0.00     0.188 HD
HETATM   14  C   UNL     1      43.262 -16.482   1.969  1.00  0.00     0.120 A 
BRANCH  10  15
HETATM   15  C   UNL     1      43.422 -17.240   5.635  1.00  0.00    -0.004 C 
HETATM   16  C   UNL     1      43.603 -18.741   5.979  1.00  0.00     0.021 C 
HETATM   17  C   UNL     1      42.113 -16.742   6.287  1.00  0.00     0.021 C 
HETATM   18  C   UNL     1      44.587 -16.497   6.304  1.00  0.00     0.021 C 
ENDBRANCH  10  15
ENDBRANCH   8   9
ENDBRANCH   1   8
BRANCH   3  19
HETATM   19  C   UNL     1      41.822 -13.161   6.050  1.00  0.00     0.156 C 
BRANCH  19  20
HETATM   20  N   UNL     1      42.553 -12.074   6.682  1.00  0.00    -0.355 N 
HETATM   21  C   UNL     1      43.902 -12.210   6.959  1.00  0.00     0.251 C 
HETATM   22  O   UNL     1      44.540 -13.187   6.581  1.00  0.00    -0.268 OA
HETATM   23  H   UNL     1      42.030 -11.407   7.241  1.00  0.00     0.162 HD
BRANCH  21  24
HETATM   24  C   UNL     1      44.547 -11.135   7.759  1.00  0.00     0.032 A 
HETATM   25  C   UNL     1      45.714 -10.545   7.255  1.00  0.00     0.017 A 
HETATM   26  C   UNL     1      46.349  -9.528   7.967  1.00  0.00     0.001 A 
HETATM   27  C   UNL     1      45.819  -9.090   9.180  1.00  0.00     0.000 A 
HETATM   28  C   UNL     1      44.649  -9.663   9.678  1.00  0.00     0.001 A 
HETATM   29  C   UNL     1      44.009 -10.682   8.970  1.00  0.00     0.017 A 
ENDBRANCH  21  24
ENDBRANCH  19  20
ENDBRANCH   3  19
TORSDOF 6
ENDMDL
MODEL 6
REMARK VINA RESULT:      -8.0      4.209      7.017
REMARK  6 active torsions:
REMARK  status: ('A' for Active; 'I' for Inactive)
REMARK    1  A    between atoms: C_2  and  C_3 
REMARK    2  A    between atoms: C_8  and  C_9 
REMARK    3  A    between atoms: C_9  and  N_10 
REMARK    4  A    between atoms: C_12  and  C_13 
REMARK    5  A    between atoms: C_13  and  N_14 
REMARK       I    between atoms: N_14  and  C_15 
REMARK    6  A    between atoms: C_15  and  C_16 
ROOT
HETATM    1  N   UNL     1      40.797 -13.130   3.145  1.00  0.00    -0.061 N 
HETATM    2  H   UNL     1      40.349 -14.045   3.019  1.00  0.00     0.280 HD
HETATM    3  C   UNL     1      42.199 -13.401   3.722  1.00  0.00     0.206 C 
HETATM    4  C   UNL     1      42.022 -14.202   5.029  1.00  0.00     0.035 C 
HETATM    5  C   UNL     1      41.116 -13.495   6.029  1.00  0.00     0.004 C 
HETATM    6  C   UNL     1      39.769 -13.165   5.406  1.00  0.00     0.028 C 
HETATM    7  C   UNL     1      39.938 -12.357   4.130  1.00  0.00     0.236 C 
ENDROOT
BRANCH   1   8
HETATM    8  C   UNL     1      40.749 -12.472   1.766  1.00  0.00     0.277 C 
BRANCH   8   9
HETATM    9  C   UNL     1      40.120 -13.257   0.670  1.00  0.00     0.012 A 
HETATM   10  C   UNL     1      39.372 -12.846  -0.490  1.00  0.00     0.071 A 
HETATM   11  N   UNL     1      39.038 -13.916  -1.230  1.00  0.00    -0.178 NA
HETATM   12  N   UNL     1      39.461 -14.977  -0.551  1.00  0.00    -0.288 N 
HETATM   13  H   UNL     1      39.277 -15.902  -0.929  1.00  0.00     0.188 HD
HETATM   14  C   UNL     1      40.103 -14.639   0.597  1.00  0.00     0.120 A 
BRANCH  10  15
HETATM   15  C   UNL     1      38.909 -11.488  -1.039  1.00  0.00    -0.004 C 
HETATM   16  C   UNL     1      37.932 -10.826  -0.033  1.00  0.00     0.021 C 
HETATM   17  C   UNL     1      38.168 -11.696  -2.378  1.00  0.00     0.021 C 
HETATM   18  C   UNL     1      40.034 -10.472  -1.283  1.00  0.00     0.021 C 
ENDBRANCH  10  15
ENDBRANCH   8   9
ENDBRANCH   1   8
BRANCH   3  19
HETATM   19  C   UNL     1      43.091 -14.212   2.733  1.00  0.00     0.156 C 
BRANCH  19  20
HETATM   20  N   UNL     1      43.428 -15.555   3.177  1.00  0.00    -0.355 N 
HETATM   21  C   UNL     1      43.368 -16.617   2.292  1.00  0.00     0.251 C 
HETATM   22  O   UNL     1      43.146 -16.447   1.098  1.00  0.00    -0.268 OA
HETATM   23  H   UNL     1      43.338 -15.770   4.165  1.00  0.00     0.162 HD
BRANCH  21  24
HETATM   24  C   UNL     1      43.556 -17.983   2.850  1.00  0.00     0.032 A 
HETATM   25  C   UNL     1      44.015 -18.102   4.168  1.00  0.00     0.017 A 
HETATM   26  C   UNL     1      44.199 -19.363   4.736  1.00  0.00     0.001 A 
HETATM   27  C   UNL     1      43.917 -20.509   3.994  1.00  0.00     0.000 A 
HETATM   28  C   UNL     1      43.444 -20.396   2.687  1.00  0.00     0.001 A 
HETATM   29  C   UNL     1      43.258 -19.137   2.112  1.00  0.00     0.017 A 
ENDBRANCH  21  24
ENDBRANCH  19  20
ENDBRANCH   3  19
TORSDOF 6
ENDMDL
MODEL 7
REMARK VINA RESULT:      -8.0      5.336      8.269
REMARK  6 active torsions:
REMARK  status: ('A' for Active; 'I' for Inactive)
REMARK    1  A    between atoms: C_2  and  C_3 
REMARK    2  A    between atoms: C_8  and  C_9 
REMARK    3  A    between atoms: C_9  and  N_10 
REMARK    4  A    between atoms: C_12  and  C_13 
REMARK    5  A    between atoms: C_13  and  N_14 
REMARK       I    between atoms: N_14  and  C_15 
REMARK    6  A    between atoms: C_15  and  C_16 
ROOT
HETATM    1  N   UNL     1      39.876 -13.132   1.041  1.00  0.00    -0.061 N 
HETATM    2  H   UNL     1      38.919 -13.501   1.062  1.00  0.00     0.280 HD
HETATM    3  C   UNL     1      40.734 -14.082   1.900  1.00  0.00     0.206 C 
HETATM    4  C   UNL     1      40.109 -14.133   3.309  1.00  0.00     0.035 C 
HETATM    5  C   UNL     1      39.974 -12.753   3.940  1.00  0.00     0.004 C 
HETATM    6  C   UNL     1      39.196 -11.814   3.033  1.00  0.00     0.028 C 
HETATM    7  C   UNL     1      39.820 -11.742   1.650  1.00  0.00     0.236 C 
ENDROOT
BRANCH   1   8
HETATM    8  C   UNL     1      40.237 -13.050  -0.441  1.00  0.00     0.277 C 
BRANCH   8   9
HETATM    9  C   UNL     1      39.200 -13.498  -1.410  1.00  0.00     0.012 A 
HETATM   10  C   UNL     1      38.128 -12.787  -2.057  1.00  0.00     0.071 A 
HETATM   11  N   UNL     1      37.468 -13.604  -2.894  1.00  0.00    -0.178 NA
HETATM   12  N   UNL     1      38.016 -14.805  -2.740  1.00  0.00    -0.288 N 
HETATM   13  H   UNL     1      37.636 -15.585  -3.269  1.00  0.00     0.188 HD
HETATM   14  C   UNL     1      39.047 -14.800  -1.856  1.00  0.00     0.120 A 
BRANCH  10  15
HETATM   15  C   UNL     1      37.613 -11.341  -1.997  1.00  0.00    -0.004 C 
HETATM   16  C   UNL     1      36.374 -11.191  -2.916  1.00  0.00     0.021 C 
HETATM   17  C   UNL     1      38.714 -10.379  -2.496  1.00  0.00     0.021 C 
HETATM   18  C   UNL     1      37.180 -10.867  -0.602  1.00  0.00     0.021 C 
ENDBRANCH  10  15
ENDBRANCH   8   9
ENDBRANCH   1   8
BRANCH   3  19
HETATM   19  C   UNL     1      40.788 -15.521   1.302  1.00  0.00     0.156 C 
BRANCH  19  20
HETATM   20  N   UNL     1      41.380 -16.522   2.175  1.00  0.00    -0.355 N 
HETATM   21  C   UNL     1      42.724 -16.833   2.067  1.00  0.00     0.251 C 
HETATM   22  O   UNL     1      43.472 -16.203   1.325  1.00  0.00    -0.268 OA
HETATM   23  H   UNL     1      40.771 -17.229   2.574  1.00  0.00     0.162 HD
BRANCH  21  24
HETATM   24  C   UNL     1      43.226 -17.983   2.865  1.00  0.00     0.032 A 
HETATM   25  C   UNL     1      43.586 -17.754   4.200  1.00  0.00     0.017 A 
HETATM   26  C   UNL     1      44.055 -18.804   4.989  1.00  0.00     0.001 A 
HETATM   27  C   UNL     1      44.158 -20.087   4.453  1.00  0.00     0.000 A 
HETATM   28  C   UNL     1      43.785 -20.323   3.131  1.00  0.00     0.001 A 
HETATM   29  C   UNL     1      43.316 -19.276   2.334  1.00  0.00     0.017 A 
ENDBRANCH  21  24
ENDBRANCH  19  20
ENDBRANCH   3  19
TORSDOF 6
ENDMDL
MODEL 8
REMARK VINA RESULT:      -7.9      3.576      4.609
REMARK  6 active torsions:
REMARK  status: ('A' for Active; 'I' for Inactive)
REMARK    1  A    between atoms: C_2  and  C_3 
REMARK    2  A    between atoms: C_8  and  C_9 
REMARK    3  A    between atoms: C_9  and  N_10 
REMARK    4  A    between atoms: C_12  and  C_13 
REMARK    5  A    between atoms: C_13  and  N_14 
REMARK       I    between atoms: N_14  and  C_15 
REMARK    6  A    between atoms: C_15  and  C_16 
ROOT
HETATM    1  N   UNL     1      41.315 -12.811   2.142  1.00  0.00    -0.061 N 
HETATM    2  H   UNL     1      41.931 -12.239   1.552  1.00  0.00     0.280 HD
HETATM    3  C   UNL     1      41.408 -14.254   1.606  1.00  0.00     0.206 C 
HETATM    4  C   UNL     1      41.009 -14.227   0.117  1.00  0.00     0.035 C 
HETATM    5  C   UNL     1      39.631 -13.618  -0.109  1.00  0.00     0.004 C 
HETATM    6  C   UNL     1      39.542 -12.229   0.502  1.00  0.00     0.028 C 
HETATM    7  C   UNL     1      39.913 -12.253   1.975  1.00  0.00     0.236 C 
ENDROOT
BRANCH   1   8
HETATM    8  C   UNL     1      41.812 -12.587   3.569  1.00  0.00     0.277 C 
BRANCH   8   9
HETATM    9  C   UNL     1      40.931 -13.062   4.669  1.00  0.00     0.012 A 
HETATM   10  C   UNL     1      40.136 -12.344   5.633  1.00  0.00     0.071 A 
HETATM   11  N   UNL     1      39.463 -13.206   6.412  1.00  0.00    -0.178 NA
HETATM   12  N   UNL     1      39.861 -14.420   6.045  1.00  0.00    -0.288 N 
HETATM   13  H   UNL     1      39.488 -15.225   6.540  1.00  0.00     0.188 HD
HETATM   14  C   UNL     1      40.747 -14.390   5.016  1.00  0.00     0.120 A 
BRANCH  10  15
HETATM   15  C   UNL     1      39.900 -10.856   5.929  1.00  0.00    -0.004 C 
HETATM   16  C   UNL     1      41.263 -10.140   6.110  1.00  0.00     0.021 C 
HETATM   17  C   UNL     1      39.091 -10.710   7.237  1.00  0.00     0.021 C 
HETATM   18  C   UNL     1      39.149 -10.090   4.831  1.00  0.00     0.021 C 
ENDBRANCH  10  15
ENDBRANCH   8   9
ENDBRANCH   1   8
BRANCH   3  19
HETATM   19  C   UNL     1      42.846 -14.838   1.750  1.00  0.00     0.156 C 
BRANCH  19  20
HETATM   20  N   UNL     1      42.901 -16.271   1.988  1.00  0.00    -0.355 N 
HETATM   21  C   UNL     1      43.363 -16.759   3.197  1.00  0.00     0.251 C 
HETATM   22  O   UNL     1      43.627 -16.012   4.134  1.00  0.00    -0.268 OA
HETATM   23  H   UNL     1      42.965 -16.888   1.184  1.00  0.00     0.162 HD
BRANCH  21  24
HETATM   24  C   UNL     1      43.557 -18.229   3.312  1.00  0.00     0.032 A 
HETATM   25  C   UNL     1      44.033 -18.740   4.527  1.00  0.00     0.017 A 
HETATM   26  C   UNL     1      44.223 -20.113   4.684  1.00  0.00     0.001 A 
HETATM   27  C   UNL     1      43.930 -20.982   3.633  1.00  0.00     0.000 A 
HETATM   28  C   UNL     1      43.441 -20.480   2.428  1.00  0.00     0.001 A 
HETATM   29  C   UNL     1      43.249 -19.106   2.264  1.00  0.00     0.017 A 
ENDBRANCH  21  24
ENDBRANCH  19  20
ENDBRANCH   3  19
TORSDOF 6
ENDMDL
MODEL 9
REMARK VINA RESULT:      -7.9      2.163      3.180
REMARK  6 active torsions:
REMARK  status: ('A' for Active; 'I' for Inactive)
REMARK    1  A    between atoms: C_2  and  C_3 
REMARK    2  A    between atoms: C_8  and  C_9 
REMARK    3  A    between atoms: C_9  and  N_10 
REMARK    4  A    between atoms: C_12  and  C_13 
REMARK    5  A    between atoms: C_13  and  N_14 
REMARK       I    between atoms: N_14  and  C_15 
REMARK    6  A    between atoms: C_15  and  C_16 
ROOT
HETATM    1  N   UNL     1      41.115 -13.005   4.373  1.00  0.00    -0.061 N 
HETATM    2  H   UNL     1      41.595 -12.133   4.123  1.00  0.00     0.280 HD
HETATM    3  C   UNL     1      41.453 -14.026   3.269  1.00  0.00     0.206 C 
HETATM    4  C   UNL     1      41.005 -13.423   1.921  1.00  0.00     0.035 C 
HETATM    5  C   UNL     1      39.532 -13.036   1.914  1.00  0.00     0.004 C 
HETATM    6  C   UNL     1      39.211 -12.095   3.064  1.00  0.00     0.028 C 
HETATM    7  C   UNL     1      39.630 -12.693   4.397  1.00  0.00     0.236 C 
ENDROOT
BRANCH   1   8
HETATM    8  C   UNL     1      41.611 -13.341   5.779  1.00  0.00     0.277 C 
BRANCH   8   9
HETATM    9  C   UNL     1      42.708 -12.497   6.324  1.00  0.00     0.012 A 
HETATM   10  C   UNL     1      42.779 -11.085   6.598  1.00  0.00     0.071 A 
HETATM   11  N   UNL     1      43.971 -10.775   7.132  1.00  0.00    -0.178 NA
HETATM   12  N   UNL     1      44.678 -11.901   7.126  1.00  0.00    -0.288 N 
HETATM   13  H   UNL     1      45.636 -11.876   7.466  1.00  0.00     0.188 HD
HETATM   14  C   UNL     1      43.975 -12.956   6.642  1.00  0.00     0.120 A 
BRANCH  10  15
HETATM   15  C   UNL     1      41.804  -9.911   6.423  1.00  0.00    -0.004 C 
HETATM   16  C   UNL     1      41.695  -9.544   4.921  1.00  0.00     0.021 C 
HETATM   17  C   UNL     1      42.333  -8.679   7.191  1.00  0.00     0.021 C 
HETATM   18  C   UNL     1      40.373 -10.182   6.909  1.00  0.00     0.021 C 
ENDBRANCH  10  15
ENDBRANCH   8   9
ENDBRANCH   1   8
BRANCH   3  19
HETATM   19  C   UNL     1      42.978 -14.344   3.215  1.00  0.00     0.156 C 
BRANCH  19  20
HETATM   20  N   UNL     1      43.327 -15.715   3.552  1.00  0.00    -0.355 N 
HETATM   21  C   UNL     1      43.346 -16.690   2.570  1.00  0.00     0.251 C 
HETATM   22  O   UNL     1      43.187 -16.413   1.385  1.00  0.00    -0.268 OA
HETATM   23  H   UNL     1      43.187 -16.024   4.509  1.00  0.00     0.162 HD
BRANCH  21  24
HETATM   24  C   UNL     1      43.539 -18.098   3.008  1.00  0.00     0.032 A 
HETATM   25  C   UNL     1      43.240 -19.121   2.098  1.00  0.00     0.017 A 
HETATM   26  C   UNL     1      43.413 -20.456   2.462  1.00  0.00     0.001 A 
HETATM   27  C   UNL     1      43.893 -20.776   3.731  1.00  0.00     0.000 A 
HETATM   28  C   UNL     1      44.208 -19.762   4.635  1.00  0.00     0.001 A 
HETATM   29  C   UNL     1      44.036 -18.423   4.277  1.00  0.00     0.017 A 
ENDBRANCH  21  24
ENDBRANCH  19  20
ENDBRANCH   3  19
TORSDOF 6
ENDMDL
MODEL 10
REMARK VINA RESULT:      -7.8      2.409      8.542
REMARK  6 active torsions:
REMARK  status: ('A' for Active; 'I' for Inactive)
REMARK    1  A    between atoms: C_2  and  C_3 
REMARK    2  A    between atoms: C_8  and  C_9 
REMARK    3  A    between atoms: C_9  and  N_10 
REMARK    4  A    between atoms: C_12  and  C_13 
REMARK    5  A    between atoms: C_13  and  N_14 
REMARK       I    between atoms: N_14  and  C_15 
REMARK    6  A    between atoms: C_15  and  C_16 
ROOT
HETATM    1  N   UNL     1      41.831 -13.006   5.110  1.00  0.00    -0.061 N 
HETATM    2  H   UNL     1      41.580 -13.572   5.928  1.00  0.00     0.280 HD
HETATM    3  C   UNL     1      42.098 -11.578   5.626  1.00  0.00     0.206 C 
HETATM    4  C   UNL     1      40.828 -11.100   6.359  1.00  0.00     0.035 C 
HETATM    5  C   UNL     1      39.585 -11.169   5.481  1.00  0.00     0.004 C 
HETATM    6  C   UNL     1      39.393 -12.568   4.918  1.00  0.00     0.028 C 
HETATM    7  C   UNL     1      40.634 -13.037   4.176  1.00  0.00     0.236 C 
ENDROOT
BRANCH   1   8
HETATM    8  C   UNL     1      43.019 -13.729   4.477  1.00  0.00     0.277 C 
BRANCH   8   9
HETATM    9  C   UNL     1      43.227 -15.149   4.870  1.00  0.00     0.012 A 
HETATM   10  C   UNL     1      43.090 -16.375   4.126  1.00  0.00     0.071 A 
HETATM   11  N   UNL     1      43.431 -17.423   4.893  1.00  0.00    -0.178 NA
HETATM   12  N   UNL     1      43.689 -16.926   6.098  1.00  0.00    -0.288 N 
HETATM   13  H   UNL     1      43.940 -17.567   6.846  1.00  0.00     0.188 HD
HETATM   14  C   UNL     1      43.569 -15.574   6.142  1.00  0.00     0.120 A 
BRANCH  10  15
HETATM   15  C   UNL     1      42.665 -16.713   2.689  1.00  0.00    -0.004 C 
HETATM   16  C   UNL     1      43.467 -15.839   1.691  1.00  0.00     0.021 C 
HETATM   17  C   UNL     1      41.161 -16.410   2.509  1.00  0.00     0.021 C 
HETATM   18  C   UNL     1      42.898 -18.172   2.273  1.00  0.00     0.021 C 
ENDBRANCH  10  15
ENDBRANCH   8   9
ENDBRANCH   1   8
BRANCH   3  19
HETATM   19  C   UNL     1      43.312 -11.530   6.604  1.00  0.00     0.156 C 
BRANCH  19  20
HETATM   20  N   UNL     1      43.080 -10.776   7.826  1.00  0.00    -0.355 N 
HETATM   21  C   UNL     1      44.078 -10.671   8.778  1.00  0.00     0.251 C 
HETATM   22  O   UNL     1      45.209 -11.101   8.575  1.00  0.00    -0.268 OA
HETATM   23  H   UNL     1      42.123 -10.661   8.143  1.00  0.00     0.162 HD
BRANCH  21  24
HETATM   24  C   UNL     1      43.721 -10.037  10.076  1.00  0.00     0.032 A 
HETATM   25  C   UNL     1      43.612  -8.641  10.122  1.00  0.00     0.017 A 
HETATM   26  C   UNL     1      43.271  -8.003  11.315  1.00  0.00     0.001 A 
HETATM   27  C   UNL     1      43.031  -8.756  12.463  1.00  0.00     0.000 A 
HETATM   28  C   UNL     1      43.122 -10.147  12.419  1.00  0.00     0.001 A 
HETATM   29  C   UNL     1      43.463 -10.791  11.228  1.00  0.00     0.017 A 
ENDBRANCH  21  24
ENDBRANCH  19  20
ENDBRANCH   3  19
TORSDOF 6
ENDMDL
