MODEL 1
REMARK VINA RESULT:      -8.7      0.000      0.000
REMARK  3 active torsions:
REMARK  status: ('A' for Active; 'I' for Inactive)
REMARK    1  A    between atoms: C_9  and  C_10 
REMARK       I    between atoms: C_10  and  N_11 
REMARK    2  A    between atoms: N_11  and  C_12 
REMARK    3  A    between atoms: C_14  and  C_15 
ROOT
HETATM    1  C   UNL     1      40.559 -14.154   5.912  1.00  0.00     0.277 C 
HETATM    2  N   UNL     1      41.278 -15.235   6.350  1.00  0.00    -0.322 N 
HETATM    3  O   UNL     1      39.521 -13.849   6.501  1.00  0.00    -0.266 OA
HETATM    4  H   UNL     1      40.799 -15.638   7.150  1.00  0.00     0.169 HD
ENDROOT
BRANCH   1   5
HETATM    5  C   UNL     1      40.975 -13.261   4.769  1.00  0.00     0.156 A 
HETATM    6  C   UNL     1      40.769 -13.741   3.382  1.00  0.00     0.016 A 
HETATM    7  C   UNL     1      40.140 -14.954   3.072  1.00  0.00     0.015 A 
HETATM    8  C   UNL     1      41.300 -12.964   2.354  1.00  0.00     0.046 A 
HETATM    9  C   UNL     1      40.073 -15.389   1.744  1.00  0.00     0.001 A 
HETATM   10  C   UNL     1      40.620 -14.614   0.722  1.00  0.00     0.001 A 
HETATM   11  C   UNL     1      41.227 -13.396   1.023  1.00  0.00     0.018 A 
HETATM   12  C   UNL     1      41.959 -11.690   2.687  1.00  0.00     0.272 A 
HETATM   13  O   UNL     1      42.394 -10.947   1.814  1.00  0.00    -0.266 OA
HETATM   14  N   UNL     1      42.050 -11.385   4.025  1.00  0.00    -0.242 N 
HETATM   15  N   UNL     1      41.610 -12.160   5.057  1.00  0.00    -0.166 NA
HETATM   16  H   UNL     1      42.546 -10.536   4.275  1.00  0.00     0.192 HD
ENDBRANCH   1   5
BRANCH   2  17
HETATM   17  C   UNL     1      42.406 -15.953   5.918  1.00  0.00     0.035 A 
HETATM   18  C   UNL     1      42.431 -16.957   4.949  1.00  0.00     0.042 A 
HETATM   19  C   UNL     1      43.612 -17.685   4.679  1.00  0.00    -0.021 A 
HETATM   20  C   UNL     1      44.786 -17.343   5.365  1.00  0.00     0.012 A 
HETATM   21  C   UNL     1      44.785 -16.316   6.303  1.00  0.00     0.003 A 
HETATM   22  C   UNL     1      43.603 -15.634   6.579  1.00  0.00     0.029 A 
BRANCH  19  23
HETATM   23  C   UNL     1      43.633 -18.804   3.738  1.00  0.00     0.010 A 
HETATM   24  C   UNL     1      43.966 -20.170   3.933  1.00  0.00     0.152 A 
HETATM   25  N   UNL     1      43.831 -20.908   2.828  1.00  0.00    -0.187 NA
HETATM   26  N   UNL     1      43.401 -20.024   1.917  1.00  0.00    -0.289 N 
HETATM   27  H   UNL     1      43.211 -20.357   0.977  1.00  0.00     0.188 HD
HETATM   28  C   UNL     1      43.269 -18.756   2.408  1.00  0.00     0.123 A 
ENDBRANCH  19  23
ENDBRANCH   2  17
TORSDOF 3
ENDMDL
MODEL 2
REMARK VINA RESULT:      -8.6      3.264      6.357
REMARK  3 active torsions:
REMARK  status: ('A' for Active; 'I' for Inactive)
REMARK    1  A    between atoms: C_9  and  C_10 
REMARK       I    between atoms: C_10  and  N_11 
REMARK    2  A    between atoms: N_11  and  C_12 
REMARK    3  A    between atoms: C_14  and  C_15 
ROOT
HETATM    1  C   UNL     1      40.761 -15.459   6.522  1.00  0.00     0.277 C 
HETATM    2  N   UNL     1      40.659 -14.099   6.394  1.00  0.00    -0.322 N 
HETATM    3  O   UNL     1      39.850 -16.076   7.076  1.00  0.00    -0.266 OA
HETATM    4  H   UNL     1      39.782 -13.800   6.809  1.00  0.00     0.169 HD
ENDROOT
BRANCH   1   5
HETATM    5  C   UNL     1      41.905 -16.282   5.983  1.00  0.00     0.156 A 
HETATM    6  C   UNL     1      42.010 -16.479   4.517  1.00  0.00     0.016 A 
HETATM    7  C   UNL     1      41.140 -15.882   3.596  1.00  0.00     0.015 A 
HETATM    8  C   UNL     1      42.986 -17.365   4.063  1.00  0.00     0.046 A 
HETATM    9  C   UNL     1      41.237 -16.196   2.236  1.00  0.00     0.001 A 
HETATM   10  C   UNL     1      42.205 -17.095   1.790  1.00  0.00     0.001 A 
HETATM   11  C   UNL     1      43.087 -17.675   2.700  1.00  0.00     0.018 A 
HETATM   12  C   UNL     1      43.895 -17.989   5.037  1.00  0.00     0.272 A 
HETATM   13  O   UNL     1      44.803 -18.733   4.681  1.00  0.00    -0.266 OA
HETATM   14  N   UNL     1      43.672 -17.683   6.359  1.00  0.00    -0.242 N 
HETATM   15  N   UNL     1      42.679 -16.882   6.841  1.00  0.00    -0.166 NA
HETATM   16  H   UNL     1      44.258 -18.144   7.048  1.00  0.00     0.192 HD
ENDBRANCH   1   5
BRANCH   2  17
HETATM   17  C   UNL     1      41.483 -13.052   5.945  1.00  0.00     0.035 A 
HETATM   18  C   UNL     1      42.698 -12.652   6.503  1.00  0.00     0.042 A 
HETATM   19  C   UNL     1      43.381 -11.509   6.029  1.00  0.00    -0.021 A 
HETATM   20  C   UNL     1      42.846 -10.809   4.939  1.00  0.00     0.012 A 
HETATM   21  C   UNL     1      41.657 -11.222   4.344  1.00  0.00     0.003 A 
HETATM   22  C   UNL     1      40.982 -12.330   4.850  1.00  0.00     0.029 A 
BRANCH  19  23
HETATM   23  C   UNL     1      44.603 -11.019   6.665  1.00  0.00     0.010 A 
HETATM   24  C   UNL     1      44.785 -10.218   7.822  1.00  0.00     0.152 A 
HETATM   25  N   UNL     1      46.070 -10.003   8.116  1.00  0.00    -0.187 NA
HETATM   26  N   UNL     1      46.723 -10.672   7.156  1.00  0.00    -0.289 N 
HETATM   27  H   UNL     1      47.738 -10.668   7.172  1.00  0.00     0.188 HD
HETATM   28  C   UNL     1      45.895 -11.292   6.264  1.00  0.00     0.123 A 
ENDBRANCH  19  23
ENDBRANCH   2  17
TORSDOF 3
ENDMDL
MODEL 3
REMARK VINA RESULT:      -8.4      3.263      6.576
REMARK  3 active torsions:
REMARK  status: ('A' for Active; 'I' for Inactive)
REMARK    1  A    between atoms: C_9  and  C_10 
REMARK       I    between atoms: C_10  and  N_11 
REMARK    2  A    between atoms: N_11  and  C_12 
REMARK    3  A    between atoms: C_14  and  C_15 
ROOT
HETATM    1  C   UNL     1      43.221 -11.967   3.220  1.00  0.00     0.277 C 
HETATM    2  N   UNL     1      42.372 -11.349   2.340  1.00  0.00    -0.322 N 
HETATM    3  O   UNL     1      44.335 -11.481   3.418  1.00  0.00    -0.266 OA
HETATM    4  H   UNL     1      42.838 -10.527   1.967  1.00  0.00     0.169 HD
ENDROOT
BRANCH   1   5
HETATM    5  C   UNL     1      42.870 -13.200   4.018  1.00  0.00     0.156 A 
HETATM    6  C   UNL     1      42.953 -14.523   3.353  1.00  0.00     0.016 A 
HETATM    7  C   UNL     1      43.410 -14.699   2.041  1.00  0.00     0.015 A 
HETATM    8  C   UNL     1      42.480 -15.623   4.067  1.00  0.00     0.046 A 
HETATM    9  C   UNL     1      43.363 -15.964   1.447  1.00  0.00     0.001 A 
HETATM   10  C   UNL     1      42.874 -17.057   2.160  1.00  0.00     0.001 A 
HETATM   11  C   UNL     1      42.438 -16.892   3.474  1.00  0.00     0.018 A 
HETATM   12  C   UNL     1      42.001 -15.430   5.445  1.00  0.00     0.272 A 
HETATM   13  O   UNL     1      41.625 -16.375   6.130  1.00  0.00    -0.266 OA
HETATM   14  N   UNL     1      42.008 -14.138   5.916  1.00  0.00    -0.242 N 
HETATM   15  N   UNL     1      42.393 -13.031   5.218  1.00  0.00    -0.166 NA
HETATM   16  H   UNL     1      41.635 -13.980   6.846  1.00  0.00     0.192 HD
ENDBRANCH   1   5
BRANCH   2  17
HETATM   17  C   UNL     1      41.115 -11.620   1.773  1.00  0.00     0.035 A 
HETATM   18  C   UNL     1      40.872 -12.187   0.522  1.00  0.00     0.042 A 
HETATM   19  C   UNL     1      39.559 -12.307   0.014  1.00  0.00    -0.021 A 
HETATM   20  C   UNL     1      38.486 -11.897   0.818  1.00  0.00     0.012 A 
HETATM   21  C   UNL     1      38.711 -11.369   2.086  1.00  0.00     0.003 A 
HETATM   22  C   UNL     1      40.015 -11.227   2.552  1.00  0.00     0.029 A 
BRANCH  19  23
HETATM   23  C   UNL     1      39.293 -12.809  -1.333  1.00  0.00     0.010 A 
HETATM   24  C   UNL     1      40.140 -13.480  -2.253  1.00  0.00     0.152 A 
HETATM   25  N   UNL     1      39.522 -13.818  -3.388  1.00  0.00    -0.187 NA
HETATM   26  N   UNL     1      38.270 -13.375  -3.202  1.00  0.00    -0.289 N 
HETATM   27  H   UNL     1      37.591 -13.528  -3.941  1.00  0.00     0.188 HD
HETATM   28  C   UNL     1      38.083 -12.764  -1.995  1.00  0.00     0.123 A 
ENDBRANCH  19  23
ENDBRANCH   2  17
TORSDOF 3
ENDMDL
MODEL 4
REMARK VINA RESULT:      -8.2      2.356      4.562
REMARK  3 active torsions:
REMARK  status: ('A' for Active; 'I' for Inactive)
REMARK    1  A    between atoms: C_9  and  C_10 
REMARK       I    between atoms: C_10  and  N_11 
REMARK    2  A    between atoms: N_11  and  C_12 
REMARK    3  A    between atoms: C_14  and  C_15 
ROOT
HETATM    1  C   UNL     1      41.482 -14.011   1.298  1.00  0.00     0.277 C 
HETATM    2  N   UNL     1      42.147 -15.207   1.370  1.00  0.00    -0.322 N 
HETATM    3  O   UNL     1      41.333 -13.476   0.200  1.00  0.00    -0.266 OA
HETATM    4  H   UNL     1      42.430 -15.475   0.432  1.00  0.00     0.169 HD
ENDROOT
BRANCH   1   5
HETATM    5  C   UNL     1      40.864 -13.309   2.483  1.00  0.00     0.156 A 
HETATM    6  C   UNL     1      41.736 -12.487   3.355  1.00  0.00     0.016 A 
HETATM    7  C   UNL     1      43.095 -12.267   3.098  1.00  0.00     0.015 A 
HETATM    8  C   UNL     1      41.169 -11.976   4.522  1.00  0.00     0.046 A 
HETATM    9  C   UNL     1      43.878 -11.565   4.021  1.00  0.00     0.001 A 
HETATM   10  C   UNL     1      43.308 -11.070   5.193  1.00  0.00     0.001 A 
HETATM   11  C   UNL     1      41.951 -11.267   5.443  1.00  0.00     0.018 A 
HETATM   12  C   UNL     1      39.740 -12.211   4.785  1.00  0.00     0.272 A 
HETATM   13  O   UNL     1      39.184 -11.738   5.770  1.00  0.00    -0.266 OA
HETATM   14  N   UNL     1      39.071 -12.982   3.863  1.00  0.00    -0.242 N 
HETATM   15  N   UNL     1      39.614 -13.559   2.753  1.00  0.00    -0.166 NA
HETATM   16  H   UNL     1      38.097 -13.195   4.055  1.00  0.00     0.192 HD
ENDBRANCH   1   5
BRANCH   2  17
HETATM   17  C   UNL     1      42.606 -16.061   2.388  1.00  0.00     0.035 A 
HETATM   18  C   UNL     1      42.599 -15.798   3.759  1.00  0.00     0.042 A 
HETATM   19  C   UNL     1      43.192 -16.692   4.679  1.00  0.00    -0.021 A 
HETATM   20  C   UNL     1      43.743 -17.888   4.197  1.00  0.00     0.012 A 
HETATM   21  C   UNL     1      43.718 -18.182   2.837  1.00  0.00     0.003 A 
HETATM   22  C   UNL     1      43.160 -17.272   1.944  1.00  0.00     0.029 A 
BRANCH  19  23
HETATM   23  C   UNL     1      43.281 -16.387   6.106  1.00  0.00     0.010 A 
HETATM   24  C   UNL     1      43.012 -15.186   6.813  1.00  0.00     0.152 A 
HETATM   25  N   UNL     1      43.175 -15.304   8.133  1.00  0.00    -0.187 NA
HETATM   26  N   UNL     1      43.540 -16.585   8.286  1.00  0.00    -0.289 N 
HETATM   27  H   UNL     1      43.715 -16.926   9.226  1.00  0.00     0.188 HD
HETATM   28  C   UNL     1      43.621 -17.272   7.109  1.00  0.00     0.123 A 
ENDBRANCH  19  23
ENDBRANCH   2  17
TORSDOF 3
ENDMDL
MODEL 5
REMARK VINA RESULT:      -8.1      1.772      2.430
REMARK  3 active torsions:
REMARK  status: ('A' for Active; 'I' for Inactive)
REMARK    1  A    between atoms: C_9  and  C_10 
REMARK       I    between atoms: C_10  and  N_11 
REMARK    2  A    between atoms: N_11  and  C_12 
REMARK    3  A    between atoms: C_14  and  C_15 
ROOT
HETATM    1  C   UNL     1      40.522 -14.123   4.830  1.00  0.00     0.277 C 
HETATM    2  N   UNL     1      41.489 -14.714   5.601  1.00  0.00    -0.322 N 
HETATM    3  O   UNL     1      39.663 -13.432   5.377  1.00  0.00    -0.266 OA
HETATM    4  H   UNL     1      41.324 -14.464   6.572  1.00  0.00     0.169 HD
ENDROOT
BRANCH   1   5
HETATM    5  C   UNL     1      40.458 -14.219   3.325  1.00  0.00     0.156 A 
HETATM    6  C   UNL     1      40.919 -13.064   2.519  1.00  0.00     0.016 A 
HETATM    7  C   UNL     1      41.481 -11.910   3.079  1.00  0.00     0.015 A 
HETATM    8  C   UNL     1      40.707 -13.124   1.143  1.00  0.00     0.046 A 
HETATM    9  C   UNL     1      41.798 -10.819   2.263  1.00  0.00     0.001 A 
HETATM   10  C   UNL     1      41.569 -10.879   0.889  1.00  0.00     0.001 A 
HETATM   11  C   UNL     1      41.030 -12.034   0.324  1.00  0.00     0.018 A 
HETATM   12  C   UNL     1      40.116 -14.340   0.562  1.00  0.00     0.272 A 
HETATM   13  O   UNL     1      39.959 -14.461  -0.648  1.00  0.00    -0.266 OA
HETATM   14  N   UNL     1      39.760 -15.327   1.451  1.00  0.00    -0.242 N 
HETATM   15  N   UNL     1      39.884 -15.268   2.808  1.00  0.00    -0.166 NA
HETATM   16  H   UNL     1      39.305 -16.152   1.072  1.00  0.00     0.192 HD
ENDBRANCH   1   5
BRANCH   2  17
HETATM   17  C   UNL     1      42.541 -15.624   5.399  1.00  0.00     0.035 A 
HETATM   18  C   UNL     1      42.553 -16.695   4.504  1.00  0.00     0.042 A 
HETATM   19  C   UNL     1      43.629 -17.610   4.472  1.00  0.00    -0.021 A 
HETATM   20  C   UNL     1      44.724 -17.393   5.320  1.00  0.00     0.012 A 
HETATM   21  C   UNL     1      44.745 -16.305   6.187  1.00  0.00     0.003 A 
HETATM   22  C   UNL     1      43.658 -15.434   6.228  1.00  0.00     0.029 A 
BRANCH  19  23
HETATM   23  C   UNL     1      43.615 -18.791   3.611  1.00  0.00     0.010 A 
HETATM   24  C   UNL     1      43.974 -20.137   3.882  1.00  0.00     0.152 A 
HETATM   25  N   UNL     1      43.791 -20.951   2.838  1.00  0.00    -0.187 NA
HETATM   26  N   UNL     1      43.303 -20.137   1.893  1.00  0.00    -0.289 N 
HETATM   27  H   UNL     1      43.068 -20.535   0.989  1.00  0.00     0.188 HD
HETATM   28  C   UNL     1      43.181 -18.839   2.301  1.00  0.00     0.123 A 
ENDBRANCH  19  23
ENDBRANCH   2  17
TORSDOF 3
ENDMDL
MODEL 6
REMARK VINA RESULT:      -7.8      2.918      6.512
REMARK  3 active torsions:
REMARK  status: ('A' for Active; 'I' for Inactive)
REMARK    1  A    between atoms: C_9  and  C_10 
REMARK       I    between atoms: C_10  and  N_11 
REMARK    2  A    between atoms: N_11  and  C_12 
REMARK    3  A    between atoms: C_14  and  C_15 
ROOT
HETATM    1  C   UNL     1      40.605 -15.015   3.720  1.00  0.00     0.277 C 
HETATM    2  N   UNL     1      40.543 -13.646   3.675  1.00  0.00    -0.322 N 
HETATM    3  O   UNL     1      39.950 -15.669   2.909  1.00  0.00    -0.266 OA
HETATM    4  H   UNL     1      39.918 -13.377   2.922  1.00  0.00     0.169 HD
ENDROOT
BRANCH   1   5
HETATM    5  C   UNL     1      41.471 -15.796   4.678  1.00  0.00     0.156 A 
HETATM    6  C   UNL     1      42.460 -16.751   4.123  1.00  0.00     0.016 A 
HETATM    7  C   UNL     1      42.686 -16.916   2.751  1.00  0.00     0.015 A 
HETATM    8  C   UNL     1      43.137 -17.565   5.031  1.00  0.00     0.046 A 
HETATM    9  C   UNL     1      43.562 -17.909   2.299  1.00  0.00     0.001 A 
HETATM   10  C   UNL     1      44.223 -18.730   3.212  1.00  0.00     0.001 A 
HETATM   11  C   UNL     1      44.019 -18.555   4.579  1.00  0.00     0.018 A 
HETATM   12  C   UNL     1      42.894 -17.385   6.471  1.00  0.00     0.272 A 
HETATM   13  O   UNL     1      43.503 -18.041   7.310  1.00  0.00    -0.266 OA
HETATM   14  N   UNL     1      41.955 -16.442   6.817  1.00  0.00    -0.242 N 
HETATM   15  N   UNL     1      41.222 -15.684   5.951  1.00  0.00    -0.166 NA
HETATM   16  H   UNL     1      41.739 -16.340   7.803  1.00  0.00     0.192 HD
ENDBRANCH   1   5
BRANCH   2  17
HETATM   17  C   UNL     1      41.026 -12.577   4.449  1.00  0.00     0.035 A 
HETATM   18  C   UNL     1      42.319 -12.434   4.954  1.00  0.00     0.042 A 
HETATM   19  C   UNL     1      42.655 -11.366   5.815  1.00  0.00    -0.021 A 
HETATM   20  C   UNL     1      41.677 -10.407   6.112  1.00  0.00     0.012 A 
HETATM   21  C   UNL     1      40.395 -10.513   5.581  1.00  0.00     0.003 A 
HETATM   22  C   UNL     1      40.075 -11.593   4.762  1.00  0.00     0.029 A 
BRANCH  19  23
HETATM   23  C   UNL     1      43.977 -11.255   6.431  1.00  0.00     0.010 A 
HETATM   24  C   UNL     1      44.354 -11.132   7.794  1.00  0.00     0.152 A 
HETATM   25  N   UNL     1      45.677 -11.090   7.972  1.00  0.00    -0.187 NA
HETATM   26  N   UNL     1      46.160 -11.196   6.727  1.00  0.00    -0.289 N 
HETATM   27  H   UNL     1      47.167 -11.201   6.601  1.00  0.00     0.188 HD
HETATM   28  C   UNL     1      45.188 -11.294   5.772  1.00  0.00     0.123 A 
ENDBRANCH  19  23
ENDBRANCH   2  17
TORSDOF 3
ENDMDL
MODEL 7
REMARK VINA RESULT:      -7.8      5.902      7.943
REMARK  3 active torsions:
REMARK  status: ('A' for Active; 'I' for Inactive)
REMARK    1  A    between atoms: C_9  and  C_10 
REMARK       I    between atoms: C_10  and  N_11 
REMARK    2  A    between atoms: N_11  and  C_12 
REMARK    3  A    between atoms: C_14  and  C_15 
ROOT
HETATM    1  C   UNL     1      45.401  -9.844   8.277  1.00  0.00     0.277 C 
HETATM    2  N   UNL     1      45.050 -10.485   7.118  1.00  0.00    -0.322 N 
HETATM    3  O   UNL     1      46.446  -9.194   8.307  1.00  0.00    -0.266 OA
HETATM    4  H   UNL     1      45.765 -10.304   6.421  1.00  0.00     0.169 HD
ENDROOT
BRANCH   1   5
HETATM    5  C   UNL     1      44.563  -9.835   9.533  1.00  0.00     0.156 A 
HETATM    6  C   UNL     1      43.810  -8.605   9.875  1.00  0.00     0.016 A 
HETATM    7  C   UNL     1      43.776  -7.470   9.057  1.00  0.00     0.015 A 
HETATM    8  C   UNL     1      43.169  -8.576  11.113  1.00  0.00     0.046 A 
HETATM    9  C   UNL     1      43.127  -6.310   9.494  1.00  0.00     0.001 A 
HETATM   10  C   UNL     1      42.502  -6.282  10.739  1.00  0.00     0.001 A 
HETATM   11  C   UNL     1      42.514  -7.417  11.549  1.00  0.00     0.018 A 
HETATM   12  C   UNL     1      43.209  -9.774  11.968  1.00  0.00     0.272 A 
HETATM   13  O   UNL     1      42.617  -9.814  13.041  1.00  0.00    -0.266 OA
HETATM   14  N   UNL     1      43.940 -10.837  11.491  1.00  0.00    -0.242 N 
HETATM   15  N   UNL     1      44.640 -10.869  10.321  1.00  0.00    -0.166 NA
HETATM   16  H   UNL     1      44.019 -11.652  12.091  1.00  0.00     0.192 HD
ENDBRANCH   1   5
BRANCH   2  17
HETATM   17  C   UNL     1      44.043 -11.378   6.711  1.00  0.00     0.035 A 
HETATM   18  C   UNL     1      43.990 -12.747   6.975  1.00  0.00     0.042 A 
HETATM   19  C   UNL     1      42.981 -13.563   6.414  1.00  0.00    -0.021 A 
HETATM   20  C   UNL     1      41.989 -12.961   5.627  1.00  0.00     0.012 A 
HETATM   21  C   UNL     1      42.006 -11.590   5.390  1.00  0.00     0.003 A 
HETATM   22  C   UNL     1      43.029 -10.811   5.924  1.00  0.00     0.029 A 
BRANCH  19  23
HETATM   23  C   UNL     1      42.966 -15.013   6.601  1.00  0.00     0.010 A 
HETATM   24  C   UNL     1      42.929 -16.067   5.650  1.00  0.00     0.152 A 
HETATM   25  N   UNL     1      42.962 -17.280   6.208  1.00  0.00    -0.187 NA
HETATM   26  N   UNL     1      43.030 -17.015   7.520  1.00  0.00    -0.289 N 
HETATM   27  H   UNL     1      43.077 -17.796   8.167  1.00  0.00     0.188 HD
HETATM   28  C   UNL     1      43.032 -15.680   7.807  1.00  0.00     0.123 A 
ENDBRANCH  19  23
ENDBRANCH   2  17
TORSDOF 3
ENDMDL
MODEL 8
REMARK VINA RESULT:      -7.8      2.801      5.124
REMARK  3 active torsions:
REMARK  status: ('A' for Active; 'I' for Inactive)
REMARK    1  A    between atoms: C_9  and  C_10 
REMARK       I    between atoms: C_10  and  N_11 
REMARK    2  A    between atoms: N_11  and  C_12 
REMARK    3  A    between atoms: C_14  and  C_15 
ROOT
HETATM    1  C   UNL     1      40.495 -15.306   6.148  1.00  0.00     0.277 C 
HETATM    2  N   UNL     1      40.962 -16.117   5.147  1.00  0.00    -0.322 N 
HETATM    3  O   UNL     1      40.041 -15.820   7.170  1.00  0.00    -0.266 OA
HETATM    4  H   UNL     1      40.849 -17.084   5.436  1.00  0.00     0.169 HD
ENDROOT
BRANCH   1   5
HETATM    5  C   UNL     1      40.538 -13.798   6.111  1.00  0.00     0.156 A 
HETATM    6  C   UNL     1      41.851 -13.121   6.245  1.00  0.00     0.016 A 
HETATM    7  C   UNL     1      43.067 -13.810   6.333  1.00  0.00     0.015 A 
HETATM    8  C   UNL     1      41.841 -11.732   6.358  1.00  0.00     0.046 A 
HETATM    9  C   UNL     1      44.255 -13.108   6.561  1.00  0.00     0.001 A 
HETATM   10  C   UNL     1      44.237 -11.720   6.689  1.00  0.00     0.001 A 
HETATM   11  C   UNL     1      43.032 -11.028   6.580  1.00  0.00     0.018 A 
HETATM   12  C   UNL     1      40.559 -11.015   6.264  1.00  0.00     0.272 A 
HETATM   13  O   UNL     1      40.506  -9.790   6.305  1.00  0.00    -0.266 OA
HETATM   14  N   UNL     1      39.436 -11.795   6.123  1.00  0.00    -0.242 N 
HETATM   15  N   UNL     1      39.404 -13.158   6.085  1.00  0.00    -0.166 NA
HETATM   16  H   UNL     1      38.539 -11.319   6.106  1.00  0.00     0.192 HD
ENDBRANCH   1   5
BRANCH   2  17
HETATM   17  C   UNL     1      41.440 -15.949   3.836  1.00  0.00     0.035 A 
HETATM   18  C   UNL     1      40.860 -15.170   2.834  1.00  0.00     0.042 A 
HETATM   19  C   UNL     1      41.374 -15.169   1.517  1.00  0.00    -0.021 A 
HETATM   20  C   UNL     1      42.523 -15.925   1.242  1.00  0.00     0.012 A 
HETATM   21  C   UNL     1      43.137 -16.672   2.242  1.00  0.00     0.003 A 
HETATM   22  C   UNL     1      42.594 -16.686   3.525  1.00  0.00     0.029 A 
BRANCH  19  23
HETATM   23  C   UNL     1      40.723 -14.436   0.433  1.00  0.00     0.010 A 
HETATM   24  C   UNL     1      39.750 -14.856  -0.512  1.00  0.00     0.152 A 
HETATM   25  N   UNL     1      39.364 -13.880  -1.339  1.00  0.00    -0.187 NA
HETATM   26  N   UNL     1      40.078 -12.824  -0.925  1.00  0.00    -0.289 N 
HETATM   27  H   UNL     1      39.947 -11.938  -1.402  1.00  0.00     0.188 HD
HETATM   28  C   UNL     1      40.905 -13.103   0.126  1.00  0.00     0.123 A 
ENDBRANCH  19  23
ENDBRANCH   2  17
TORSDOF 3
ENDMDL
MODEL 9
REMARK VINA RESULT:      -7.8      3.023      5.030
REMARK  3 active torsions:
REMARK  status: ('A' for Active; 'I' for Inactive)
REMARK    1  A    between atoms: C_9  and  C_10 
REMARK       I    between atoms: C_10  and  N_11 
REMARK    2  A    between atoms: N_11  and  C_12 
REMARK    3  A    between atoms: C_14  and  C_15 
ROOT
HETATM    1  C   UNL     1      40.431 -15.451   6.160  1.00  0.00     0.277 C 
HETATM    2  N   UNL     1      40.408 -16.130   4.970  1.00  0.00    -0.322 N 
HETATM    3  O   UNL     1      39.703 -15.830   7.078  1.00  0.00    -0.266 OA
HETATM    4  H   UNL     1      39.743 -16.894   5.048  1.00  0.00     0.169 HD
ENDROOT
BRANCH   1   5
HETATM    5  C   UNL     1      41.334 -14.278   6.453  1.00  0.00     0.156 A 
HETATM    6  C   UNL     1      40.932 -12.935   5.970  1.00  0.00     0.016 A 
HETATM    7  C   UNL     1      39.720 -12.683   5.315  1.00  0.00     0.015 A 
HETATM    8  C   UNL     1      41.855 -11.902   6.123  1.00  0.00     0.046 A 
HETATM    9  C   UNL     1      39.455 -11.411   4.797  1.00  0.00     0.001 A 
HETATM   10  C   UNL     1      40.389 -10.386   4.940  1.00  0.00     0.001 A 
HETATM   11  C   UNL     1      41.588 -10.626   5.610  1.00  0.00     0.018 A 
HETATM   12  C   UNL     1      43.127 -12.174   6.813  1.00  0.00     0.272 A 
HETATM   13  O   UNL     1      43.947 -11.286   7.018  1.00  0.00    -0.266 OA
HETATM   14  N   UNL     1      43.334 -13.473   7.215  1.00  0.00    -0.242 N 
HETATM   15  N   UNL     1      42.485 -14.521   7.012  1.00  0.00    -0.166 NA
HETATM   16  H   UNL     1      44.226 -13.689   7.647  1.00  0.00     0.192 HD
ENDBRANCH   1   5
BRANCH   2  17
HETATM   17  C   UNL     1      40.975 -15.972   3.694  1.00  0.00     0.035 A 
HETATM   18  C   UNL     1      40.483 -15.173   2.660  1.00  0.00     0.042 A 
HETATM   19  C   UNL     1      41.081 -15.183   1.380  1.00  0.00    -0.021 A 
HETATM   20  C   UNL     1      42.223 -15.971   1.175  1.00  0.00     0.012 A 
HETATM   21  C   UNL     1      42.749 -16.739   2.209  1.00  0.00     0.003 A 
HETATM   22  C   UNL     1      42.124 -16.741   3.454  1.00  0.00     0.029 A 
BRANCH  19  23
HETATM   23  C   UNL     1      40.522 -14.428   0.259  1.00  0.00     0.010 A 
HETATM   24  C   UNL     1      39.610 -14.820  -0.756  1.00  0.00     0.152 A 
HETATM   25  N   UNL     1      39.303 -13.830  -1.598  1.00  0.00    -0.187 NA
HETATM   26  N   UNL     1      40.008 -12.792  -1.126  1.00  0.00    -0.289 N 
HETATM   27  H   UNL     1      39.929 -11.900  -1.603  1.00  0.00     0.188 HD
HETATM   28  C   UNL     1      40.753 -13.097  -0.023  1.00  0.00     0.123 A 
ENDBRANCH  19  23
ENDBRANCH   2  17
TORSDOF 3
ENDMDL
MODEL 10
REMARK VINA RESULT:      -7.7     14.427     16.144
REMARK  3 active torsions:
REMARK  status: ('A' for Active; 'I' for Inactive)
REMARK    1  A    between atoms: C_9  and  C_10 
REMARK       I    between atoms: C_10  and  N_11 
REMARK    2  A    between atoms: N_11  and  C_12 
REMARK    3  A    between atoms: C_14  and  C_15 
ROOT
HETATM    1  C   UNL     1      43.796 -29.316   1.056  1.00  0.00     0.277 C 
HETATM    2  N   UNL     1      44.835 -28.894   1.843  1.00  0.00    -0.322 N 
HETATM    3  O   UNL     1      42.666 -28.877   1.272  1.00  0.00    -0.266 OA
HETATM    4  H   UNL     1      44.473 -28.237   2.529  1.00  0.00     0.169 HD
ENDROOT
BRANCH   1   5
HETATM    5  C   UNL     1      43.942 -30.262  -0.111  1.00  0.00     0.156 A 
HETATM    6  C   UNL     1      44.387 -29.717  -1.416  1.00  0.00     0.016 A 
HETATM    7  C   UNL     1      44.749 -28.377  -1.608  1.00  0.00     0.015 A 
HETATM    8  C   UNL     1      44.367 -30.583  -2.507  1.00  0.00     0.046 A 
HETATM    9  C   UNL     1      45.059 -27.913  -2.891  1.00  0.00     0.001 A 
HETATM   10  C   UNL     1      45.023 -28.781  -3.980  1.00  0.00     0.001 A 
HETATM   11  C   UNL     1      44.684 -30.120  -3.791  1.00  0.00     0.018 A 
HETATM   12  C   UNL     1      43.986 -31.990  -2.297  1.00  0.00     0.272 A 
HETATM   13  O   UNL     1      44.005 -32.802  -3.216  1.00  0.00    -0.266 OA
HETATM   14  N   UNL     1      43.617 -32.335  -1.018  1.00  0.00    -0.242 N 
HETATM   15  N   UNL     1      43.553 -31.494   0.053  1.00  0.00    -0.166 NA
HETATM   16  H   UNL     1      43.304 -33.288  -0.867  1.00  0.00     0.192 HD
ENDBRANCH   1   5
BRANCH   2  17
HETATM   17  C   UNL     1      46.195 -29.213   1.996  1.00  0.00     0.035 A 
HETATM   18  C   UNL     1      47.139 -29.337   0.976  1.00  0.00     0.042 A 
HETATM   19  C   UNL     1      48.456 -29.774   1.245  1.00  0.00    -0.021 A 
HETATM   20  C   UNL     1      48.822 -30.028   2.575  1.00  0.00     0.012 A 
HETATM   21  C   UNL     1      47.904 -29.866   3.607  1.00  0.00     0.003 A 
HETATM   22  C   UNL     1      46.601 -29.468   3.315  1.00  0.00     0.029 A 
BRANCH  19  23
HETATM   23  C   UNL     1      49.429 -30.003   0.178  1.00  0.00     0.010 A 
HETATM   24  C   UNL     1      50.717 -30.599   0.214  1.00  0.00     0.152 A 
HETATM   25  N   UNL     1      51.300 -30.663  -0.986  1.00  0.00    -0.187 NA
HETATM   26  N   UNL     1      50.388 -30.120  -1.803  1.00  0.00    -0.289 N 
HETATM   27  H   UNL     1      50.601 -30.066  -2.794  1.00  0.00     0.188 HD
HETATM   28  C   UNL     1      49.256 -29.707  -1.159  1.00  0.00     0.123 A 
ENDBRANCH  19  23
ENDBRANCH   2  17
TORSDOF 3
ENDMDL
