MODEL 1
REMARK VINA RESULT:      -8.8      0.000      0.000
REMARK  8 active torsions:
REMARK  status: ('A' for Active; 'I' for Inactive)
REMARK    1  A    between atoms: C_5  and  C_6 
REMARK       I    between atoms: C_6  and  N_7 
REMARK    2  A    between atoms: N_7  and  N_8 
REMARK       I    between atoms: N_8  and  C_9 
REMARK    3  A    between atoms: C_9  and  C_10 
REMARK    4  A    between atoms: C_10  and  C_11 
REMARK    5  A    between atoms: C_11  and  N_12 
REMARK    6  A    between atoms: N_12  and  C_13 
REMARK    7  A    between atoms: C_14  and  N_15 
REMARK    8  A    between atoms: C_19  and  C_20 
ROOT
HETATM    1  C   UNL     1      42.072 -14.123   4.175  1.00  0.00     0.102 C 
ENDROOT
BRANCH   1   2
HETATM    2  C   UNL     1      42.449 -12.940   3.292  1.00  0.00     0.119 C 
BRANCH   2   3
HETATM    3  C   UNL     1      41.443 -12.840   2.177  1.00  0.00     0.237 C 
HETATM    4  N   UNL     1      41.761 -13.574   1.055  1.00  0.00    -0.267 N 
HETATM    5  H   UNL     1      42.530 -14.240   0.995  1.00  0.00     0.190 HD
HETATM    6  O   UNL     1      40.458 -12.107   2.235  1.00  0.00    -0.272 OA
BRANCH   4   7
HETATM    7  N   UNL     1      40.903 -13.504  -0.044  1.00  0.00    -0.262 N 
HETATM    8  C   UNL     1      39.975 -14.504  -0.238  1.00  0.00     0.286 C 
HETATM    9  O   UNL     1      39.866 -15.443   0.550  1.00  0.00    -0.264 OA
HETATM   10  H   UNL     1      41.012 -12.706  -0.665  1.00  0.00     0.190 HD
BRANCH   8  11
HETATM   11  C   UNL     1      39.150 -14.370  -1.417  1.00  0.00     0.102 A 
HETATM   12  N   UNL     1      38.145 -13.427  -1.488  1.00  0.00    -0.361 N 
HETATM   13  C   UNL     1      37.506 -13.501  -2.695  1.00  0.00     0.088 A 
HETATM   14  H   UNL     1      37.928 -12.781  -0.737  1.00  0.00     0.165 HD
HETATM   15  C   UNL     1      38.098 -14.505  -3.423  1.00  0.00     0.019 A 
HETATM   16  C   UNL     1      39.132 -15.053  -2.624  1.00  0.00     0.036 A 
ENDBRANCH   8  11
ENDBRANCH   4   7
ENDBRANCH   2   3
ENDBRANCH   1   2
BRANCH   1  17
HETATM   17  N   UNL     1      43.246 -14.963   4.420  1.00  0.00    -0.290 NA
HETATM   18  H   UNL     1      43.573 -14.906   5.393  1.00  0.00     0.127 HD
BRANCH  17  19
HETATM   19  C   UNL     1      43.271 -16.289   3.955  1.00  0.00     0.041 A 
HETATM   20  C   UNL     1      43.713 -17.366   4.762  1.00  0.00     0.124 A 
HETATM   21  C   UNL     1      43.826 -18.680   4.265  1.00  0.00     0.054 A 
HETATM   22  C   UNL     1      43.523 -18.958   2.927  1.00  0.00     0.050 A 
HETATM   23  C   UNL     1      43.119 -17.900   2.105  1.00  0.00     0.018 A 
HETATM   24  C   UNL     1      43.011 -16.595   2.609  1.00  0.00     0.027 A 
BRANCH  20  25
HETATM   25  N   UNL     1      44.050 -17.155   6.174  1.00  0.00    -0.114 N 
HETATM   26  O   UNL     1      44.988 -16.385   6.438  1.00  0.00    -0.532 OA
HETATM   27  O   UNL     1      43.358 -17.738   7.020  1.00  0.00    -0.532 OA
ENDBRANCH  20  25
BRANCH  22  28
HETATM   28  C   UNL     1      43.632 -20.355   2.363  1.00  0.00     0.417 C 
HETATM   29  F   UNL     1      44.695 -20.522   1.532  1.00  0.00    -0.166 F 
HETATM   30  F   UNL     1      43.768 -21.294   3.339  1.00  0.00    -0.166 F 
HETATM   31  F   UNL     1      42.533 -20.713   1.646  1.00  0.00    -0.166 F 
ENDBRANCH  22  28
ENDBRANCH  17  19
ENDBRANCH   1  17
TORSDOF 8
ENDMDL
MODEL 2
REMARK VINA RESULT:      -8.8      3.888      6.862
REMARK  8 active torsions:
REMARK  status: ('A' for Active; 'I' for Inactive)
REMARK    1  A    between atoms: C_5  and  C_6 
REMARK       I    between atoms: C_6  and  N_7 
REMARK    2  A    between atoms: N_7  and  N_8 
REMARK       I    between atoms: N_8  and  C_9 
REMARK    3  A    between atoms: C_9  and  C_10 
REMARK    4  A    between atoms: C_10  and  C_11 
REMARK    5  A    between atoms: C_11  and  N_12 
REMARK    6  A    between atoms: N_12  and  C_13 
REMARK    7  A    between atoms: C_14  and  N_15 
REMARK    8  A    between atoms: C_19  and  C_20 
ROOT
HETATM    1  C   UNL     1      42.358 -13.770   3.595  1.00  0.00     0.102 C 
ENDROOT
BRANCH   1   2
HETATM    2  C   UNL     1      43.222 -12.649   3.033  1.00  0.00     0.119 C 
BRANCH   2   3
HETATM    3  C   UNL     1      43.812 -11.881   4.185  1.00  0.00     0.237 C 
HETATM    4  N   UNL     1      42.997 -11.802   5.293  1.00  0.00    -0.267 N 
HETATM    5  H   UNL     1      42.124 -12.314   5.411  1.00  0.00     0.190 HD
HETATM    6  O   UNL     1      44.898 -11.310   4.116  1.00  0.00    -0.272 OA
BRANCH   4   7
HETATM    7  N   UNL     1      43.449 -11.070   6.394  1.00  0.00    -0.262 N 
HETATM    8  C   UNL     1      43.901 -11.742   7.509  1.00  0.00     0.286 C 
HETATM    9  O   UNL     1      43.940 -12.972   7.549  1.00  0.00    -0.264 OA
HETATM   10  H   UNL     1      43.415 -10.057   6.320  1.00  0.00     0.190 HD
BRANCH   8  11
HETATM   11  C   UNL     1      44.318 -10.909   8.614  1.00  0.00     0.102 A 
HETATM   12  N   UNL     1      43.498 -10.697   9.704  1.00  0.00    -0.361 N 
HETATM   13  C   UNL     1      44.112  -9.874  10.608  1.00  0.00     0.088 A 
HETATM   14  H   UNL     1      42.574 -11.102   9.799  1.00  0.00     0.165 HD
HETATM   15  C   UNL     1      45.347  -9.543  10.105  1.00  0.00     0.019 A 
HETATM   16  C   UNL     1      45.481 -10.192   8.853  1.00  0.00     0.036 A 
ENDBRANCH   8  11
ENDBRANCH   4   7
ENDBRANCH   2   3
ENDBRANCH   1   2
BRANCH   1  17
HETATM   17  N   UNL     1      43.194 -14.748   4.294  1.00  0.00    -0.290 NA
HETATM   18  H   UNL     1      43.105 -14.682   5.315  1.00  0.00     0.127 HD
BRANCH  17  19
HETATM   19  C   UNL     1      43.208 -16.090   3.873  1.00  0.00     0.041 A 
HETATM   20  C   UNL     1      43.657 -17.141   4.709  1.00  0.00     0.124 A 
HETATM   21  C   UNL     1      43.759 -18.471   4.254  1.00  0.00     0.054 A 
HETATM   22  C   UNL     1      43.437 -18.793   2.931  1.00  0.00     0.050 A 
HETATM   23  C   UNL     1      43.025 -17.761   2.080  1.00  0.00     0.018 A 
HETATM   24  C   UNL     1      42.928 -16.439   2.541  1.00  0.00     0.027 A 
BRANCH  20  25
HETATM   25  N   UNL     1      44.014 -16.884   6.108  1.00  0.00    -0.114 N 
HETATM   26  O   UNL     1      44.966 -16.118   6.334  1.00  0.00    -0.532 OA
HETATM   27  O   UNL     1      43.325 -17.427   6.983  1.00  0.00    -0.532 OA
ENDBRANCH  20  25
BRANCH  22  28
HETATM   28  C   UNL     1      43.533 -20.208   2.413  1.00  0.00     0.417 C 
HETATM   29  F   UNL     1      43.794 -21.123   3.384  1.00  0.00    -0.166 F 
HETATM   30  F   UNL     1      42.380 -20.615   1.814  1.00  0.00    -0.166 F 
HETATM   31  F   UNL     1      44.514 -20.356   1.482  1.00  0.00    -0.166 F 
ENDBRANCH  22  28
ENDBRANCH  17  19
ENDBRANCH   1  17
TORSDOF 8
ENDMDL
MODEL 3
REMARK VINA RESULT:      -8.2      4.512      7.727
REMARK  8 active torsions:
REMARK  status: ('A' for Active; 'I' for Inactive)
REMARK    1  A    between atoms: C_5  and  C_6 
REMARK       I    between atoms: C_6  and  N_7 
REMARK    2  A    between atoms: N_7  and  N_8 
REMARK       I    between atoms: N_8  and  C_9 
REMARK    3  A    between atoms: C_9  and  C_10 
REMARK    4  A    between atoms: C_10  and  C_11 
REMARK    5  A    between atoms: C_11  and  N_12 
REMARK    6  A    between atoms: N_12  and  C_13 
REMARK    7  A    between atoms: C_14  and  N_15 
REMARK    8  A    between atoms: C_19  and  C_20 
ROOT
HETATM    1  C   UNL     1      42.823 -12.274   3.563  1.00  0.00     0.102 C 
ENDROOT
BRANCH   1   2
HETATM    2  C   UNL     1      43.966 -11.536   4.247  1.00  0.00     0.119 C 
BRANCH   2   3
HETATM    3  C   UNL     1      43.485 -11.058   5.592  1.00  0.00     0.237 C 
HETATM    4  N   UNL     1      44.148 -11.614   6.664  1.00  0.00    -0.267 N 
HETATM    5  H   UNL     1      44.981 -12.197   6.594  1.00  0.00     0.190 HD
HETATM    6  O   UNL     1      42.531 -10.294   5.723  1.00  0.00    -0.272 OA
BRANCH   4   7
HETATM    7  N   UNL     1      43.736 -11.259   7.950  1.00  0.00    -0.262 N 
HETATM    8  C   UNL     1      44.451 -10.308   8.647  1.00  0.00     0.286 C 
HETATM    9  O   UNL     1      45.428  -9.746   8.153  1.00  0.00    -0.264 OA
HETATM   10  H   UNL     1      42.917 -11.733   8.321  1.00  0.00     0.190 HD
BRANCH   8  11
HETATM   11  C   UNL     1      43.976 -10.024   9.982  1.00  0.00     0.102 A 
HETATM   12  N   UNL     1      43.398 -11.005  10.764  1.00  0.00    -0.361 N 
HETATM   13  C   UNL     1      43.028 -10.492  11.976  1.00  0.00     0.088 A 
HETATM   14  H   UNL     1      43.275 -11.964  10.460  1.00  0.00     0.165 HD
HETATM   15  C   UNL     1      43.366  -9.160  11.990  1.00  0.00     0.019 A 
HETATM   16  C   UNL     1      43.962  -8.863  10.739  1.00  0.00     0.036 A 
ENDBRANCH   8  11
ENDBRANCH   4   7
ENDBRANCH   2   3
ENDBRANCH   1   2
BRANCH   1  17
HETATM   17  N   UNL     1      42.322 -13.341   4.430  1.00  0.00    -0.290 NA
HETATM   18  H   UNL     1      41.339 -13.203   4.695  1.00  0.00     0.127 HD
BRANCH  17  19
HETATM   19  C   UNL     1      42.573 -14.686   4.106  1.00  0.00     0.041 A 
HETATM   20  C   UNL     1      42.777 -15.678   5.095  1.00  0.00     0.124 A 
HETATM   21  C   UNL     1      43.122 -17.006   4.769  1.00  0.00     0.054 A 
HETATM   22  C   UNL     1      43.302 -17.381   3.433  1.00  0.00     0.050 A 
HETATM   23  C   UNL     1      43.140 -16.406   2.443  1.00  0.00     0.018 A 
HETATM   24  C   UNL     1      42.797 -15.086   2.777  1.00  0.00     0.027 A 
BRANCH  20  25
HETATM   25  N   UNL     1      42.609 -15.363   6.518  1.00  0.00    -0.114 N 
HETATM   26  O   UNL     1      43.267 -14.419   6.986  1.00  0.00    -0.532 OA
HETATM   27  O   UNL     1      41.796 -16.042   7.162  1.00  0.00    -0.532 OA
ENDBRANCH  20  25
BRANCH  22  28
HETATM   28  C   UNL     1      43.669 -18.795   3.049  1.00  0.00     0.417 C 
HETATM   29  F   UNL     1      42.849 -19.329   2.104  1.00  0.00    -0.166 F 
HETATM   30  F   UNL     1      44.930 -18.879   2.542  1.00  0.00    -0.166 F 
HETATM   31  F   UNL     1      43.630 -19.648   4.108  1.00  0.00    -0.166 F 
ENDBRANCH  22  28
ENDBRANCH  17  19
ENDBRANCH   1  17
TORSDOF 8
ENDMDL
MODEL 4
REMARK VINA RESULT:      -8.2      4.159      7.581
REMARK  8 active torsions:
REMARK  status: ('A' for Active; 'I' for Inactive)
REMARK    1  A    between atoms: C_5  and  C_6 
REMARK       I    between atoms: C_6  and  N_7 
REMARK    2  A    between atoms: N_7  and  N_8 
REMARK       I    between atoms: N_8  and  C_9 
REMARK    3  A    between atoms: C_9  and  C_10 
REMARK    4  A    between atoms: C_10  and  C_11 
REMARK    5  A    between atoms: C_11  and  N_12 
REMARK    6  A    between atoms: N_12  and  C_13 
REMARK    7  A    between atoms: C_14  and  N_15 
REMARK    8  A    between atoms: C_19  and  C_20 
ROOT
HETATM    1  C   UNL     1      41.845 -14.445   5.104  1.00  0.00     0.102 C 
ENDROOT
BRANCH   1   2
HETATM    2  C   UNL     1      41.571 -13.030   4.612  1.00  0.00     0.119 C 
BRANCH   2   3
HETATM    3  C   UNL     1      41.510 -12.116   5.806  1.00  0.00     0.237 C 
HETATM    4  N   UNL     1      42.705 -11.975   6.477  1.00  0.00    -0.267 N 
HETATM    5  H   UNL     1      43.601 -12.335   6.150  1.00  0.00     0.190 HD
HETATM    6  O   UNL     1      40.465 -11.597   6.193  1.00  0.00    -0.272 OA
BRANCH   4   7
HETATM    7  N   UNL     1      42.729 -11.178   7.623  1.00  0.00    -0.262 N 
HETATM    8  C   UNL     1      43.906 -11.049   8.328  1.00  0.00     0.286 C 
HETATM    9  O   UNL     1      44.943 -11.599   7.958  1.00  0.00    -0.264 OA
HETATM   10  H   UNL     1      41.858 -10.728   7.891  1.00  0.00     0.190 HD
BRANCH   8  11
HETATM   11  C   UNL     1      43.835 -10.233   9.519  1.00  0.00     0.102 A 
HETATM   12  N   UNL     1      42.652 -10.078  10.214  1.00  0.00    -0.361 N 
HETATM   13  C   UNL     1      42.839  -9.260  11.294  1.00  0.00     0.088 A 
HETATM   14  H   UNL     1      41.780 -10.517   9.943  1.00  0.00     0.165 HD
HETATM   15  C   UNL     1      44.157  -8.873  11.307  1.00  0.00     0.019 A 
HETATM   16  C   UNL     1      44.786  -9.483  10.194  1.00  0.00     0.036 A 
ENDBRANCH   8  11
ENDBRANCH   4   7
ENDBRANCH   2   3
ENDBRANCH   1   2
BRANCH   1  17
HETATM   17  N   UNL     1      43.175 -14.880   4.670  1.00  0.00    -0.290 NA
HETATM   18  H   UNL     1      43.897 -14.697   5.378  1.00  0.00     0.127 HD
BRANCH  17  19
HETATM   19  C   UNL     1      43.344 -16.149   4.091  1.00  0.00     0.041 A 
HETATM   20  C   UNL     1      42.953 -16.432   2.760  1.00  0.00     0.124 A 
HETATM   21  C   UNL     1      43.037 -17.728   2.211  1.00  0.00     0.054 A 
HETATM   22  C   UNL     1      43.493 -18.797   2.990  1.00  0.00     0.050 A 
HETATM   23  C   UNL     1      43.851 -18.544   4.319  1.00  0.00     0.018 A 
HETATM   24  C   UNL     1      43.763 -17.250   4.857  1.00  0.00     0.027 A 
BRANCH  20  25
HETATM   25  N   UNL     1      42.462 -15.366   1.880  1.00  0.00    -0.114 N 
HETATM   26  O   UNL     1      41.338 -15.504   1.370  1.00  0.00    -0.532 OA
HETATM   27  O   UNL     1      43.190 -14.375   1.722  1.00  0.00    -0.532 OA
ENDBRANCH  20  25
BRANCH  22  28
HETATM   28  C   UNL     1      43.597 -20.197   2.433  1.00  0.00     0.417 C 
HETATM   29  F   UNL     1      43.840 -21.141   3.382  1.00  0.00    -0.166 F 
HETATM   30  F   UNL     1      42.456 -20.585   1.801  1.00  0.00    -0.166 F 
HETATM   31  F   UNL     1      44.595 -20.319   1.516  1.00  0.00    -0.166 F 
ENDBRANCH  22  28
ENDBRANCH  17  19
ENDBRANCH   1  17
TORSDOF 8
ENDMDL
MODEL 5
REMARK VINA RESULT:      -8.1      5.842      8.937
REMARK  8 active torsions:
REMARK  status: ('A' for Active; 'I' for Inactive)
REMARK    1  A    between atoms: C_5  and  C_6 
REMARK       I    between atoms: C_6  and  N_7 
REMARK    2  A    between atoms: N_7  and  N_8 
REMARK       I    between atoms: N_8  and  C_9 
REMARK    3  A    between atoms: C_9  and  C_10 
REMARK    4  A    between atoms: C_10  and  C_11 
REMARK    5  A    between atoms: C_11  and  N_12 
REMARK    6  A    between atoms: N_12  and  C_13 
REMARK    7  A    between atoms: C_14  and  N_15 
REMARK    8  A    between atoms: C_19  and  C_20 
ROOT
HETATM    1  C   UNL     1      43.296 -11.782   6.376  1.00  0.00     0.102 C 
ENDROOT
BRANCH   1   2
HETATM    2  C   UNL     1      44.719 -11.448   6.803  1.00  0.00     0.119 C 
BRANCH   2   3
HETATM    3  C   UNL     1      44.697 -11.043   8.253  1.00  0.00     0.237 C 
HETATM    4  N   UNL     1      43.435 -10.889   8.783  1.00  0.00    -0.267 N 
HETATM    5  H   UNL     1      42.570 -11.144   8.308  1.00  0.00     0.190 HD
HETATM    6  O   UNL     1      45.720 -10.799   8.890  1.00  0.00    -0.272 OA
BRANCH   4   7
HETATM    7  N   UNL     1      43.322 -10.472  10.111  1.00  0.00    -0.262 N 
HETATM    8  C   UNL     1      42.356  -9.548  10.446  1.00  0.00     0.286 C 
HETATM    9  O   UNL     1      41.573  -9.101   9.608  1.00  0.00    -0.264 OA
HETATM   10  H   UNL     1      43.976 -10.873  10.778  1.00  0.00     0.190 HD
BRANCH   8  11
HETATM   11  C   UNL     1      42.330  -9.147  11.834  1.00  0.00     0.102 A 
HETATM   12  N   UNL     1      41.374  -9.632  12.704  1.00  0.00    -0.361 N 
HETATM   13  C   UNL     1      41.555  -9.105  13.953  1.00  0.00     0.088 A 
HETATM   14  H   UNL     1      40.648 -10.286  12.433  1.00  0.00     0.165 HD
HETATM   15  C   UNL     1      42.641  -8.264  13.902  1.00  0.00     0.019 A 
HETATM   16  C   UNL     1      43.131  -8.289  12.572  1.00  0.00     0.036 A 
ENDBRANCH   8  11
ENDBRANCH   4   7
ENDBRANCH   2   3
ENDBRANCH   1   2
BRANCH   1  17
HETATM   17  N   UNL     1      42.990 -13.178   6.692  1.00  0.00    -0.290 NA
HETATM   18  H   UNL     1      42.182 -13.271   7.320  1.00  0.00     0.127 HD
BRANCH  17  19
HETATM   19  C   UNL     1      42.944 -14.137   5.664  1.00  0.00     0.041 A 
HETATM   20  C   UNL     1      43.265 -15.498   5.884  1.00  0.00     0.124 A 
HETATM   21  C   UNL     1      43.309 -16.439   4.834  1.00  0.00     0.054 A 
HETATM   22  C   UNL     1      43.059 -16.040   3.516  1.00  0.00     0.050 A 
HETATM   23  C   UNL     1      42.774 -14.691   3.275  1.00  0.00     0.018 A 
HETATM   24  C   UNL     1      42.733 -13.762   4.326  1.00  0.00     0.027 A 
BRANCH  20  25
HETATM   25  N   UNL     1      43.542 -15.994   7.236  1.00  0.00    -0.114 N 
HETATM   26  O   UNL     1      42.849 -15.556   8.169  1.00  0.00    -0.532 OA
HETATM   27  O   UNL     1      44.435 -16.844   7.362  1.00  0.00    -0.532 OA
ENDBRANCH  20  25
BRANCH  22  28
HETATM   28  C   UNL     1      43.096 -17.022   2.370  1.00  0.00     0.417 C 
HETATM   29  F   UNL     1      41.928 -17.698   2.198  1.00  0.00    -0.166 F 
HETATM   30  F   UNL     1      43.356 -16.413   1.180  1.00  0.00    -0.166 F 
HETATM   31  F   UNL     1      44.060 -17.969   2.527  1.00  0.00    -0.166 F 
ENDBRANCH  22  28
ENDBRANCH  17  19
ENDBRANCH   1  17
TORSDOF 8
ENDMDL
MODEL 6
REMARK VINA RESULT:      -8.0      5.776      9.099
REMARK  8 active torsions:
REMARK  status: ('A' for Active; 'I' for Inactive)
REMARK    1  A    between atoms: C_5  and  C_6 
REMARK       I    between atoms: C_6  and  N_7 
REMARK    2  A    between atoms: N_7  and  N_8 
REMARK       I    between atoms: N_8  and  C_9 
REMARK    3  A    between atoms: C_9  and  C_10 
REMARK    4  A    between atoms: C_10  and  C_11 
REMARK    5  A    between atoms: C_11  and  N_12 
REMARK    6  A    between atoms: N_12  and  C_13 
REMARK    7  A    between atoms: C_14  and  N_15 
REMARK    8  A    between atoms: C_19  and  C_20 
ROOT
HETATM    1  C   UNL     1      43.438 -12.299   6.289  1.00  0.00     0.102 C 
ENDROOT
BRANCH   1   2
HETATM    2  C   UNL     1      44.799 -11.981   6.892  1.00  0.00     0.119 C 
BRANCH   2   3
HETATM    3  C   UNL     1      44.611 -10.947   7.970  1.00  0.00     0.237 C 
HETATM    4  N   UNL     1      43.553 -11.193   8.817  1.00  0.00    -0.267 N 
HETATM    5  H   UNL     1      43.005 -12.052   8.828  1.00  0.00     0.190 HD
HETATM    6  O   UNL     1      45.299  -9.930   8.042  1.00  0.00    -0.272 OA
BRANCH   4   7
HETATM    7  N   UNL     1      43.280 -10.260   9.820  1.00  0.00    -0.262 N 
HETATM    8  C   UNL     1      43.522 -10.596  11.135  1.00  0.00     0.286 C 
HETATM    9  O   UNL     1      43.998 -11.688  11.443  1.00  0.00    -0.264 OA
HETATM   10  H   UNL     1      42.902  -9.364   9.527  1.00  0.00     0.190 HD
BRANCH   8  11
HETATM   11  C   UNL     1      43.181  -9.586  12.110  1.00  0.00     0.102 A 
HETATM   12  N   UNL     1      42.391  -9.881  13.204  1.00  0.00    -0.361 N 
HETATM   13  C   UNL     1      42.208  -8.765  13.973  1.00  0.00     0.088 A 
HETATM   14  H   UNL     1      42.011 -10.802  13.389  1.00  0.00     0.165 HD
HETATM   15  C   UNL     1      42.883  -7.727  13.377  1.00  0.00     0.019 A 
HETATM   16  C   UNL     1      43.497  -8.240  12.207  1.00  0.00     0.036 A 
ENDBRANCH   8  11
ENDBRANCH   4   7
ENDBRANCH   2   3
ENDBRANCH   1   2
BRANCH   1  17
HETATM   17  N   UNL     1      42.972 -13.606   6.759  1.00  0.00    -0.290 NA
HETATM   18  H   UNL     1      42.003 -13.578   7.097  1.00  0.00     0.127 HD
BRANCH  17  19
HETATM   19  C   UNL     1      43.205 -14.755   5.983  1.00  0.00     0.041 A 
HETATM   20  C   UNL     1      42.366 -15.120   4.901  1.00  0.00     0.124 A 
HETATM   21  C   UNL     1      42.545 -16.321   4.185  1.00  0.00     0.054 A 
HETATM   22  C   UNL     1      43.559 -17.216   4.546  1.00  0.00     0.050 A 
HETATM   23  C   UNL     1      44.374 -16.888   5.634  1.00  0.00     0.018 A 
HETATM   24  C   UNL     1      44.189 -15.691   6.343  1.00  0.00     0.027 A 
BRANCH  20  25
HETATM   25  N   UNL     1      41.281 -14.237   4.463  1.00  0.00    -0.114 N 
HETATM   26  O   UNL     1      40.335 -14.046   5.246  1.00  0.00    -0.532 OA
HETATM   27  O   UNL     1      41.387 -13.710   3.346  1.00  0.00    -0.532 OA
ENDBRANCH  20  25
BRANCH  22  28
HETATM   28  C   UNL     1      43.778 -18.509   3.798  1.00  0.00     0.417 C 
HETATM   29  F   UNL     1      42.861 -18.730   2.818  1.00  0.00    -0.166 F 
HETATM   30  F   UNL     1      44.995 -18.550   3.189  1.00  0.00    -0.166 F 
HETATM   31  F   UNL     1      43.728 -19.597   4.614  1.00  0.00    -0.166 F 
ENDBRANCH  22  28
ENDBRANCH  17  19
ENDBRANCH   1  17
TORSDOF 8
ENDMDL
MODEL 7
REMARK VINA RESULT:      -7.6      5.576      8.550
REMARK  8 active torsions:
REMARK  status: ('A' for Active; 'I' for Inactive)
REMARK    1  A    between atoms: C_5  and  C_6 
REMARK       I    between atoms: C_6  and  N_7 
REMARK    2  A    between atoms: N_7  and  N_8 
REMARK       I    between atoms: N_8  and  C_9 
REMARK    3  A    between atoms: C_9  and  C_10 
REMARK    4  A    between atoms: C_10  and  C_11 
REMARK    5  A    between atoms: C_11  and  N_12 
REMARK    6  A    between atoms: N_12  and  C_13 
REMARK    7  A    between atoms: C_14  and  N_15 
REMARK    8  A    between atoms: C_19  and  C_20 
ROOT
HETATM    1  C   UNL     1      39.473 -11.174   4.099  1.00  0.00     0.102 C 
ENDROOT
BRANCH   1   2
HETATM    2  C   UNL     1      38.747 -10.207   5.024  1.00  0.00     0.119 C 
BRANCH   2   3
HETATM    3  C   UNL     1      38.995 -10.632   6.446  1.00  0.00     0.237 C 
HETATM    4  N   UNL     1      39.672  -9.705   7.208  1.00  0.00    -0.267 N 
HETATM    5  H   UNL     1      39.886  -8.754   6.911  1.00  0.00     0.190 HD
HETATM    6  O   UNL     1      38.686 -11.743   6.871  1.00  0.00    -0.272 OA
BRANCH   4   7
HETATM    7  N   UNL     1      39.983 -10.036   8.528  1.00  0.00    -0.262 N 
HETATM    8  C   UNL     1      39.282  -9.440   9.554  1.00  0.00     0.286 C 
HETATM    9  O   UNL     1      38.371  -8.643   9.334  1.00  0.00    -0.264 OA
HETATM   10  H   UNL     1      40.732 -10.709   8.672  1.00  0.00     0.190 HD
BRANCH   8  11
HETATM   11  C   UNL     1      39.689  -9.814  10.889  1.00  0.00     0.102 A 
HETATM   12  N   UNL     1      38.975 -10.738  11.626  1.00  0.00    -0.361 N 
HETATM   13  C   UNL     1      39.554 -10.918  12.853  1.00  0.00     0.088 A 
HETATM   14  H   UNL     1      38.142 -11.203  11.287  1.00  0.00     0.165 HD
HETATM   15  C   UNL     1      40.658 -10.103  12.921  1.00  0.00     0.019 A 
HETATM   16  C   UNL     1      40.747  -9.409  11.689  1.00  0.00     0.036 A 
ENDBRANCH   8  11
ENDBRANCH   4   7
ENDBRANCH   2   3
ENDBRANCH   1   2
BRANCH   1  17
HETATM   17  N   UNL     1      40.720 -11.624   4.720  1.00  0.00    -0.290 NA
HETATM   18  H   UNL     1      40.692 -11.563   5.746  1.00  0.00     0.127 HD
BRANCH  17  19
HETATM   19  C   UNL     1      41.322 -12.824   4.301  1.00  0.00     0.041 A 
HETATM   20  C   UNL     1      42.451 -12.846   3.447  1.00  0.00     0.124 A 
HETATM   21  C   UNL     1      42.995 -14.049   2.952  1.00  0.00     0.054 A 
HETATM   22  C   UNL     1      42.406 -15.277   3.275  1.00  0.00     0.050 A 
HETATM   23  C   UNL     1      41.267 -15.272   4.089  1.00  0.00     0.018 A 
HETATM   24  C   UNL     1      40.732 -14.069   4.576  1.00  0.00     0.027 A 
BRANCH  20  25
HETATM   25  N   UNL     1      43.124 -11.602   3.062  1.00  0.00    -0.114 N 
HETATM   26  O   UNL     1      42.525 -10.832   2.292  1.00  0.00    -0.532 OA
HETATM   27  O   UNL     1      44.241 -11.380   3.551  1.00  0.00    -0.532 OA
ENDBRANCH  20  25
BRANCH  22  28
HETATM   28  C   UNL     1      42.964 -16.583   2.764  1.00  0.00     0.417 C 
HETATM   29  F   UNL     1      42.012 -17.530   2.544  1.00  0.00    -0.166 F 
HETATM   30  F   UNL     1      43.624 -16.433   1.583  1.00  0.00    -0.166 F 
HETATM   31  F   UNL     1      43.857 -17.141   3.626  1.00  0.00    -0.166 F 
ENDBRANCH  22  28
ENDBRANCH  17  19
ENDBRANCH   1  17
TORSDOF 8
ENDMDL
MODEL 8
REMARK VINA RESULT:      -7.5     13.759     16.401
REMARK  8 active torsions:
REMARK  status: ('A' for Active; 'I' for Inactive)
REMARK    1  A    between atoms: C_5  and  C_6 
REMARK       I    between atoms: C_6  and  N_7 
REMARK    2  A    between atoms: N_7  and  N_8 
REMARK       I    between atoms: N_8  and  C_9 
REMARK    3  A    between atoms: C_9  and  C_10 
REMARK    4  A    between atoms: C_10  and  C_11 
REMARK    5  A    between atoms: C_11  and  N_12 
REMARK    6  A    between atoms: N_12  and  C_13 
REMARK    7  A    between atoms: C_14  and  N_15 
REMARK    8  A    between atoms: C_19  and  C_20 
ROOT
HETATM    1  C   UNL     1      47.329 -28.305   2.296  1.00  0.00     0.102 C 
ENDROOT
BRANCH   1   2
HETATM    2  C   UNL     1      47.770 -29.475   3.165  1.00  0.00     0.119 C 
BRANCH   2   3
HETATM    3  C   UNL     1      48.891 -30.193   2.461  1.00  0.00     0.237 C 
HETATM    4  N   UNL     1      49.479 -29.474   1.445  1.00  0.00    -0.267 N 
HETATM    5  H   UNL     1      49.292 -28.492   1.244  1.00  0.00     0.190 HD
HETATM    6  O   UNL     1      49.203 -31.353   2.723  1.00  0.00    -0.272 OA
BRANCH   4   7
HETATM    7  N   UNL     1      50.499 -30.082   0.710  1.00  0.00    -0.262 N 
HETATM    8  C   UNL     1      50.264 -30.436  -0.601  1.00  0.00     0.286 C 
HETATM    9  O   UNL     1      49.185 -30.206  -1.147  1.00  0.00    -0.264 OA
HETATM   10  H   UNL     1      51.381 -30.243   1.189  1.00  0.00     0.190 HD
BRANCH   8  11
HETATM   11  C   UNL     1      51.361 -31.090  -1.278  1.00  0.00     0.102 A 
HETATM   12  N   UNL     1      51.660 -30.810  -2.596  1.00  0.00    -0.361 N 
HETATM   13  C   UNL     1      52.730 -31.555  -3.010  1.00  0.00     0.088 A 
HETATM   14  H   UNL     1      51.144 -30.145  -3.160  1.00  0.00     0.165 HD
HETATM   15  C   UNL     1      53.137 -32.331  -1.951  1.00  0.00     0.019 A 
HETATM   16  C   UNL     1      52.279 -32.041  -0.861  1.00  0.00     0.036 A 
ENDBRANCH   8  11
ENDBRANCH   4   7
ENDBRANCH   2   3
ENDBRANCH   1   2
BRANCH   1  17
HETATM   17  N   UNL     1      45.944 -28.495   1.861  1.00  0.00    -0.290 NA
HETATM   18  H   UNL     1      45.283 -27.911   2.387  1.00  0.00     0.127 HD
BRANCH  17  19
HETATM   19  C   UNL     1      45.633 -28.501   0.489  1.00  0.00     0.041 A 
HETATM   20  C   UNL     1      44.430 -29.056  -0.011  1.00  0.00     0.124 A 
HETATM   21  C   UNL     1      44.162 -29.146  -1.393  1.00  0.00     0.054 A 
HETATM   22  C   UNL     1      45.107 -28.706  -2.326  1.00  0.00     0.050 A 
HETATM   23  C   UNL     1      46.317 -28.188  -1.850  1.00  0.00     0.018 A 
HETATM   24  C   UNL     1      46.575 -28.103  -0.474  1.00  0.00     0.027 A 
BRANCH  20  25
HETATM   25  N   UNL     1      43.391 -29.540   0.903  1.00  0.00    -0.114 N 
HETATM   26  O   UNL     1      42.272 -29.002   0.849  1.00  0.00    -0.532 OA
HETATM   27  O   UNL     1      43.684 -30.479   1.657  1.00  0.00    -0.532 OA
ENDBRANCH  20  25
BRANCH  22  28
HETATM   28  C   UNL     1      44.851 -28.786  -3.812  1.00  0.00     0.417 C 
HETATM   29  F   UNL     1      43.547 -29.016  -4.125  1.00  0.00    -0.166 F 
HETATM   30  F   UNL     1      45.193 -27.636  -4.455  1.00  0.00    -0.166 F 
HETATM   31  F   UNL     1      45.563 -29.779  -4.410  1.00  0.00    -0.166 F 
ENDBRANCH  22  28
ENDBRANCH  17  19
ENDBRANCH   1  17
TORSDOF 8
ENDMDL
MODEL 9
REMARK VINA RESULT:      -7.5     13.890     15.389
REMARK  8 active torsions:
REMARK  status: ('A' for Active; 'I' for Inactive)
REMARK    1  A    between atoms: C_5  and  C_6 
REMARK       I    between atoms: C_6  and  N_7 
REMARK    2  A    between atoms: N_7  and  N_8 
REMARK       I    between atoms: N_8  and  C_9 
REMARK    3  A    between atoms: C_9  and  C_10 
REMARK    4  A    between atoms: C_10  and  C_11 
REMARK    5  A    between atoms: C_11  and  N_12 
REMARK    6  A    between atoms: N_12  and  C_13 
REMARK    7  A    between atoms: C_14  and  N_15 
REMARK    8  A    between atoms: C_19  and  C_20 
ROOT
HETATM    1  C   UNL     1      47.820 -28.443   2.426  1.00  0.00     0.102 C 
ENDROOT
BRANCH   1   2
HETATM    2  C   UNL     1      48.140 -29.414   3.555  1.00  0.00     0.119 C 
BRANCH   2   3
HETATM    3  C   UNL     1      46.868 -30.112   3.956  1.00  0.00     0.237 C 
HETATM    4  N   UNL     1      45.768 -29.769   3.201  1.00  0.00    -0.267 N 
HETATM    5  H   UNL     1      45.797 -29.199   2.357  1.00  0.00     0.190 HD
HETATM    6  O   UNL     1      46.802 -30.869   4.922  1.00  0.00    -0.272 OA
BRANCH   4   7
HETATM    7  N   UNL     1      44.537 -30.338   3.532  1.00  0.00    -0.262 N 
HETATM    8  C   UNL     1      43.426 -30.023   2.780  1.00  0.00     0.286 C 
HETATM    9  O   UNL     1      43.498 -29.272   1.807  1.00  0.00    -0.264 OA
HETATM   10  H   UNL     1      44.517 -30.965   4.333  1.00  0.00     0.190 HD
BRANCH   8  11
HETATM   11  C   UNL     1      42.187 -30.629   3.211  1.00  0.00     0.102 A 
HETATM   12  N   UNL     1      41.673 -30.397   4.471  1.00  0.00    -0.361 N 
HETATM   13  C   UNL     1      40.502 -31.083   4.641  1.00  0.00     0.088 A 
HETATM   14  H   UNL     1      42.119 -29.800   5.158  1.00  0.00     0.165 HD
HETATM   15  C   UNL     1      40.245 -31.773   3.481  1.00  0.00     0.019 A 
HETATM   16  C   UNL     1      41.301 -31.490   2.580  1.00  0.00     0.036 A 
ENDBRANCH   8  11
ENDBRANCH   4   7
ENDBRANCH   2   3
ENDBRANCH   1   2
BRANCH   1  17
HETATM   17  N   UNL     1      48.325 -28.966   1.155  1.00  0.00    -0.290 NA
HETATM   18  H   UNL     1      48.752 -29.896   1.255  1.00  0.00     0.127 HD
BRANCH  17  19
HETATM   19  C   UNL     1      47.525 -28.899   0.001  1.00  0.00     0.041 A 
HETATM   20  C   UNL     1      47.944 -29.431  -1.243  1.00  0.00     0.124 A 
HETATM   21  C   UNL     1      47.183 -29.280  -2.420  1.00  0.00     0.054 A 
HETATM   22  C   UNL     1      45.981 -28.563  -2.397  1.00  0.00     0.050 A 
HETATM   23  C   UNL     1      45.569 -27.999  -1.185  1.00  0.00     0.018 A 
HETATM   24  C   UNL     1      46.334 -28.154  -0.018  1.00  0.00     0.027 A 
BRANCH  20  25
HETATM   25  N   UNL     1      49.192 -30.194  -1.349  1.00  0.00    -0.114 N 
HETATM   26  O   UNL     1      49.152 -31.298  -1.916  1.00  0.00    -0.532 OA
HETATM   27  O   UNL     1      50.220 -29.676  -0.889  1.00  0.00    -0.532 OA
ENDBRANCH  20  25
BRANCH  22  28
HETATM   28  C   UNL     1      45.141 -28.384  -3.639  1.00  0.00     0.417 C 
HETATM   29  F   UNL     1      45.196 -27.126  -4.154  1.00  0.00    -0.166 F 
HETATM   30  F   UNL     1      45.526 -29.217  -4.644  1.00  0.00    -0.166 F 
HETATM   31  F   UNL     1      43.824 -28.643  -3.418  1.00  0.00    -0.166 F 
ENDBRANCH  22  28
ENDBRANCH  17  19
ENDBRANCH   1  17
TORSDOF 8
ENDMDL
MODEL 10
REMARK VINA RESULT:      -7.5      3.361      6.213
REMARK  8 active torsions:
REMARK  status: ('A' for Active; 'I' for Inactive)
REMARK    1  A    between atoms: C_5  and  C_6 
REMARK       I    between atoms: C_6  and  N_7 
REMARK    2  A    between atoms: N_7  and  N_8 
REMARK       I    between atoms: N_8  and  C_9 
REMARK    3  A    between atoms: C_9  and  C_10 
REMARK    4  A    between atoms: C_10  and  C_11 
REMARK    5  A    between atoms: C_11  and  N_12 
REMARK    6  A    between atoms: N_12  and  C_13 
REMARK    7  A    between atoms: C_14  and  N_15 
REMARK    8  A    between atoms: C_19  and  C_20 
ROOT
HETATM    1  C   UNL     1      41.957 -14.773   2.082  1.00  0.00     0.102 C 
ENDROOT
BRANCH   1   2
HETATM    2  C   UNL     1      41.911 -13.258   1.934  1.00  0.00     0.119 C 
BRANCH   2   3
HETATM    3  C   UNL     1      42.761 -12.649   3.017  1.00  0.00     0.237 C 
HETATM    4  N   UNL     1      42.077 -12.337   4.171  1.00  0.00    -0.267 N 
HETATM    5  H   UNL     1      41.111 -12.600   4.363  1.00  0.00     0.190 HD
HETATM    6  O   UNL     1      43.951 -12.385   2.857  1.00  0.00    -0.272 OA
BRANCH   4   7
HETATM    7  N   UNL     1      42.780 -11.728   5.212  1.00  0.00    -0.262 N 
HETATM    8  C   UNL     1      42.094 -11.302   6.329  1.00  0.00     0.286 C 
HETATM    9  O   UNL     1      40.880 -11.469   6.442  1.00  0.00    -0.264 OA
HETATM   10  H   UNL     1      43.784 -11.620   5.090  1.00  0.00     0.190 HD
BRANCH   8  11
HETATM   11  C   UNL     1      42.894 -10.654   7.343  1.00  0.00     0.102 A 
HETATM   12  N   UNL     1      42.327  -9.797   8.265  1.00  0.00    -0.361 N 
HETATM   13  C   UNL     1      43.284  -9.308   9.112  1.00  0.00     0.088 A 
HETATM   14  H   UNL     1      41.338  -9.574   8.291  1.00  0.00     0.165 HD
HETATM   15  C   UNL     1      44.491  -9.850   8.741  1.00  0.00     0.019 A 
HETATM   16  C   UNL     1      44.249 -10.696   7.631  1.00  0.00     0.036 A 
ENDBRANCH   8  11
ENDBRANCH   4   7
ENDBRANCH   2   3
ENDBRANCH   1   2
BRANCH   1  17
HETATM   17  N   UNL     1      43.225 -15.182   2.689  1.00  0.00    -0.290 NA
HETATM   18  H   UNL     1      43.628 -14.449   3.287  1.00  0.00     0.127 HD
BRANCH  17  19
HETATM   19  C   UNL     1      43.340 -16.447   3.292  1.00  0.00     0.041 A 
HETATM   20  C   UNL     1      43.403 -16.613   4.697  1.00  0.00     0.124 A 
HETATM   21  C   UNL     1      43.613 -17.872   5.296  1.00  0.00     0.054 A 
HETATM   22  C   UNL     1      43.796 -19.010   4.503  1.00  0.00     0.050 A 
HETATM   23  C   UNL     1      43.773 -18.859   3.112  1.00  0.00     0.018 A 
HETATM   24  C   UNL     1      43.564 -17.602   2.524  1.00  0.00     0.027 A 
BRANCH  20  25
HETATM   25  N   UNL     1      43.223 -15.468   5.595  1.00  0.00    -0.114 N 
HETATM   26  O   UNL     1      42.124 -14.888   5.584  1.00  0.00    -0.532 OA
HETATM   27  O   UNL     1      44.171 -15.166   6.334  1.00  0.00    -0.532 OA
ENDBRANCH  20  25
BRANCH  22  28
HETATM   28  C   UNL     1      44.021 -20.373   5.112  1.00  0.00     0.417 C 
HETATM   29  F   UNL     1      43.368 -21.373   4.460  1.00  0.00    -0.166 F 
HETATM   30  F   UNL     1      45.336 -20.724   5.115  1.00  0.00    -0.166 F 
HETATM   31  F   UNL     1      43.610 -20.438   6.408  1.00  0.00    -0.166 F 
ENDBRANCH  22  28
ENDBRANCH  17  19
ENDBRANCH   1  17
TORSDOF 8
ENDMDL
