MODEL 1
REMARK VINA RESULT:      -7.8      0.000      0.000
REMARK  9 active torsions:
REMARK  status: ('A' for Active; 'I' for Inactive)
REMARK    1  A    between atoms: O_2  and  C_3 
REMARK    2  A    between atoms: C_3  and  C_4 
REMARK    3  A    between atoms: C_4  and  S_5 
REMARK    4  A    between atoms: S_5  and  C_6 
REMARK    5  A    between atoms: C_7  and  C_8 
REMARK       I    between atoms: C_8  and  N_9 
REMARK    6  A    between atoms: N_9  and  C_10 
REMARK    7  A    between atoms: C_11  and  C_12 
REMARK       I    between atoms: C_12  and  N_13 
REMARK    8  A    between atoms: N_13  and  C_14 
REMARK    9  A    between atoms: C_14  and  C_15 
ROOT
HETATM    1  C   UNL     1      41.263 -14.594   3.047  1.00  0.00     0.050 A 
HETATM    2  C   UNL     1      41.631 -13.351   3.584  1.00  0.00     0.058 A 
HETATM    3  C   UNL     1      40.911 -12.191   3.257  1.00  0.00     0.019 A 
HETATM    4  C   UNL     1      39.831 -12.262   2.380  1.00  0.00     0.001 A 
HETATM    5  C   UNL     1      39.489 -13.483   1.804  1.00  0.00     0.002 A 
HETATM    6  C   UNL     1      40.208 -14.638   2.124  1.00  0.00     0.030 A 
ENDROOT
BRANCH   1   7
HETATM    7  N   UNL     1      41.892 -15.823   3.347  1.00  0.00    -0.322 N 
HETATM    8  C   UNL     1      42.955 -16.357   2.632  1.00  0.00     0.257 C 
HETATM    9  O   UNL     1      43.607 -15.741   1.800  1.00  0.00    -0.267 OA
HETATM   10  H   UNL     1      41.719 -16.215   4.264  1.00  0.00     0.169 HD
BRANCH   8  11
HETATM   11  C   UNL     1      43.323 -17.743   3.038  1.00  0.00     0.049 A 
HETATM   12  C   UNL     1      43.966 -18.047   4.252  1.00  0.00     0.016 A 
HETATM   13  C   UNL     1      44.281 -19.391   4.524  1.00  0.00     0.019 A 
HETATM   14  C   UNL     1      43.963 -20.410   3.623  1.00  0.00     0.001 A 
HETATM   15  C   UNL     1      43.337 -20.103   2.421  1.00  0.00     0.001 A 
HETATM   16  C   UNL     1      43.027 -18.776   2.125  1.00  0.00     0.018 A 
BRANCH  12  17
HETATM   17  S   UNL     1      44.460 -16.883   5.519  1.00  0.00    -0.127 SA
BRANCH  17  18
HETATM   18  C   UNL     1      43.396 -17.384   6.922  1.00  0.00     0.106 C 
BRANCH  18  19
HETATM   19  C   UNL     1      42.334 -16.350   7.298  1.00  0.00     0.177 C 
BRANCH  19  20
HETATM   20  O   UNL     1      41.517 -16.037   6.171  1.00  0.00    -0.395 OA
HETATM   21  C   UNL     1      40.180 -15.747   6.553  1.00  0.00     0.201 C 
ENDBRANCH  19  20
ENDBRANCH  18  19
ENDBRANCH  17  18
ENDBRANCH  12  17
ENDBRANCH   8  11
ENDBRANCH   1   7
BRANCH   2  22
HETATM   22  C   UNL     1      42.899 -13.132   4.316  1.00  0.00     0.254 C 
HETATM   23  N   UNL     1      42.797 -13.272   5.681  1.00  0.00    -0.354 N 
HETATM   24  H   UNL     1      42.103 -13.964   5.958  1.00  0.00     0.162 HD
HETATM   25  O   UNL     1      43.905 -12.801   3.702  1.00  0.00    -0.268 OA
BRANCH  23  26
HETATM   26  C   UNL     1      43.970 -13.200   6.532  1.00  0.00     0.155 C 
BRANCH  26  27
HETATM   27  C   UNL     1      44.281 -11.758   6.931  1.00  0.00     0.139 C 
HETATM   28  O   UNL     1      44.194 -11.581   8.357  1.00  0.00    -0.384 OA
HETATM   29  C   UNL     1      45.224 -10.666   8.760  1.00  0.00     0.168 C 
HETATM   30  C   UNL     1      45.908 -10.172   7.502  1.00  0.00     0.029 C 
HETATM   31  C   UNL     1      45.685 -11.317   6.547  1.00  0.00     0.035 C 
ENDBRANCH  26  27
ENDBRANCH  23  26
ENDBRANCH   2  22
TORSDOF 9
ENDMDL
MODEL 2
REMARK VINA RESULT:      -7.5      2.752      5.837
REMARK  9 active torsions:
REMARK  status: ('A' for Active; 'I' for Inactive)
REMARK    1  A    between atoms: O_2  and  C_3 
REMARK    2  A    between atoms: C_3  and  C_4 
REMARK    3  A    between atoms: C_4  and  S_5 
REMARK    4  A    between atoms: S_5  and  C_6 
REMARK    5  A    between atoms: C_7  and  C_8 
REMARK       I    between atoms: C_8  and  N_9 
REMARK    6  A    between atoms: N_9  and  C_10 
REMARK    7  A    between atoms: C_11  and  C_12 
REMARK       I    between atoms: C_12  and  N_13 
REMARK    8  A    between atoms: N_13  and  C_14 
REMARK    9  A    between atoms: C_14  and  C_15 
ROOT
HETATM    1  C   UNL     1      40.538 -14.423   3.576  1.00  0.00     0.050 A 
HETATM    2  C   UNL     1      39.971 -13.901   2.402  1.00  0.00     0.058 A 
HETATM    3  C   UNL     1      39.323 -12.655   2.416  1.00  0.00     0.019 A 
HETATM    4  C   UNL     1      39.221 -11.933   3.603  1.00  0.00     0.001 A 
HETATM    5  C   UNL     1      39.737 -12.466   4.782  1.00  0.00     0.002 A 
HETATM    6  C   UNL     1      40.379 -13.708   4.771  1.00  0.00     0.030 A 
ENDROOT
BRANCH   1   7
HETATM    7  N   UNL     1      41.248 -15.641   3.658  1.00  0.00    -0.322 N 
HETATM    8  C   UNL     1      42.602 -15.781   3.385  1.00  0.00     0.257 C 
HETATM    9  O   UNL     1      43.380 -14.847   3.250  1.00  0.00    -0.267 OA
HETATM   10  H   UNL     1      40.808 -16.396   4.168  1.00  0.00     0.169 HD
BRANCH   8  11
HETATM   11  C   UNL     1      43.075 -17.195   3.371  1.00  0.00     0.049 A 
HETATM   12  C   UNL     1      43.853 -17.758   4.400  1.00  0.00     0.016 A 
HETATM   13  C   UNL     1      44.257 -19.100   4.274  1.00  0.00     0.019 A 
HETATM   14  C   UNL     1      43.896 -19.868   3.165  1.00  0.00     0.001 A 
HETATM   15  C   UNL     1      43.136 -19.303   2.148  1.00  0.00     0.001 A 
HETATM   16  C   UNL     1      42.734 -17.972   2.245  1.00  0.00     0.018 A 
BRANCH  12  17
HETATM   17  S   UNL     1      44.420 -16.933   5.883  1.00  0.00    -0.127 SA
BRANCH  17  18
HETATM   18  C   UNL     1      42.924 -16.989   6.937  1.00  0.00     0.106 C 
BRANCH  18  19
HETATM   19  C   UNL     1      42.281 -15.624   7.180  1.00  0.00     0.177 C 
BRANCH  19  20
HETATM   20  O   UNL     1      43.236 -14.708   7.715  1.00  0.00    -0.395 OA
HETATM   21  C   UNL     1      43.371 -13.551   6.902  1.00  0.00     0.201 C 
ENDBRANCH  19  20
ENDBRANCH  18  19
ENDBRANCH  17  18
ENDBRANCH  12  17
ENDBRANCH   8  11
ENDBRANCH   1   7
BRANCH   2  22
HETATM   22  C   UNL     1      39.808 -14.694   1.163  1.00  0.00     0.254 C 
HETATM   23  N   UNL     1      39.496 -13.949   0.050  1.00  0.00    -0.354 N 
HETATM   24  H   UNL     1      39.907 -13.018   0.068  1.00  0.00     0.162 HD
HETATM   25  O   UNL     1      39.900 -15.914   1.207  1.00  0.00    -0.268 OA
BRANCH  23  26
HETATM   26  C   UNL     1      39.411 -14.561  -1.263  1.00  0.00     0.155 C 
BRANCH  26  27
HETATM   27  C   UNL     1      38.946 -13.558  -2.317  1.00  0.00     0.139 C 
HETATM   28  O   UNL     1      37.518 -13.381  -2.273  1.00  0.00    -0.384 OA
HETATM   29  C   UNL     1      37.228 -11.999  -2.539  1.00  0.00     0.168 C 
HETATM   30  C   UNL     1      38.539 -11.318  -2.870  1.00  0.00     0.029 C 
HETATM   31  C   UNL     1      39.538 -12.171  -2.129  1.00  0.00     0.035 C 
ENDBRANCH  26  27
ENDBRANCH  23  26
ENDBRANCH   2  22
TORSDOF 9
ENDMDL
MODEL 3
REMARK VINA RESULT:      -7.5      2.760      6.544
REMARK  9 active torsions:
REMARK  status: ('A' for Active; 'I' for Inactive)
REMARK    1  A    between atoms: O_2  and  C_3 
REMARK    2  A    between atoms: C_3  and  C_4 
REMARK    3  A    between atoms: C_4  and  S_5 
REMARK    4  A    between atoms: S_5  and  C_6 
REMARK    5  A    between atoms: C_7  and  C_8 
REMARK       I    between atoms: C_8  and  N_9 
REMARK    6  A    between atoms: N_9  and  C_10 
REMARK    7  A    between atoms: C_11  and  C_12 
REMARK       I    between atoms: C_12  and  N_13 
REMARK    8  A    between atoms: N_13  and  C_14 
REMARK    9  A    between atoms: C_14  and  C_15 
ROOT
HETATM    1  C   UNL     1      43.351 -17.833   2.971  1.00  0.00     0.050 A 
HETATM    2  C   UNL     1      43.954 -18.356   4.127  1.00  0.00     0.058 A 
HETATM    3  C   UNL     1      44.190 -19.734   4.246  1.00  0.00     0.019 A 
HETATM    4  C   UNL     1      43.810 -20.601   3.223  1.00  0.00     0.001 A 
HETATM    5  C   UNL     1      43.168 -20.097   2.095  1.00  0.00     0.002 A 
HETATM    6  C   UNL     1      42.928 -18.724   1.976  1.00  0.00     0.030 A 
ENDROOT
BRANCH   1   7
HETATM    7  N   UNL     1      43.113 -16.461   2.734  1.00  0.00    -0.322 N 
HETATM    8  C   UNL     1      41.878 -15.843   2.868  1.00  0.00     0.257 C 
HETATM    9  O   UNL     1      40.904 -16.354   3.406  1.00  0.00    -0.267 OA
HETATM   10  H   UNL     1      43.922 -15.854   2.698  1.00  0.00     0.169 HD
BRANCH   8  11
HETATM   11  C   UNL     1      41.850 -14.432   2.391  1.00  0.00     0.049 A 
HETATM   12  C   UNL     1      41.076 -14.001   1.297  1.00  0.00     0.016 A 
HETATM   13  C   UNL     1      41.140 -12.646   0.924  1.00  0.00     0.019 A 
HETATM   14  C   UNL     1      41.943 -11.737   1.617  1.00  0.00     0.001 A 
HETATM   15  C   UNL     1      42.713 -12.171   2.690  1.00  0.00     0.001 A 
HETATM   16  C   UNL     1      42.674 -13.511   3.070  1.00  0.00     0.018 A 
BRANCH  12  17
HETATM   17  S   UNL     1      40.001 -15.015   0.286  1.00  0.00    -0.127 SA
BRANCH  17  18
HETATM   18  C   UNL     1      39.485 -13.831  -1.013  1.00  0.00     0.106 C 
BRANCH  18  19
HETATM   19  C   UNL     1      39.341 -14.455  -2.400  1.00  0.00     0.177 C 
BRANCH  19  20
HETATM   20  O   UNL     1      39.794 -13.550  -3.407  1.00  0.00    -0.395 OA
HETATM   21  C   UNL     1      40.812 -12.688  -2.922  1.00  0.00     0.201 C 
ENDBRANCH  19  20
ENDBRANCH  18  19
ENDBRANCH  17  18
ENDBRANCH  12  17
ENDBRANCH   8  11
ENDBRANCH   1   7
BRANCH   2  22
HETATM   22  C   UNL     1      44.162 -17.561   5.358  1.00  0.00     0.254 C 
HETATM   23  N   UNL     1      43.148 -17.672   6.281  1.00  0.00    -0.354 N 
HETATM   24  H   UNL     1      42.704 -18.587   6.275  1.00  0.00     0.162 HD
HETATM   25  O   UNL     1      45.148 -16.842   5.457  1.00  0.00    -0.268 OA
BRANCH  23  26
HETATM   26  C   UNL     1      43.251 -17.044   7.586  1.00  0.00     0.155 C 
BRANCH  26  27
HETATM   27  C   UNL     1      42.527 -15.699   7.616  1.00  0.00     0.139 C 
HETATM   28  O   UNL     1      43.409 -14.624   7.246  1.00  0.00    -0.384 OA
HETATM   29  C   UNL     1      42.659 -13.672   6.476  1.00  0.00     0.168 C 
HETATM   30  C   UNL     1      41.217 -14.134   6.467  1.00  0.00     0.029 C 
HETATM   31  C   UNL     1      41.358 -15.624   6.647  1.00  0.00     0.035 C 
ENDBRANCH  26  27
ENDBRANCH  23  26
ENDBRANCH   2  22
TORSDOF 9
ENDMDL
MODEL 4
REMARK VINA RESULT:      -7.3      2.514      6.257
REMARK  9 active torsions:
REMARK  status: ('A' for Active; 'I' for Inactive)
REMARK    1  A    between atoms: O_2  and  C_3 
REMARK    2  A    between atoms: C_3  and  C_4 
REMARK    3  A    between atoms: C_4  and  S_5 
REMARK    4  A    between atoms: S_5  and  C_6 
REMARK    5  A    between atoms: C_7  and  C_8 
REMARK       I    between atoms: C_8  and  N_9 
REMARK    6  A    between atoms: N_9  and  C_10 
REMARK    7  A    between atoms: C_11  and  C_12 
REMARK       I    between atoms: C_12  and  N_13 
REMARK    8  A    between atoms: N_13  and  C_14 
REMARK    9  A    between atoms: C_14  and  C_15 
ROOT
HETATM    1  C   UNL     1      42.754 -16.843   3.461  1.00  0.00     0.050 A 
HETATM    2  C   UNL     1      43.392 -17.257   4.642  1.00  0.00     0.058 A 
HETATM    3  C   UNL     1      44.091 -18.473   4.686  1.00  0.00     0.019 A 
HETATM    4  C   UNL     1      44.144 -19.292   3.560  1.00  0.00     0.001 A 
HETATM    5  C   UNL     1      43.474 -18.913   2.399  1.00  0.00     0.002 A 
HETATM    6  C   UNL     1      42.773 -17.704   2.354  1.00  0.00     0.030 A 
ENDROOT
BRANCH   1   7
HETATM    7  N   UNL     1      42.066 -15.621   3.300  1.00  0.00    -0.322 N 
HETATM    8  C   UNL     1      40.720 -15.434   3.579  1.00  0.00     0.257 C 
HETATM    9  O   UNL     1      40.024 -16.232   4.192  1.00  0.00    -0.267 OA
HETATM   10  H   UNL     1      42.630 -14.785   3.205  1.00  0.00     0.169 HD
BRANCH   8  11
HETATM   11  C   UNL     1      40.191 -14.105   3.159  1.00  0.00     0.049 A 
HETATM   12  C   UNL     1      39.936 -13.764   1.817  1.00  0.00     0.016 A 
HETATM   13  C   UNL     1      39.454 -12.473   1.535  1.00  0.00     0.019 A 
HETATM   14  C   UNL     1      39.222 -11.544   2.552  1.00  0.00     0.001 A 
HETATM   15  C   UNL     1      39.485 -11.883   3.874  1.00  0.00     0.001 A 
HETATM   16  C   UNL     1      39.976 -13.153   4.176  1.00  0.00     0.018 A 
BRANCH  12  17
HETATM   17  S   UNL     1      40.181 -14.811   0.385  1.00  0.00    -0.127 SA
BRANCH  17  18
HETATM   18  C   UNL     1      39.643 -13.712  -0.977  1.00  0.00     0.106 C 
BRANCH  18  19
HETATM   19  C   UNL     1      39.370 -14.440  -2.292  1.00  0.00     0.177 C 
BRANCH  19  20
HETATM   20  O   UNL     1      39.989 -13.757  -3.382  1.00  0.00    -0.395 OA
HETATM   21  C   UNL     1      40.827 -12.701  -2.935  1.00  0.00     0.201 C 
ENDBRANCH  19  20
ENDBRANCH  18  19
ENDBRANCH  17  18
ENDBRANCH  12  17
ENDBRANCH   8  11
ENDBRANCH   1   7
BRANCH   2  22
HETATM   22  C   UNL     1      43.184 -16.589   5.946  1.00  0.00     0.254 C 
HETATM   23  N   UNL     1      43.721 -15.326   6.029  1.00  0.00    -0.354 N 
HETATM   24  H   UNL     1      43.710 -14.831   5.139  1.00  0.00     0.162 HD
HETATM   25  O   UNL     1      42.622 -17.191   6.853  1.00  0.00    -0.268 OA
BRANCH  23  26
HETATM   26  C   UNL     1      43.509 -14.495   7.200  1.00  0.00     0.155 C 
BRANCH  26  27
HETATM   27  C   UNL     1      43.477 -13.013   6.833  1.00  0.00     0.139 C 
HETATM   28  O   UNL     1      44.657 -12.334   7.300  1.00  0.00    -0.384 OA
HETATM   29  C   UNL     1      45.030 -11.354   6.318  1.00  0.00     0.168 C 
HETATM   30  C   UNL     1      43.960 -11.359   5.246  1.00  0.00     0.029 C 
HETATM   31  C   UNL     1      43.427 -12.766   5.334  1.00  0.00     0.035 C 
ENDBRANCH  26  27
ENDBRANCH  23  26
ENDBRANCH   2  22
TORSDOF 9
ENDMDL
MODEL 5
REMARK VINA RESULT:      -7.1      2.405      5.597
REMARK  9 active torsions:
REMARK  status: ('A' for Active; 'I' for Inactive)
REMARK    1  A    between atoms: O_2  and  C_3 
REMARK    2  A    between atoms: C_3  and  C_4 
REMARK    3  A    between atoms: C_4  and  S_5 
REMARK    4  A    between atoms: S_5  and  C_6 
REMARK    5  A    between atoms: C_7  and  C_8 
REMARK       I    between atoms: C_8  and  N_9 
REMARK    6  A    between atoms: N_9  and  C_10 
REMARK    7  A    between atoms: C_11  and  C_12 
REMARK       I    between atoms: C_12  and  N_13 
REMARK    8  A    between atoms: N_13  and  C_14 
REMARK    9  A    between atoms: C_14  and  C_15 
ROOT
HETATM    1  C   UNL     1      42.571 -16.150   2.874  1.00  0.00     0.050 A 
HETATM    2  C   UNL     1      42.975 -15.888   4.193  1.00  0.00     0.058 A 
HETATM    3  C   UNL     1      43.734 -16.829   4.906  1.00  0.00     0.019 A 
HETATM    4  C   UNL     1      44.080 -18.043   4.316  1.00  0.00     0.001 A 
HETATM    5  C   UNL     1      43.642 -18.332   3.025  1.00  0.00     0.002 A 
HETATM    6  C   UNL     1      42.882 -17.398   2.315  1.00  0.00     0.030 A 
ENDROOT
BRANCH   1   7
HETATM    7  N   UNL     1      41.847 -15.254   2.057  1.00  0.00    -0.322 N 
HETATM    8  C   UNL     1      40.474 -15.304   1.861  1.00  0.00     0.257 C 
HETATM    9  O   UNL     1      39.705 -15.984   2.527  1.00  0.00    -0.267 OA
HETATM   10  H   UNL     1      42.312 -14.394   1.794  1.00  0.00     0.169 HD
BRANCH   8  11
HETATM   11  C   UNL     1      39.976 -14.362   0.819  1.00  0.00     0.049 A 
HETATM   12  C   UNL     1      39.632 -13.024   1.088  1.00  0.00     0.016 A 
HETATM   13  C   UNL     1      39.156 -12.230   0.029  1.00  0.00     0.019 A 
HETATM   14  C   UNL     1      39.030 -12.741  -1.265  1.00  0.00     0.001 A 
HETATM   15  C   UNL     1      39.362 -14.065  -1.523  1.00  0.00     0.001 A 
HETATM   16  C   UNL     1      39.824 -14.875  -0.486  1.00  0.00     0.018 A 
BRANCH  12  17
HETATM   17  S   UNL     1      39.715 -12.200   2.675  1.00  0.00    -0.127 SA
BRANCH  17  18
HETATM   18  C   UNL     1      41.500 -11.814   2.802  1.00  0.00     0.106 C 
BRANCH  18  19
HETATM   19  C   UNL     1      41.859 -10.388   2.387  1.00  0.00     0.177 C 
BRANCH  19  20
HETATM   20  O   UNL     1      42.012 -10.300   0.971  1.00  0.00    -0.395 OA
HETATM   21  C   UNL     1      41.267  -9.221   0.425  1.00  0.00     0.201 C 
ENDBRANCH  19  20
ENDBRANCH  18  19
ENDBRANCH  17  18
ENDBRANCH  12  17
ENDBRANCH   8  11
ENDBRANCH   1   7
BRANCH   2  22
HETATM   22  C   UNL     1      42.453 -14.753   4.985  1.00  0.00     0.254 C 
HETATM   23  N   UNL     1      43.424 -13.974   5.568  1.00  0.00    -0.354 N 
HETATM   24  H   UNL     1      44.277 -13.923   5.015  1.00  0.00     0.162 HD
HETATM   25  O   UNL     1      41.244 -14.610   5.118  1.00  0.00    -0.268 OA
BRANCH  23  26
HETATM   26  C   UNL     1      43.082 -12.759   6.285  1.00  0.00     0.155 C 
BRANCH  26  27
HETATM   27  C   UNL     1      44.220 -12.313   7.201  1.00  0.00     0.139 C 
HETATM   28  O   UNL     1      45.384 -11.936   6.441  1.00  0.00    -0.384 OA
HETATM   29  C   UNL     1      46.002 -10.815   7.093  1.00  0.00     0.168 C 
HETATM   30  C   UNL     1      45.241 -10.563   8.377  1.00  0.00     0.029 C 
HETATM   31  C   UNL     1      43.871 -11.099   8.047  1.00  0.00     0.035 C 
ENDBRANCH  26  27
ENDBRANCH  23  26
ENDBRANCH   2  22
TORSDOF 9
ENDMDL
MODEL 6
REMARK VINA RESULT:      -7.0      3.723      7.537
REMARK  9 active torsions:
REMARK  status: ('A' for Active; 'I' for Inactive)
REMARK    1  A    between atoms: O_2  and  C_3 
REMARK    2  A    between atoms: C_3  and  C_4 
REMARK    3  A    between atoms: C_4  and  S_5 
REMARK    4  A    between atoms: S_5  and  C_6 
REMARK    5  A    between atoms: C_7  and  C_8 
REMARK       I    between atoms: C_8  and  N_9 
REMARK    6  A    between atoms: N_9  and  C_10 
REMARK    7  A    between atoms: C_11  and  C_12 
REMARK       I    between atoms: C_12  and  N_13 
REMARK    8  A    between atoms: N_13  and  C_14 
REMARK    9  A    between atoms: C_14  and  C_15 
ROOT
HETATM    1  C   UNL     1      40.060 -14.209   3.209  1.00  0.00     0.050 A 
HETATM    2  C   UNL     1      40.792 -15.253   3.796  1.00  0.00     0.058 A 
HETATM    3  C   UNL     1      41.114 -15.217   5.162  1.00  0.00     0.019 A 
HETATM    4  C   UNL     1      40.726 -14.132   5.945  1.00  0.00     0.001 A 
HETATM    5  C   UNL     1      40.042 -13.069   5.360  1.00  0.00     0.002 A 
HETATM    6  C   UNL     1      39.724 -13.101   3.999  1.00  0.00     0.030 A 
ENDROOT
BRANCH   1   7
HETATM    7  N   UNL     1      39.647 -14.171   1.859  1.00  0.00    -0.322 N 
HETATM    8  C   UNL     1      40.334 -13.521   0.844  1.00  0.00     0.257 C 
HETATM    9  O   UNL     1      41.474 -13.089   0.948  1.00  0.00    -0.267 OA
HETATM   10  H   UNL     1      38.949 -14.846   1.573  1.00  0.00     0.169 HD
BRANCH   8  11
HETATM   11  C   UNL     1      39.602 -13.478  -0.454  1.00  0.00     0.049 A 
HETATM   12  C   UNL     1      38.945 -12.329  -0.932  1.00  0.00     0.016 A 
HETATM   13  C   UNL     1      38.271 -12.409  -2.165  1.00  0.00     0.019 A 
HETATM   14  C   UNL     1      38.253 -13.590  -2.910  1.00  0.00     0.001 A 
HETATM   15  C   UNL     1      38.895 -14.724  -2.427  1.00  0.00     0.001 A 
HETATM   16  C   UNL     1      39.559 -14.672  -1.203  1.00  0.00     0.018 A 
BRANCH  12  17
HETATM   17  S   UNL     1      38.849 -10.738  -0.118  1.00  0.00    -0.127 SA
BRANCH  17  18
HETATM   18  C   UNL     1      40.024  -9.741  -1.108  1.00  0.00     0.106 C 
BRANCH  18  19
HETATM   19  C   UNL     1      41.418 -10.357  -1.223  1.00  0.00     0.177 C 
BRANCH  19  20
HETATM   20  O   UNL     1      42.411  -9.442  -0.760  1.00  0.00    -0.395 OA
HETATM   21  C   UNL     1      42.039  -8.093  -1.001  1.00  0.00     0.201 C 
ENDBRANCH  19  20
ENDBRANCH  18  19
ENDBRANCH  17  18
ENDBRANCH  12  17
ENDBRANCH   8  11
ENDBRANCH   1   7
BRANCH   2  22
HETATM   22  C   UNL     1      41.459 -16.313   3.008  1.00  0.00     0.254 C 
HETATM   23  N   UNL     1      42.627 -16.781   3.562  1.00  0.00    -0.354 N 
HETATM   24  H   UNL     1      42.618 -16.764   4.580  1.00  0.00     0.162 HD
HETATM   25  O   UNL     1      40.987 -16.657   1.932  1.00  0.00    -0.268 OA
BRANCH  23  26
HETATM   26  C   UNL     1      43.343 -17.897   2.971  1.00  0.00     0.155 C 
BRANCH  26  27
HETATM   27  C   UNL     1      44.074 -18.716   4.034  1.00  0.00     0.139 C 
HETATM   28  O   UNL     1      43.592 -18.404   5.355  1.00  0.00    -0.384 OA
HETATM   29  C   UNL     1      43.577 -19.616   6.126  1.00  0.00     0.168 C 
HETATM   30  C   UNL     1      44.184 -20.705   5.266  1.00  0.00     0.029 C 
HETATM   31  C   UNL     1      43.885 -20.216   3.872  1.00  0.00     0.035 C 
ENDBRANCH  26  27
ENDBRANCH  23  26
ENDBRANCH   2  22
TORSDOF 9
ENDMDL
MODEL 7
REMARK VINA RESULT:      -6.9      2.776      7.229
REMARK  9 active torsions:
REMARK  status: ('A' for Active; 'I' for Inactive)
REMARK    1  A    between atoms: O_2  and  C_3 
REMARK    2  A    between atoms: C_3  and  C_4 
REMARK    3  A    between atoms: C_4  and  S_5 
REMARK    4  A    between atoms: S_5  and  C_6 
REMARK    5  A    between atoms: C_7  and  C_8 
REMARK       I    between atoms: C_8  and  N_9 
REMARK    6  A    between atoms: N_9  and  C_10 
REMARK    7  A    between atoms: C_11  and  C_12 
REMARK       I    between atoms: C_12  and  N_13 
REMARK    8  A    between atoms: N_13  and  C_14 
REMARK    9  A    between atoms: C_14  and  C_15 
ROOT
HETATM    1  C   UNL     1      41.434 -13.308   4.404  1.00  0.00     0.050 A 
HETATM    2  C   UNL     1      41.730 -14.631   4.036  1.00  0.00     0.058 A 
HETATM    3  C   UNL     1      40.953 -15.294   3.073  1.00  0.00     0.019 A 
HETATM    4  C   UNL     1      39.866 -14.649   2.485  1.00  0.00     0.001 A 
HETATM    5  C   UNL     1      39.536 -13.355   2.880  1.00  0.00     0.002 A 
HETATM    6  C   UNL     1      40.306 -12.694   3.841  1.00  0.00     0.030 A 
ENDROOT
BRANCH   1   7
HETATM    7  N   UNL     1      42.179 -12.539   5.324  1.00  0.00    -0.322 N 
HETATM    8  C   UNL     1      43.187 -11.652   4.974  1.00  0.00     0.257 C 
HETATM    9  O   UNL     1      43.407 -11.272   3.831  1.00  0.00    -0.267 OA
HETATM   10  H   UNL     1      41.803 -12.451   6.260  1.00  0.00     0.169 HD
BRANCH   8  11
HETATM   11  C   UNL     1      43.938 -11.097   6.135  1.00  0.00     0.049 A 
HETATM   12  C   UNL     1      43.354 -10.260   7.104  1.00  0.00     0.016 A 
HETATM   13  C   UNL     1      44.164  -9.781   8.150  1.00  0.00     0.019 A 
HETATM   14  C   UNL     1      45.514 -10.125   8.242  1.00  0.00     0.001 A 
HETATM   15  C   UNL     1      46.088 -10.943   7.276  1.00  0.00     0.001 A 
HETATM   16  C   UNL     1      45.308 -11.420   6.224  1.00  0.00     0.018 A 
BRANCH  12  17
HETATM   17  S   UNL     1      41.653  -9.705   7.149  1.00  0.00    -0.127 SA
BRANCH  17  18
HETATM   18  C   UNL     1      41.585  -8.837   8.760  1.00  0.00     0.106 C 
BRANCH  18  19
HETATM   19  C   UNL     1      40.402  -9.246   9.637  1.00  0.00     0.177 C 
BRANCH  19  20
HETATM   20  O   UNL     1      40.845  -9.598  10.947  1.00  0.00    -0.395 OA
HETATM   21  C   UNL     1      39.769 -10.020  11.772  1.00  0.00     0.201 C 
ENDBRANCH  19  20
ENDBRANCH  18  19
ENDBRANCH  17  18
ENDBRANCH  12  17
ENDBRANCH   8  11
ENDBRANCH   1   7
BRANCH   2  22
HETATM   22  C   UNL     1      42.694 -15.476   4.774  1.00  0.00     0.254 C 
HETATM   23  N   UNL     1      43.011 -16.657   4.145  1.00  0.00    -0.354 N 
HETATM   24  H   UNL     1      42.997 -16.582   3.130  1.00  0.00     0.162 HD
HETATM   25  O   UNL     1      43.093 -15.121   5.876  1.00  0.00    -0.268 OA
BRANCH  23  26
HETATM   26  C   UNL     1      44.025 -17.546   4.683  1.00  0.00     0.155 C 
BRANCH  26  27
HETATM   27  C   UNL     1      44.353 -18.673   3.705  1.00  0.00     0.139 C 
HETATM   28  O   UNL     1      44.303 -19.957   4.354  1.00  0.00    -0.384 OA
HETATM   29  C   UNL     1      43.758 -20.909   3.425  1.00  0.00     0.168 C 
HETATM   30  C   UNL     1      43.568 -20.192   2.105  1.00  0.00     0.029 C 
HETATM   31  C   UNL     1      43.380 -18.762   2.541  1.00  0.00     0.035 C 
ENDBRANCH  26  27
ENDBRANCH  23  26
ENDBRANCH   2  22
TORSDOF 9
ENDMDL
MODEL 8
REMARK VINA RESULT:      -6.8      2.894      7.351
REMARK  9 active torsions:
REMARK  status: ('A' for Active; 'I' for Inactive)
REMARK    1  A    between atoms: O_2  and  C_3 
REMARK    2  A    between atoms: C_3  and  C_4 
REMARK    3  A    between atoms: C_4  and  S_5 
REMARK    4  A    between atoms: S_5  and  C_6 
REMARK    5  A    between atoms: C_7  and  C_8 
REMARK       I    between atoms: C_8  and  N_9 
REMARK    6  A    between atoms: N_9  and  C_10 
REMARK    7  A    between atoms: C_11  and  C_12 
REMARK       I    between atoms: C_12  and  N_13 
REMARK    8  A    between atoms: N_13  and  C_14 
REMARK    9  A    between atoms: C_14  and  C_15 
ROOT
HETATM    1  C   UNL     1      43.343 -16.361   3.871  1.00  0.00     0.050 A 
HETATM    2  C   UNL     1      42.589 -16.522   2.697  1.00  0.00     0.058 A 
HETATM    3  C   UNL     1      42.498 -17.776   2.074  1.00  0.00     0.019 A 
HETATM    4  C   UNL     1      43.173 -18.873   2.607  1.00  0.00     0.001 A 
HETATM    5  C   UNL     1      43.963 -18.712   3.743  1.00  0.00     0.002 A 
HETATM    6  C   UNL     1      44.058 -17.462   4.362  1.00  0.00     0.030 A 
ENDROOT
BRANCH   1   7
HETATM    7  N   UNL     1      43.460 -15.155   4.597  1.00  0.00    -0.322 N 
HETATM    8  C   UNL     1      42.461 -14.620   5.398  1.00  0.00     0.257 C 
HETATM    9  O   UNL     1      41.451 -15.221   5.738  1.00  0.00    -0.267 OA
HETATM   10  H   UNL     1      44.394 -14.790   4.733  1.00  0.00     0.169 HD
BRANCH   8  11
HETATM   11  C   UNL     1      42.764 -13.255   5.915  1.00  0.00     0.049 A 
HETATM   12  C   UNL     1      42.178 -12.085   5.398  1.00  0.00     0.016 A 
HETATM   13  C   UNL     1      42.552 -10.848   5.953  1.00  0.00     0.019 A 
HETATM   14  C   UNL     1      43.475 -10.768   6.998  1.00  0.00     0.001 A 
HETATM   15  C   UNL     1      44.058 -11.926   7.498  1.00  0.00     0.001 A 
HETATM   16  C   UNL     1      43.712 -13.162   6.955  1.00  0.00     0.018 A 
BRANCH  12  17
HETATM   17  S   UNL     1      40.991 -11.987   4.061  1.00  0.00    -0.127 SA
BRANCH  17  18
HETATM   18  C   UNL     1      39.408 -11.879   4.975  1.00  0.00     0.106 C 
BRANCH  18  19
HETATM   19  C   UNL     1      38.799 -10.478   5.002  1.00  0.00     0.177 C 
BRANCH  19  20
HETATM   20  O   UNL     1      38.235 -10.199   6.283  1.00  0.00    -0.395 OA
HETATM   21  C   UNL     1      39.076 -10.643   7.337  1.00  0.00     0.201 C 
ENDBRANCH  19  20
ENDBRANCH  18  19
ENDBRANCH  17  18
ENDBRANCH  12  17
ENDBRANCH   8  11
ENDBRANCH   1   7
BRANCH   2  22
HETATM   22  C   UNL     1      42.048 -15.382   1.924  1.00  0.00     0.254 C 
HETATM   23  N   UNL     1      40.737 -15.530   1.538  1.00  0.00    -0.354 N 
HETATM   24  H   UNL     1      40.184 -16.064   2.205  1.00  0.00     0.162 HD
HETATM   25  O   UNL     1      42.779 -14.442   1.637  1.00  0.00    -0.268 OA
BRANCH  23  26
HETATM   26  C   UNL     1      40.026 -14.455   0.869  1.00  0.00     0.155 C 
BRANCH  26  27
HETATM   27  C   UNL     1      40.259 -14.487  -0.641  1.00  0.00     0.139 C 
HETATM   28  O   UNL     1      39.144 -15.083  -1.328  1.00  0.00    -0.384 OA
HETATM   29  C   UNL     1      38.952 -14.380  -2.566  1.00  0.00     0.168 C 
HETATM   30  C   UNL     1      40.076 -13.374  -2.693  1.00  0.00     0.029 C 
HETATM   31  C   UNL     1      40.429 -13.106  -1.252  1.00  0.00     0.035 C 
ENDBRANCH  26  27
ENDBRANCH  23  26
ENDBRANCH   2  22
TORSDOF 9
ENDMDL
MODEL 9
REMARK VINA RESULT:      -6.8      3.007      5.665
REMARK  9 active torsions:
REMARK  status: ('A' for Active; 'I' for Inactive)
REMARK    1  A    between atoms: O_2  and  C_3 
REMARK    2  A    between atoms: C_3  and  C_4 
REMARK    3  A    between atoms: C_4  and  S_5 
REMARK    4  A    between atoms: S_5  and  C_6 
REMARK    5  A    between atoms: C_7  and  C_8 
REMARK       I    between atoms: C_8  and  N_9 
REMARK    6  A    between atoms: N_9  and  C_10 
REMARK    7  A    between atoms: C_11  and  C_12 
REMARK       I    between atoms: C_12  and  N_13 
REMARK    8  A    between atoms: N_13  and  C_14 
REMARK    9  A    between atoms: C_14  and  C_15 
ROOT
HETATM    1  C   UNL     1      42.327 -15.664   2.012  1.00  0.00     0.050 A 
HETATM    2  C   UNL     1      42.874 -15.049   3.150  1.00  0.00     0.058 A 
HETATM    3  C   UNL     1      43.499 -15.818   4.145  1.00  0.00     0.019 A 
HETATM    4  C   UNL     1      43.567 -17.203   4.020  1.00  0.00     0.001 A 
HETATM    5  C   UNL     1      42.985 -17.826   2.918  1.00  0.00     0.002 A 
HETATM    6  C   UNL     1      42.358 -17.063   1.929  1.00  0.00     0.030 A 
ENDROOT
BRANCH   1   7
HETATM    7  N   UNL     1      41.720 -14.979   0.937  1.00  0.00    -0.322 N 
HETATM    8  C   UNL     1      40.370 -14.665   0.867  1.00  0.00     0.257 C 
HETATM    9  O   UNL     1      39.591 -14.750   1.807  1.00  0.00    -0.267 OA
HETATM   10  H   UNL     1      42.334 -14.486   0.301  1.00  0.00     0.169 HD
BRANCH   8  11
HETATM   11  C   UNL     1      39.946 -14.100  -0.446  1.00  0.00     0.049 A 
HETATM   12  C   UNL     1      39.967 -12.724  -0.737  1.00  0.00     0.016 A 
HETATM   13  C   UNL     1      39.528 -12.301  -2.005  1.00  0.00     0.019 A 
HETATM   14  C   UNL     1      39.086 -13.216  -2.964  1.00  0.00     0.001 A 
HETATM   15  C   UNL     1      39.057 -14.573  -2.667  1.00  0.00     0.001 A 
HETATM   16  C   UNL     1      39.476 -15.013  -1.412  1.00  0.00     0.018 A 
BRANCH  12  17
HETATM   17  S   UNL     1      40.487 -11.408   0.361  1.00  0.00    -0.127 SA
BRANCH  17  18
HETATM   18  C   UNL     1      38.980 -11.143   1.366  1.00  0.00     0.106 C 
BRANCH  18  19
HETATM   19  C   UNL     1      39.204 -11.281   2.871  1.00  0.00     0.177 C 
BRANCH  19  20
HETATM   20  O   UNL     1      38.567 -10.215   3.574  1.00  0.00    -0.395 OA
HETATM   21  C   UNL     1      38.759 -10.318   4.977  1.00  0.00     0.201 C 
ENDBRANCH  19  20
ENDBRANCH  18  19
ENDBRANCH  17  18
ENDBRANCH  12  17
ENDBRANCH   8  11
ENDBRANCH   1   7
BRANCH   2  22
HETATM   22  C   UNL     1      42.633 -13.630   3.494  1.00  0.00     0.254 C 
HETATM   23  N   UNL     1      42.215 -13.423   4.788  1.00  0.00    -0.354 N 
HETATM   24  H   UNL     1      42.603 -14.098   5.443  1.00  0.00     0.162 HD
HETATM   25  O   UNL     1      42.759 -12.767   2.634  1.00  0.00    -0.268 OA
BRANCH  23  26
HETATM   26  C   UNL     1      42.043 -12.081   5.315  1.00  0.00     0.155 C 
BRANCH  26  27
HETATM   27  C   UNL     1      43.378 -11.476   5.745  1.00  0.00     0.139 C 
HETATM   28  O   UNL     1      43.182 -10.335   6.602  1.00  0.00    -0.384 OA
HETATM   29  C   UNL     1      44.211 -10.343   7.604  1.00  0.00     0.168 C 
HETATM   30  C   UNL     1      45.149 -11.486   7.278  1.00  0.00     0.029 C 
HETATM   31  C   UNL     1      44.247 -12.440   6.538  1.00  0.00     0.035 C 
ENDBRANCH  26  27
ENDBRANCH  23  26
ENDBRANCH   2  22
TORSDOF 9
ENDMDL
MODEL 10
REMARK VINA RESULT:      -6.7      2.928      7.670
REMARK  9 active torsions:
REMARK  status: ('A' for Active; 'I' for Inactive)
REMARK    1  A    between atoms: O_2  and  C_3 
REMARK    2  A    between atoms: C_3  and  C_4 
REMARK    3  A    between atoms: C_4  and  S_5 
REMARK    4  A    between atoms: S_5  and  C_6 
REMARK    5  A    between atoms: C_7  and  C_8 
REMARK       I    between atoms: C_8  and  N_9 
REMARK    6  A    between atoms: N_9  and  C_10 
REMARK    7  A    between atoms: C_11  and  C_12 
REMARK       I    between atoms: C_12  and  N_13 
REMARK    8  A    between atoms: N_13  and  C_14 
REMARK    9  A    between atoms: C_14  and  C_15 
ROOT
HETATM    1  C   UNL     1      43.092 -14.664   6.769  1.00  0.00     0.050 A 
HETATM    2  C   UNL     1      41.889 -15.117   6.204  1.00  0.00     0.058 A 
HETATM    3  C   UNL     1      41.739 -16.462   5.831  1.00  0.00     0.019 A 
HETATM    4  C   UNL     1      42.791 -17.358   6.004  1.00  0.00     0.001 A 
HETATM    5  C   UNL     1      44.004 -16.908   6.519  1.00  0.00     0.002 A 
HETATM    6  C   UNL     1      44.158 -15.567   6.887  1.00  0.00     0.030 A 
ENDROOT
BRANCH   1   7
HETATM    7  N   UNL     1      43.328 -13.346   7.219  1.00  0.00    -0.322 N 
HETATM    8  C   UNL     1      43.760 -12.305   6.409  1.00  0.00     0.257 C 
HETATM    9  O   UNL     1      43.784 -12.345   5.186  1.00  0.00    -0.267 OA
HETATM   10  H   UNL     1      42.937 -13.090   8.116  1.00  0.00     0.169 HD
BRANCH   8  11
HETATM   11  C   UNL     1      44.104 -11.060   7.153  1.00  0.00     0.049 A 
HETATM   12  C   UNL     1      43.179 -10.030   7.404  1.00  0.00     0.016 A 
HETATM   13  C   UNL     1      43.619  -8.891   8.103  1.00  0.00     0.019 A 
HETATM   14  C   UNL     1      44.937  -8.775   8.549  1.00  0.00     0.001 A 
HETATM   15  C   UNL     1      45.849  -9.791   8.289  1.00  0.00     0.001 A 
HETATM   16  C   UNL     1      45.438 -10.924   7.587  1.00  0.00     0.018 A 
BRANCH  12  17
HETATM   17  S   UNL     1      41.460  -9.994   6.904  1.00  0.00    -0.127 SA
BRANCH  17  18
HETATM   18  C   UNL     1      40.818  -8.582   7.876  1.00  0.00     0.106 C 
BRANCH  18  19
HETATM   19  C   UNL     1      39.886  -8.985   9.018  1.00  0.00     0.177 C 
BRANCH  19  20
HETATM   20  O   UNL     1      40.628  -9.558  10.094  1.00  0.00    -0.395 OA
HETATM   21  C   UNL     1      39.863  -9.618  11.290  1.00  0.00     0.201 C 
ENDBRANCH  19  20
ENDBRANCH  18  19
ENDBRANCH  17  18
ENDBRANCH  12  17
ENDBRANCH   8  11
ENDBRANCH   1   7
BRANCH   2  22
HETATM   22  C   UNL     1      40.816 -14.204   5.753  1.00  0.00     0.254 C 
HETATM   23  N   UNL     1      40.925 -13.805   4.441  1.00  0.00    -0.354 N 
HETATM   24  H   UNL     1      41.342 -14.515   3.844  1.00  0.00     0.162 HD
HETATM   25  O   UNL     1      39.964 -13.828   6.548  1.00  0.00    -0.268 OA
BRANCH  23  26
HETATM   26  C   UNL     1      39.894 -12.998   3.814  1.00  0.00     0.155 C 
BRANCH  26  27
HETATM   27  C   UNL     1      39.546 -13.524   2.422  1.00  0.00     0.139 C 
HETATM   28  O   UNL     1      40.221 -12.772   1.397  1.00  0.00    -0.384 OA
HETATM   29  C   UNL     1      40.601 -13.679   0.350  1.00  0.00     0.168 C 
HETATM   30  C   UNL     1      40.033 -15.038   0.703  1.00  0.00     0.029 C 
HETATM   31  C   UNL     1      39.955 -14.972   2.207  1.00  0.00     0.035 C 
ENDBRANCH  26  27
ENDBRANCH  23  26
ENDBRANCH   2  22
TORSDOF 9
ENDMDL
