MODEL 1
REMARK VINA RESULT:      -8.9      0.000      0.000
REMARK  8 active torsions:
REMARK  status: ('A' for Active; 'I' for Inactive)
REMARK    1  A    between atoms: C_6  and  N_7 
REMARK    2  A    between atoms: N_7  and  C_8 
REMARK    3  A    between atoms: C_8  and  N_9 
REMARK    4  A    between atoms: N_9  and  C_10 
REMARK    5  A    between atoms: N_9  and  C_25 
REMARK    6  A    between atoms: C_10  and  C_11 
REMARK    7  A    between atoms: C_25  and  C_26 
REMARK    8  A    between atoms: C_26  and  N_27 
ROOT
HETATM    1  N   UNL     1      43.342 -14.281   6.358  1.00  0.00    -0.352 N 
ENDROOT
BRANCH   1   2
HETATM    2  C   UNL     1      43.838 -15.555   6.533  1.00  0.00     0.174 C 
HETATM    3  S   UNL     1      43.342 -16.494   7.831  1.00  0.00    -0.041 SA
BRANCH   2   4
HETATM    4  N   UNL     1      44.507 -16.190   5.538  1.00  0.00    -0.333 N 
HETATM    5  H   UNL     1      45.443 -15.815   5.390  1.00  0.00     0.168 HD
BRANCH   4   6
HETATM    6  C   UNL     1      44.059 -17.007   4.479  1.00  0.00     0.035 A 
HETATM    7  C   UNL     1      44.195 -18.390   4.646  1.00  0.00     0.053 A 
HETATM    8  C   UNL     1      43.780 -19.265   3.641  1.00  0.00     0.036 A 
HETATM    9  C   UNL     1      43.250 -18.773   2.453  1.00  0.00     0.024 A 
HETATM   10 CL   UNL     1      43.920 -20.961   3.882  1.00  0.00    -0.084 Cl
HETATM   11  C   UNL     1      43.147 -17.396   2.265  1.00  0.00     0.004 A 
HETATM   12  C   UNL     1      43.558 -16.517   3.272  1.00  0.00     0.029 A 
ENDBRANCH   4   6
ENDBRANCH   2   4
ENDBRANCH   1   2
BRANCH   1  13
HETATM   13  C   UNL     1      41.872 -14.109   6.386  1.00  0.00     0.169 C 
BRANCH  13  14
HETATM   14  C   UNL     1      41.206 -14.347   5.059  1.00  0.00     0.029 A 
HETATM   15  C   UNL     1      40.505 -15.653   4.864  1.00  0.00     0.253 A 
HETATM   16  O   UNL     1      40.305 -16.419   5.803  1.00  0.00    -0.268 OA
HETATM   17  N   UNL     1      40.072 -15.965   3.605  1.00  0.00    -0.322 N 
HETATM   18  C   UNL     1      40.242 -15.131   2.494  1.00  0.00     0.048 A 
HETATM   19  H   UNL     1      39.635 -16.870   3.490  1.00  0.00     0.169 HD
HETATM   20  C   UNL     1      40.878 -13.884   2.671  1.00  0.00    -0.006 A 
HETATM   21  C   UNL     1      39.793 -15.548   1.240  1.00  0.00     0.070 A 
HETATM   22  C   UNL     1      41.066 -13.035   1.574  1.00  0.00     0.053 A 
HETATM   23  C   UNL     1      41.378 -13.532   4.001  1.00  0.00     0.028 A 
HETATM   24  C   UNL     1      40.616 -13.470   0.345  1.00  0.00     0.106 A 
HETATM   25  C   UNL     1      40.001 -14.689   0.183  1.00  0.00     0.107 A 
HETATM   26  O   UNL     1      40.727 -12.787  -0.827  1.00  0.00    -0.323 OA
HETATM   27  O   UNL     1      39.648 -14.925  -1.110  1.00  0.00    -0.323 OA
HETATM   28  C   UNL     1      40.135 -13.726  -1.751  1.00  0.00     0.352 A 
ENDBRANCH  13  14
ENDBRANCH   1  13
BRANCH   1  29
HETATM   29  C   UNL     1      44.144 -13.067   6.632  1.00  0.00     0.153 C 
BRANCH  29  30
HETATM   30  C   UNL     1      43.421 -11.722   6.428  1.00  0.00     0.254 C 
BRANCH  30  31
HETATM   31  N   UNL     1      44.167 -10.560   7.055  1.00  0.00    -0.066 N 
HETATM   32  H   UNL     1      44.111  -9.773   6.390  1.00  0.00     0.280 HD
HETATM   33  C   UNL     1      43.554 -10.059   8.356  1.00  0.00     0.261 C 
HETATM   34  C   UNL     1      44.394  -8.895   8.898  1.00  0.00     0.195 C 
HETATM   35  O   UNL     1      45.757  -9.292   9.093  1.00  0.00    -0.388 OA
HETATM   36  C   UNL     1      46.369  -9.691   7.863  1.00  0.00     0.195 C 
HETATM   37  C   UNL     1      45.639 -10.892   7.256  1.00  0.00     0.261 C 
ENDBRANCH  30  31
ENDBRANCH  29  30
ENDBRANCH   1  29
TORSDOF 8
ENDMDL
MODEL 2
REMARK VINA RESULT:      -8.7      3.491      7.690
REMARK  8 active torsions:
REMARK  status: ('A' for Active; 'I' for Inactive)
REMARK    1  A    between atoms: C_6  and  N_7 
REMARK    2  A    between atoms: N_7  and  C_8 
REMARK    3  A    between atoms: C_8  and  N_9 
REMARK    4  A    between atoms: N_9  and  C_10 
REMARK    5  A    between atoms: N_9  and  C_25 
REMARK    6  A    between atoms: C_10  and  C_11 
REMARK    7  A    between atoms: C_25  and  C_26 
REMARK    8  A    between atoms: C_26  and  N_27 
ROOT
HETATM    1  N   UNL     1      41.660 -12.269   5.130  1.00  0.00    -0.352 N 
ENDROOT
BRANCH   1   2
HETATM    2  C   UNL     1      41.700 -11.323   6.131  1.00  0.00     0.174 C 
HETATM    3  S   UNL     1      40.465 -10.200   6.296  1.00  0.00    -0.041 SA
BRANCH   2   4
HETATM    4  N   UNL     1      42.568 -11.436   7.169  1.00  0.00    -0.333 N 
HETATM    5  H   UNL     1      42.223 -12.050   7.905  1.00  0.00     0.168 HD
BRANCH   4   6
HETATM    6  C   UNL     1      43.658 -10.637   7.571  1.00  0.00     0.035 A 
HETATM    7  C   UNL     1      43.357  -9.370   8.084  1.00  0.00     0.053 A 
HETATM    8  C   UNL     1      44.381  -8.517   8.500  1.00  0.00     0.036 A 
HETATM    9  C   UNL     1      45.712  -8.906   8.387  1.00  0.00     0.024 A 
HETATM   10 CL   UNL     1      43.988  -6.980   9.162  1.00  0.00    -0.084 Cl
HETATM   11  C   UNL     1      46.019 -10.151   7.842  1.00  0.00     0.004 A 
HETATM   12  C   UNL     1      44.995 -11.009   7.429  1.00  0.00     0.029 A 
ENDBRANCH   4   6
ENDBRANCH   2   4
ENDBRANCH   1   2
BRANCH   1  13
HETATM   13  C   UNL     1      42.949 -12.833   4.669  1.00  0.00     0.169 C 
BRANCH  13  14
HETATM   14  C   UNL     1      43.028 -14.332   4.771  1.00  0.00     0.029 A 
HETATM   15  C   UNL     1      43.417 -14.913   6.093  1.00  0.00     0.253 A 
HETATM   16  O   UNL     1      43.476 -14.220   7.105  1.00  0.00    -0.268 OA
HETATM   17  N   UNL     1      43.688 -16.251   6.147  1.00  0.00    -0.322 N 
HETATM   18  C   UNL     1      43.617 -17.106   5.041  1.00  0.00     0.048 A 
HETATM   19  H   UNL     1      43.987 -16.615   7.044  1.00  0.00     0.169 HD
HETATM   20  C   UNL     1      43.225 -16.575   3.795  1.00  0.00    -0.006 A 
HETATM   21  C   UNL     1      43.942 -18.456   5.188  1.00  0.00     0.070 A 
HETATM   22  C   UNL     1      43.153 -17.408   2.672  1.00  0.00     0.053 A 
HETATM   23  C   UNL     1      42.955 -15.139   3.696  1.00  0.00     0.028 A 
HETATM   24  C   UNL     1      43.482 -18.738   2.841  1.00  0.00     0.106 A 
HETATM   25  C   UNL     1      43.866 -19.244   4.060  1.00  0.00     0.107 A 
HETATM   26  O   UNL     1      43.482 -19.684   1.864  1.00  0.00    -0.323 OA
HETATM   27  O   UNL     1      44.156 -20.573   4.001  1.00  0.00    -0.323 OA
HETATM   28  C   UNL     1      43.936 -20.841   2.600  1.00  0.00     0.352 A 
ENDBRANCH  13  14
ENDBRANCH   1  13
BRANCH   1  29
HETATM   29  C   UNL     1      40.457 -13.085   4.849  1.00  0.00     0.153 C 
BRANCH  29  30
HETATM   30  C   UNL     1      39.663 -12.702   3.587  1.00  0.00     0.254 C 
BRANCH  30  31
HETATM   31  N   UNL     1      40.122 -13.465   2.358  1.00  0.00    -0.066 N 
HETATM   32  H   UNL     1      41.154 -13.452   2.365  1.00  0.00     0.280 HD
HETATM   33  C   UNL     1      39.717 -14.933   2.353  1.00  0.00     0.261 C 
HETATM   34  C   UNL     1      40.227 -15.597   1.067  1.00  0.00     0.195 C 
HETATM   35  O   UNL     1      39.723 -14.922  -0.093  1.00  0.00    -0.388 OA
HETATM   36  C   UNL     1      40.161 -13.560  -0.141  1.00  0.00     0.195 C 
HETATM   37  C   UNL     1      39.659 -12.783   1.079  1.00  0.00     0.261 C 
ENDBRANCH  30  31
ENDBRANCH  29  30
ENDBRANCH   1  29
TORSDOF 8
ENDMDL
MODEL 3
REMARK VINA RESULT:      -8.6      1.796      2.561
REMARK  8 active torsions:
REMARK  status: ('A' for Active; 'I' for Inactive)
REMARK    1  A    between atoms: C_6  and  N_7 
REMARK    2  A    between atoms: N_7  and  C_8 
REMARK    3  A    between atoms: C_8  and  N_9 
REMARK    4  A    between atoms: N_9  and  C_10 
REMARK    5  A    between atoms: N_9  and  C_25 
REMARK    6  A    between atoms: C_10  and  C_11 
REMARK    7  A    between atoms: C_25  and  C_26 
REMARK    8  A    between atoms: C_26  and  N_27 
ROOT
HETATM    1  N   UNL     1      42.700 -13.208   5.416  1.00  0.00    -0.352 N 
ENDROOT
BRANCH   1   2
HETATM    2  C   UNL     1      42.644 -14.538   5.771  1.00  0.00     0.174 C 
HETATM    3  S   UNL     1      41.233 -15.198   6.392  1.00  0.00    -0.041 SA
BRANCH   2   4
HETATM    4  N   UNL     1      43.606 -15.411   5.377  1.00  0.00    -0.333 N 
HETATM    5  H   UNL     1      44.548 -15.069   5.564  1.00  0.00     0.168 HD
BRANCH   4   6
HETATM    6  C   UNL     1      43.575 -16.503   4.485  1.00  0.00     0.035 A 
HETATM    7  C   UNL     1      44.000 -17.739   4.984  1.00  0.00     0.053 A 
HETATM    8  C   UNL     1      44.003 -18.867   4.161  1.00  0.00     0.036 A 
HETATM    9  C   UNL     1      43.607 -18.771   2.831  1.00  0.00     0.024 A 
HETATM   10 CL   UNL     1      44.493 -20.384   4.804  1.00  0.00    -0.084 Cl
HETATM   11  C   UNL     1      43.219 -17.535   2.319  1.00  0.00     0.004 A 
HETATM   12  C   UNL     1      43.211 -16.404   3.142  1.00  0.00     0.029 A 
ENDBRANCH   4   6
ENDBRANCH   2   4
ENDBRANCH   1   2
BRANCH   1  13
HETATM   13  C   UNL     1      41.476 -12.599   4.847  1.00  0.00     0.169 C 
BRANCH  13  14
HETATM   14  C   UNL     1      41.414 -12.648   3.345  1.00  0.00     0.029 A 
HETATM   15  C   UNL     1      41.875 -11.438   2.597  1.00  0.00     0.253 A 
HETATM   16  O   UNL     1      42.463 -10.521   3.162  1.00  0.00    -0.268 OA
HETATM   17  N   UNL     1      41.637 -11.391   1.252  1.00  0.00    -0.322 N 
HETATM   18  C   UNL     1      40.995 -12.409   0.537  1.00  0.00     0.048 A 
HETATM   19  H   UNL     1      41.923 -10.546   0.773  1.00  0.00     0.169 HD
HETATM   20  C   UNL     1      40.581 -13.567   1.228  1.00  0.00    -0.006 A 
HETATM   21  C   UNL     1      40.770 -12.258  -0.832  1.00  0.00     0.070 A 
HETATM   22  C   UNL     1      39.931 -14.596   0.537  1.00  0.00     0.053 A 
HETATM   23  C   UNL     1      40.795 -13.638   2.674  1.00  0.00     0.028 A 
HETATM   24  C   UNL     1      39.717 -14.423  -0.815  1.00  0.00     0.106 A 
HETATM   25  C   UNL     1      40.121 -13.288  -1.478  1.00  0.00     0.107 A 
HETATM   26  O   UNL     1      39.092 -15.307  -1.638  1.00  0.00    -0.323 OA
HETATM   27  O   UNL     1      39.802 -13.317  -2.800  1.00  0.00    -0.323 OA
HETATM   28  C   UNL     1      39.125 -14.590  -2.891  1.00  0.00     0.352 A 
ENDBRANCH  13  14
ENDBRANCH   1  13
BRANCH   1  29
HETATM   29  C   UNL     1      43.684 -12.267   5.998  1.00  0.00     0.153 C 
BRANCH  29  30
HETATM   30  C   UNL     1      43.813 -12.289   7.532  1.00  0.00     0.254 C 
BRANCH  30  31
HETATM   31  N   UNL     1      44.569 -11.089   8.069  1.00  0.00    -0.066 N 
HETATM   32  H   UNL     1      44.890 -11.336   9.018  1.00  0.00     0.280 HD
HETATM   33  C   UNL     1      45.823 -10.742   7.277  1.00  0.00     0.261 C 
HETATM   34  C   UNL     1      46.497  -9.514   7.905  1.00  0.00     0.195 C 
HETATM   35  O   UNL     1      45.596  -8.402   7.952  1.00  0.00    -0.388 OA
HETATM   36  C   UNL     1      44.449  -8.688   8.759  1.00  0.00     0.195 C 
HETATM   37  C   UNL     1      43.664  -9.872   8.188  1.00  0.00     0.261 C 
ENDBRANCH  30  31
ENDBRANCH  29  30
ENDBRANCH   1  29
TORSDOF 8
ENDMDL
MODEL 4
REMARK VINA RESULT:      -8.6      2.169      7.681
REMARK  8 active torsions:
REMARK  status: ('A' for Active; 'I' for Inactive)
REMARK    1  A    between atoms: C_6  and  N_7 
REMARK    2  A    between atoms: N_7  and  C_8 
REMARK    3  A    between atoms: C_8  and  N_9 
REMARK    4  A    between atoms: N_9  and  C_10 
REMARK    5  A    between atoms: N_9  and  C_25 
REMARK    6  A    between atoms: C_10  and  C_11 
REMARK    7  A    between atoms: C_25  and  C_26 
REMARK    8  A    between atoms: C_26  and  N_27 
ROOT
HETATM    1  N   UNL     1      41.997 -14.297   2.810  1.00  0.00    -0.352 N 
ENDROOT
BRANCH   1   2
HETATM    2  C   UNL     1      42.206 -15.301   3.730  1.00  0.00     0.174 C 
HETATM    3  S   UNL     1      40.934 -15.902   4.643  1.00  0.00    -0.041 SA
BRANCH   2   4
HETATM    4  N   UNL     1      43.356 -16.022   3.732  1.00  0.00    -0.333 N 
HETATM    5  H   UNL     1      44.136 -15.520   3.312  1.00  0.00     0.168 HD
BRANCH   4   6
HETATM    6  C   UNL     1      43.596 -17.404   3.885  1.00  0.00     0.035 A 
HETATM    7  C   UNL     1      43.446 -18.201   2.744  1.00  0.00     0.053 A 
HETATM    8  C   UNL     1      43.662 -19.578   2.814  1.00  0.00     0.036 A 
HETATM    9  C   UNL     1      44.004 -20.178   4.022  1.00  0.00     0.024 A 
HETATM   10 CL   UNL     1      43.510 -20.534   1.393  1.00  0.00    -0.084 Cl
HETATM   11  C   UNL     1      44.118 -19.395   5.169  1.00  0.00     0.004 A 
HETATM   12  C   UNL     1      43.906 -18.014   5.100  1.00  0.00     0.029 A 
ENDBRANCH   4   6
ENDBRANCH   2   4
ENDBRANCH   1   2
BRANCH   1  13
HETATM   13  C   UNL     1      42.889 -13.116   2.871  1.00  0.00     0.169 C 
BRANCH  13  14
HETATM   14  C   UNL     1      42.800 -12.354   4.165  1.00  0.00     0.029 A 
HETATM   15  C   UNL     1      41.777 -11.268   4.256  1.00  0.00     0.253 A 
HETATM   16  O   UNL     1      40.912 -11.129   3.395  1.00  0.00    -0.268 OA
HETATM   17  N   UNL     1      41.819 -10.440   5.342  1.00  0.00    -0.322 N 
HETATM   18  C   UNL     1      42.759 -10.554   6.373  1.00  0.00     0.048 A 
HETATM   19  H   UNL     1      41.141  -9.688   5.363  1.00  0.00     0.169 HD
HETATM   20  C   UNL     1      43.713 -11.591   6.312  1.00  0.00    -0.006 A 
HETATM   21  C   UNL     1      42.743  -9.641   7.429  1.00  0.00     0.070 A 
HETATM   22  C   UNL     1      44.668 -11.723   7.327  1.00  0.00     0.053 A 
HETATM   23  C   UNL     1      43.712 -12.479   5.147  1.00  0.00     0.028 A 
HETATM   24  C   UNL     1      44.634 -10.807   8.359  1.00  0.00     0.106 A 
HETATM   25  C   UNL     1      43.702  -9.797   8.406  1.00  0.00     0.107 A 
HETATM   26  O   UNL     1      45.488 -10.774   9.417  1.00  0.00    -0.323 OA
HETATM   27  O   UNL     1      43.854  -9.002   9.500  1.00  0.00    -0.323 OA
HETATM   28  C   UNL     1      45.006  -9.611  10.124  1.00  0.00     0.352 A 
ENDBRANCH  13  14
ENDBRANCH   1  13
BRANCH   1  29
HETATM   29  C   UNL     1      41.312 -14.527   1.517  1.00  0.00     0.153 C 
BRANCH  29  30
HETATM   30  C   UNL     1      40.878 -13.264   0.751  1.00  0.00     0.254 C 
BRANCH  30  31
HETATM   31  N   UNL     1      40.814 -13.487  -0.748  1.00  0.00    -0.066 N 
HETATM   32  H   UNL     1      41.590 -14.121  -0.991  1.00  0.00     0.280 HD
HETATM   33  C   UNL     1      39.541 -14.178  -1.218  1.00  0.00     0.261 C 
HETATM   34  C   UNL     1      39.585 -14.343  -2.743  1.00  0.00     0.195 C 
HETATM   35  O   UNL     1      39.748 -13.076  -3.391  1.00  0.00    -0.388 OA
HETATM   36  C   UNL     1      40.980 -12.450  -3.018  1.00  0.00     0.195 C 
HETATM   37  C   UNL     1      41.022 -12.186  -1.511  1.00  0.00     0.261 C 
ENDBRANCH  30  31
ENDBRANCH  29  30
ENDBRANCH   1  29
TORSDOF 8
ENDMDL
MODEL 5
REMARK VINA RESULT:      -8.5      1.417      1.843
REMARK  8 active torsions:
REMARK  status: ('A' for Active; 'I' for Inactive)
REMARK    1  A    between atoms: C_6  and  N_7 
REMARK    2  A    between atoms: N_7  and  C_8 
REMARK    3  A    between atoms: C_8  and  N_9 
REMARK    4  A    between atoms: N_9  and  C_10 
REMARK    5  A    between atoms: N_9  and  C_25 
REMARK    6  A    between atoms: C_10  and  C_11 
REMARK    7  A    between atoms: C_25  and  C_26 
REMARK    8  A    between atoms: C_26  and  N_27 
ROOT
HETATM    1  N   UNL     1      42.222 -13.966   4.924  1.00  0.00    -0.352 N 
ENDROOT
BRANCH   1   2
HETATM    2  C   UNL     1      42.588 -15.141   5.542  1.00  0.00     0.174 C 
HETATM    3  S   UNL     1      41.598 -15.843   6.700  1.00  0.00    -0.041 SA
BRANCH   2   4
HETATM    4  N   UNL     1      43.594 -15.909   5.051  1.00  0.00    -0.333 N 
HETATM    5  H   UNL     1      44.478 -15.405   4.986  1.00  0.00     0.168 HD
BRANCH   4   6
HETATM    6  C   UNL     1      43.582 -17.115   4.319  1.00  0.00     0.035 A 
HETATM    7  C   UNL     1      44.049 -18.258   4.978  1.00  0.00     0.053 A 
HETATM    8  C   UNL     1      44.074 -19.489   4.320  1.00  0.00     0.036 A 
HETATM    9  C   UNL     1      43.659 -19.589   2.996  1.00  0.00     0.024 A 
HETATM   10 CL   UNL     1      44.614 -20.888   5.159  1.00  0.00    -0.084 Cl
HETATM   11  C   UNL     1      43.229 -18.447   2.323  1.00  0.00     0.004 A 
HETATM   12  C   UNL     1      43.199 -17.213   2.981  1.00  0.00     0.029 A 
ENDBRANCH   4   6
ENDBRANCH   2   4
ENDBRANCH   1   2
BRANCH   1  13
HETATM   13  C   UNL     1      40.786 -13.768   4.625  1.00  0.00     0.169 C 
BRANCH  13  14
HETATM   14  C   UNL     1      40.463 -13.775   3.156  1.00  0.00     0.029 A 
HETATM   15  C   UNL     1      40.052 -15.077   2.547  1.00  0.00     0.253 A 
HETATM   16  O   UNL     1      39.793 -16.056   3.242  1.00  0.00    -0.268 OA
HETATM   17  N   UNL     1      39.952 -15.142   1.186  1.00  0.00    -0.322 N 
HETATM   18  C   UNL     1      40.207 -14.062   0.333  1.00  0.00     0.048 A 
HETATM   19  H   UNL     1      39.710 -16.044   0.794  1.00  0.00     0.169 HD
HETATM   20  C   UNL     1      40.570 -12.821   0.897  1.00  0.00    -0.006 A 
HETATM   21  C   UNL     1      40.109 -14.233  -1.049  1.00  0.00     0.070 A 
HETATM   22  C   UNL     1      40.837 -11.728   0.065  1.00  0.00     0.053 A 
HETATM   23  C   UNL     1      40.713 -12.725   2.351  1.00  0.00     0.028 A 
HETATM   24  C   UNL     1      40.736 -11.921  -1.297  1.00  0.00     0.106 A 
HETATM   25  C   UNL     1      40.385 -13.136  -1.837  1.00  0.00     0.107 A 
HETATM   26  O   UNL     1      40.971 -10.980  -2.251  1.00  0.00    -0.323 OA
HETATM   27  O   UNL     1      40.357 -13.111  -3.197  1.00  0.00    -0.323 OA
HETATM   28  C   UNL     1      40.755 -11.747  -3.455  1.00  0.00     0.352 A 
ENDBRANCH  13  14
ENDBRANCH   1  13
BRANCH   1  29
HETATM   29  C   UNL     1      43.047 -12.738   4.990  1.00  0.00     0.153 C 
BRANCH  29  30
HETATM   30  C   UNL     1      42.550 -11.643   5.952  1.00  0.00     0.254 C 
BRANCH  30  31
HETATM   31  N   UNL     1      43.688 -10.887   6.610  1.00  0.00    -0.066 N 
HETATM   32  H   UNL     1      43.874 -10.056   6.027  1.00  0.00     0.280 HD
HETATM   33  C   UNL     1      43.360 -10.361   8.002  1.00  0.00     0.261 C 
HETATM   34  C   UNL     1      44.582  -9.625   8.568  1.00  0.00     0.195 C 
HETATM   35  O   UNL     1      45.729 -10.484   8.602  1.00  0.00    -0.388 OA
HETATM   36  C   UNL     1      46.095 -10.923   7.289  1.00  0.00     0.195 C 
HETATM   37  C   UNL     1      44.960 -11.723   6.646  1.00  0.00     0.261 C 
ENDBRANCH  30  31
ENDBRANCH  29  30
ENDBRANCH   1  29
TORSDOF 8
ENDMDL
MODEL 6
REMARK VINA RESULT:      -8.5      3.104      5.365
REMARK  8 active torsions:
REMARK  status: ('A' for Active; 'I' for Inactive)
REMARK    1  A    between atoms: C_6  and  N_7 
REMARK    2  A    between atoms: N_7  and  C_8 
REMARK    3  A    between atoms: C_8  and  N_9 
REMARK    4  A    between atoms: N_9  and  C_10 
REMARK    5  A    between atoms: N_9  and  C_25 
REMARK    6  A    between atoms: C_10  and  C_11 
REMARK    7  A    between atoms: C_25  and  C_26 
REMARK    8  A    between atoms: C_26  and  N_27 
ROOT
HETATM    1  N   UNL     1      41.967 -12.050   4.807  1.00  0.00    -0.352 N 
ENDROOT
BRANCH   1   2
HETATM    2  C   UNL     1      40.720 -12.613   4.646  1.00  0.00     0.174 C 
HETATM    3  S   UNL     1      39.823 -13.099   5.977  1.00  0.00    -0.041 SA
BRANCH   2   4
HETATM    4  N   UNL     1      40.064 -12.537   3.461  1.00  0.00    -0.333 N 
HETATM    5  H   UNL     1      39.273 -11.895   3.489  1.00  0.00     0.168 HD
BRANCH   4   6
HETATM    6  C   UNL     1      40.050 -13.392   2.339  1.00  0.00     0.035 A 
HETATM    7  C   UNL     1      40.190 -12.791   1.083  1.00  0.00     0.053 A 
HETATM    8  C   UNL     1      40.181 -13.569  -0.075  1.00  0.00     0.036 A 
HETATM    9  C   UNL     1      40.008 -14.947   0.003  1.00  0.00     0.024 A 
HETATM   10 CL   UNL     1      40.394 -12.815  -1.605  1.00  0.00    -0.084 Cl
HETATM   11  C   UNL     1      39.830 -15.548   1.247  1.00  0.00     0.004 A 
HETATM   12  C   UNL     1      39.843 -14.770   2.410  1.00  0.00     0.029 A 
ENDBRANCH   4   6
ENDBRANCH   2   4
ENDBRANCH   1   2
BRANCH   1  13
HETATM   13  C   UNL     1      43.117 -12.743   4.183  1.00  0.00     0.169 C 
BRANCH  13  14
HETATM   14  C   UNL     1      43.159 -14.221   4.460  1.00  0.00     0.029 A 
HETATM   15  C   UNL     1      43.510 -14.652   5.848  1.00  0.00     0.253 A 
HETATM   16  O   UNL     1      43.567 -13.847   6.774  1.00  0.00    -0.268 OA
HETATM   17  N   UNL     1      43.748 -15.981   6.063  1.00  0.00    -0.322 N 
HETATM   18  C   UNL     1      43.677 -16.957   5.063  1.00  0.00     0.048 A 
HETATM   19  H   UNL     1      44.022 -16.244   7.002  1.00  0.00     0.169 HD
HETATM   20  C   UNL     1      43.320 -16.566   3.756  1.00  0.00    -0.006 A 
HETATM   21  C   UNL     1      43.967 -18.287   5.372  1.00  0.00     0.070 A 
HETATM   22  C   UNL     1      43.248 -17.523   2.737  1.00  0.00     0.053 A 
HETATM   23  C   UNL     1      43.085 -15.147   3.485  1.00  0.00     0.028 A 
HETATM   24  C   UNL     1      43.542 -18.831   3.065  1.00  0.00     0.106 A 
HETATM   25  C   UNL     1      43.893 -19.200   4.343  1.00  0.00     0.107 A 
HETATM   26  O   UNL     1      43.537 -19.884   2.205  1.00  0.00    -0.323 OA
HETATM   27  O   UNL     1      44.152 -20.532   4.445  1.00  0.00    -0.323 OA
HETATM   28  C   UNL     1      43.951 -20.957   3.079  1.00  0.00     0.352 A 
ENDBRANCH  13  14
ENDBRANCH   1  13
BRANCH   1  29
HETATM   29  C   UNL     1      42.162 -10.614   5.112  1.00  0.00     0.153 C 
BRANCH  29  30
HETATM   30  C   UNL     1      41.981 -10.208   6.587  1.00  0.00     0.254 C 
BRANCH  30  31
HETATM   31  N   UNL     1      43.135 -10.661   7.461  1.00  0.00    -0.066 N 
HETATM   32  H   UNL     1      43.006 -11.670   7.629  1.00  0.00     0.280 HD
HETATM   33  C   UNL     1      44.502 -10.512   6.806  1.00  0.00     0.261 C 
HETATM   34  C   UNL     1      45.587 -10.992   7.781  1.00  0.00     0.195 C 
HETATM   35  O   UNL     1      45.527 -10.264   9.014  1.00  0.00    -0.388 OA
HETATM   36  C   UNL     1      44.274 -10.458   9.678  1.00  0.00     0.195 C 
HETATM   37  C   UNL     1      43.115  -9.959   8.811  1.00  0.00     0.261 C 
ENDBRANCH  30  31
ENDBRANCH  29  30
ENDBRANCH   1  29
TORSDOF 8
ENDMDL
MODEL 7
REMARK VINA RESULT:      -8.4      2.022      2.744
REMARK  8 active torsions:
REMARK  status: ('A' for Active; 'I' for Inactive)
REMARK    1  A    between atoms: C_6  and  N_7 
REMARK    2  A    between atoms: N_7  and  C_8 
REMARK    3  A    between atoms: C_8  and  N_9 
REMARK    4  A    between atoms: N_9  and  C_10 
REMARK    5  A    between atoms: N_9  and  C_25 
REMARK    6  A    between atoms: C_10  and  C_11 
REMARK    7  A    between atoms: C_25  and  C_26 
REMARK    8  A    between atoms: C_26  and  N_27 
ROOT
HETATM    1  N   UNL     1      42.609 -14.269   4.938  1.00  0.00    -0.352 N 
ENDROOT
BRANCH   1   2
HETATM    2  C   UNL     1      42.497 -15.642   4.954  1.00  0.00     0.174 C 
HETATM    3  S   UNL     1      40.989 -16.376   4.982  1.00  0.00    -0.041 SA
BRANCH   2   4
HETATM    4  N   UNL     1      43.559 -16.436   4.665  1.00  0.00    -0.333 N 
HETATM    5  H   UNL     1      44.303 -15.937   4.180  1.00  0.00     0.168 HD
BRANCH   4   6
HETATM    6  C   UNL     1      43.693 -17.839   4.601  1.00  0.00     0.035 A 
HETATM    7  C   UNL     1      43.646 -18.420   3.329  1.00  0.00     0.053 A 
HETATM    8  C   UNL     1      43.766 -19.803   3.182  1.00  0.00     0.036 A 
HETATM    9  C   UNL     1      43.907 -20.621   4.298  1.00  0.00     0.024 A 
HETATM   10 CL   UNL     1      43.745 -20.494   1.608  1.00  0.00    -0.084 Cl
HETATM   11  C   UNL     1      43.916 -20.051   5.570  1.00  0.00     0.004 A 
HETATM   12  C   UNL     1      43.801 -18.666   5.720  1.00  0.00     0.029 A 
ENDBRANCH   4   6
ENDBRANCH   2   4
ENDBRANCH   1   2
BRANCH   1  13
HETATM   13  C   UNL     1      43.060 -13.633   3.679  1.00  0.00     0.169 C 
BRANCH  13  14
HETATM   14  C   UNL     1      42.077 -13.757   2.549  1.00  0.00     0.029 A 
HETATM   15  C   UNL     1      42.361 -14.782   1.497  1.00  0.00     0.253 A 
HETATM   16  O   UNL     1      43.244 -15.622   1.644  1.00  0.00    -0.268 OA
HETATM   17  N   UNL     1      41.591 -14.769   0.368  1.00  0.00    -0.322 N 
HETATM   18  C   UNL     1      40.552 -13.858   0.144  1.00  0.00     0.048 A 
HETATM   19  H   UNL     1      41.826 -15.446  -0.346  1.00  0.00     0.169 HD
HETATM   20  C   UNL     1      40.257 -12.904   1.140  1.00  0.00    -0.006 A 
HETATM   21  C   UNL     1      39.839 -13.903  -1.055  1.00  0.00     0.070 A 
HETATM   22  C   UNL     1      39.227 -11.978   0.937  1.00  0.00     0.053 A 
HETATM   23  C   UNL     1      41.081 -12.873   2.350  1.00  0.00     0.028 A 
HETATM   24  C   UNL     1      38.538 -12.040  -0.257  1.00  0.00     0.106 A 
HETATM   25  C   UNL     1      38.837 -12.972  -1.224  1.00  0.00     0.107 A 
HETATM   26  O   UNL     1      37.523 -11.216  -0.630  1.00  0.00    -0.323 OA
HETATM   27  O   UNL     1      38.046 -12.849  -2.324  1.00  0.00    -0.323 OA
HETATM   28  C   UNL     1      37.232 -11.716  -1.953  1.00  0.00     0.352 A 
ENDBRANCH  13  14
ENDBRANCH   1  13
BRANCH   1  29
HETATM   29  C   UNL     1      41.870 -13.396   5.878  1.00  0.00     0.153 C 
BRANCH  29  30
HETATM   30  C   UNL     1      42.229 -11.899   5.832  1.00  0.00     0.254 C 
BRANCH  30  31
HETATM   31  N   UNL     1      43.385 -11.551   6.750  1.00  0.00    -0.066 N 
HETATM   32  H   UNL     1      43.485 -12.332   7.417  1.00  0.00     0.280 HD
HETATM   33  C   UNL     1      44.726 -11.427   6.039  1.00  0.00     0.261 C 
HETATM   34  C   UNL     1      45.812 -11.067   7.062  1.00  0.00     0.195 C 
HETATM   35  O   UNL     1      45.485  -9.855   7.752  1.00  0.00    -0.388 OA
HETATM   36  C   UNL     1      44.265  -9.983   8.489  1.00  0.00     0.195 C 
HETATM   37  C   UNL     1      43.093 -10.291   7.553  1.00  0.00     0.261 C 
ENDBRANCH  30  31
ENDBRANCH  29  30
ENDBRANCH   1  29
TORSDOF 8
ENDMDL
MODEL 8
REMARK VINA RESULT:      -8.3      3.733      7.863
REMARK  8 active torsions:
REMARK  status: ('A' for Active; 'I' for Inactive)
REMARK    1  A    between atoms: C_6  and  N_7 
REMARK    2  A    between atoms: N_7  and  C_8 
REMARK    3  A    between atoms: C_8  and  N_9 
REMARK    4  A    between atoms: N_9  and  C_10 
REMARK    5  A    between atoms: N_9  and  C_25 
REMARK    6  A    between atoms: C_10  and  C_11 
REMARK    7  A    between atoms: C_25  and  C_26 
REMARK    8  A    between atoms: C_26  and  N_27 
ROOT
HETATM    1  N   UNL     1      40.294 -11.240   2.570  1.00  0.00    -0.352 N 
ENDROOT
BRANCH   1   2
HETATM    2  C   UNL     1      40.839 -10.077   3.069  1.00  0.00     0.174 C 
HETATM    3  S   UNL     1      39.873  -8.739   3.368  1.00  0.00    -0.041 SA
BRANCH   2   4
HETATM    4  N   UNL     1      42.091 -10.058   3.592  1.00  0.00    -0.333 N 
HETATM    5  H   UNL     1      42.789  -9.718   2.932  1.00  0.00     0.168 HD
BRANCH   4   6
HETATM    6  C   UNL     1      42.651 -10.711   4.710  1.00  0.00     0.035 A 
HETATM    7  C   UNL     1      42.515 -10.072   5.948  1.00  0.00     0.053 A 
HETATM    8  C   UNL     1      43.046 -10.652   7.101  1.00  0.00     0.036 A 
HETATM    9  C   UNL     1      43.736 -11.858   7.031  1.00  0.00     0.024 A 
HETATM   10 CL   UNL     1      42.836  -9.870   8.618  1.00  0.00    -0.084 Cl
HETATM   11  C   UNL     1      43.907 -12.479   5.796  1.00  0.00     0.004 A 
HETATM   12  C   UNL     1      43.373 -11.903   4.639  1.00  0.00     0.029 A 
ENDBRANCH   4   6
ENDBRANCH   2   4
ENDBRANCH   1   2
BRANCH   1  13
HETATM   13  C   UNL     1      39.261 -11.917   3.389  1.00  0.00     0.169 C 
BRANCH  13  14
HETATM   14  C   UNL     1      39.803 -13.006   4.273  1.00  0.00     0.029 A 
HETATM   15  C   UNL     1      39.771 -12.775   5.749  1.00  0.00     0.253 A 
HETATM   16  O   UNL     1      39.153 -11.832   6.237  1.00  0.00    -0.268 OA
HETATM   17  N   UNL     1      40.439 -13.660   6.549  1.00  0.00    -0.322 N 
HETATM   18  C   UNL     1      41.143 -14.769   6.066  1.00  0.00     0.048 A 
HETATM   19  H   UNL     1      40.435 -13.462   7.542  1.00  0.00     0.169 HD
HETATM   20  C   UNL     1      41.157 -15.012   4.677  1.00  0.00    -0.006 A 
HETATM   21  C   UNL     1      41.820 -15.601   6.959  1.00  0.00     0.070 A 
HETATM   22  C   UNL     1      41.860 -16.111   4.169  1.00  0.00     0.053 A 
HETATM   23  C   UNL     1      40.476 -14.068   3.790  1.00  0.00     0.028 A 
HETATM   24  C   UNL     1      42.524 -16.918   5.070  1.00  0.00     0.106 A 
HETATM   25  C   UNL     1      42.506 -16.669   6.422  1.00  0.00     0.107 A 
HETATM   26  O   UNL     1      43.265 -18.015   4.756  1.00  0.00    -0.323 OA
HETATM   27  O   UNL     1      43.234 -17.577   7.127  1.00  0.00    -0.323 OA
HETATM   28  C   UNL     1      43.735 -18.414   6.062  1.00  0.00     0.352 A 
ENDBRANCH  13  14
ENDBRANCH   1  13
BRANCH   1  29
HETATM   29  C   UNL     1      40.299 -11.572   1.128  1.00  0.00     0.153 C 
BRANCH  29  30
HETATM   30  C   UNL     1      41.268 -12.689   0.697  1.00  0.00     0.254 C 
BRANCH  30  31
HETATM   31  N   UNL     1      41.111 -13.063  -0.764  1.00  0.00    -0.066 N 
HETATM   32  H   UNL     1      41.922 -13.649  -1.014  1.00  0.00     0.280 HD
HETATM   33  C   UNL     1      39.875 -13.904  -1.059  1.00  0.00     0.261 C 
HETATM   34  C   UNL     1      39.817 -14.213  -2.561  1.00  0.00     0.195 C 
HETATM   35  O   UNL     1      39.812 -13.006  -3.334  1.00  0.00    -0.388 OA
HETATM   36  C   UNL     1      41.005 -12.244  -3.125  1.00  0.00     0.195 C 
HETATM   37  C   UNL     1      41.137 -11.830  -1.657  1.00  0.00     0.261 C 
ENDBRANCH  30  31
ENDBRANCH  29  30
ENDBRANCH   1  29
TORSDOF 8
ENDMDL
MODEL 9
REMARK VINA RESULT:      -8.1      3.043      3.958
REMARK  8 active torsions:
REMARK  status: ('A' for Active; 'I' for Inactive)
REMARK    1  A    between atoms: C_6  and  N_7 
REMARK    2  A    between atoms: N_7  and  C_8 
REMARK    3  A    between atoms: C_8  and  N_9 
REMARK    4  A    between atoms: N_9  and  C_10 
REMARK    5  A    between atoms: N_9  and  C_25 
REMARK    6  A    between atoms: C_10  and  C_11 
REMARK    7  A    between atoms: C_25  and  C_26 
REMARK    8  A    between atoms: C_26  and  N_27 
ROOT
HETATM    1  N   UNL     1      41.683 -13.731   4.852  1.00  0.00    -0.352 N 
ENDROOT
BRANCH   1   2
HETATM    2  C   UNL     1      41.901 -14.998   5.348  1.00  0.00     0.174 C 
HETATM    3  S   UNL     1      40.658 -15.857   6.076  1.00  0.00    -0.041 SA
BRANCH   2   4
HETATM    4  N   UNL     1      43.019 -15.696   5.022  1.00  0.00    -0.333 N 
HETATM    5  H   UNL     1      43.871 -15.149   5.133  1.00  0.00     0.168 HD
BRANCH   4   6
HETATM    6  C   UNL     1      43.203 -16.870   4.262  1.00  0.00     0.035 A 
HETATM    7  C   UNL     1      43.746 -17.975   4.928  1.00  0.00     0.053 A 
HETATM    8  C   UNL     1      43.964 -19.172   4.245  1.00  0.00     0.036 A 
HETATM    9  C   UNL     1      43.668 -19.274   2.890  1.00  0.00     0.024 A 
HETATM   10 CL   UNL     1      44.595 -20.529   5.091  1.00  0.00    -0.084 Cl
HETATM   11  C   UNL     1      43.163 -18.166   2.212  1.00  0.00     0.004 A 
HETATM   12  C   UNL     1      42.940 -16.966   2.895  1.00  0.00     0.029 A 
ENDBRANCH   4   6
ENDBRANCH   2   4
ENDBRANCH   1   2
BRANCH   1  13
HETATM   13  C   UNL     1      42.665 -13.198   3.880  1.00  0.00     0.169 C 
BRANCH  13  14
HETATM   14  C   UNL     1      42.107 -13.001   2.497  1.00  0.00     0.029 A 
HETATM   15  C   UNL     1      42.037 -11.602   1.975  1.00  0.00     0.253 A 
HETATM   16  O   UNL     1      42.588 -10.672   2.558  1.00  0.00    -0.268 OA
HETATM   17  N   UNL     1      41.352 -11.388   0.812  1.00  0.00    -0.322 N 
HETATM   18  C   UNL     1      40.720 -12.402   0.082  1.00  0.00     0.048 A 
HETATM   19  H   UNL     1      41.284 -10.428   0.498  1.00  0.00     0.169 HD
HETATM   20  C   UNL     1      40.803 -13.730   0.550  1.00  0.00    -0.006 A 
HETATM   21  C   UNL     1      40.018 -12.082  -1.082  1.00  0.00     0.070 A 
HETATM   22  C   UNL     1      40.175 -14.760  -0.159  1.00  0.00     0.053 A 
HETATM   23  C   UNL     1      41.506 -13.989   1.808  1.00  0.00     0.028 A 
HETATM   24  C   UNL     1      39.484 -14.420  -1.304  1.00  0.00     0.106 A 
HETATM   25  C   UNL     1      39.406 -13.121  -1.749  1.00  0.00     0.107 A 
HETATM   26  O   UNL     1      38.805 -15.283  -2.106  1.00  0.00    -0.323 OA
HETATM   27  O   UNL     1      38.669 -13.006  -2.887  1.00  0.00    -0.323 OA
HETATM   28  C   UNL     1      38.267 -14.378  -3.094  1.00  0.00     0.352 A 
ENDBRANCH  13  14
ENDBRANCH   1  13
BRANCH   1  29
HETATM   29  C   UNL     1      40.345 -13.098   4.836  1.00  0.00     0.153 C 
BRANCH  29  30
HETATM   30  C   UNL     1      40.220 -11.767   5.601  1.00  0.00     0.254 C 
BRANCH  30  31
HETATM   31  N   UNL     1      40.310 -10.560   4.686  1.00  0.00    -0.066 N 
HETATM   32  H   UNL     1      41.080 -10.742   4.024  1.00  0.00     0.280 HD
HETATM   33  C   UNL     1      39.066 -10.333   3.836  1.00  0.00     0.261 C 
HETATM   34  C   UNL     1      39.269  -9.089   2.962  1.00  0.00     0.195 C 
HETATM   35  O   UNL     1      39.557  -7.938   3.765  1.00  0.00    -0.388 OA
HETATM   36  C   UNL     1      40.767  -8.108   4.511  1.00  0.00     0.195 C 
HETATM   37  C   UNL     1      40.656  -9.299   5.465  1.00  0.00     0.261 C 
ENDBRANCH  30  31
ENDBRANCH  29  30
ENDBRANCH   1  29
TORSDOF 8
ENDMDL
MODEL 10
REMARK VINA RESULT:      -7.9      3.631      6.030
REMARK  8 active torsions:
REMARK  status: ('A' for Active; 'I' for Inactive)
REMARK    1  A    between atoms: C_6  and  N_7 
REMARK    2  A    between atoms: N_7  and  C_8 
REMARK    3  A    between atoms: C_8  and  N_9 
REMARK    4  A    between atoms: N_9  and  C_10 
REMARK    5  A    between atoms: N_9  and  C_25 
REMARK    6  A    between atoms: C_10  and  C_11 
REMARK    7  A    between atoms: C_25  and  C_26 
REMARK    8  A    between atoms: C_26  and  N_27 
ROOT
HETATM    1  N   UNL     1      40.378 -11.248   3.387  1.00  0.00    -0.352 N 
ENDROOT
BRANCH   1   2
HETATM    2  C   UNL     1      40.262 -11.012   2.035  1.00  0.00     0.174 C 
HETATM    3  S   UNL     1      41.568 -10.441   1.151  1.00  0.00    -0.041 SA
BRANCH   2   4
HETATM    4  N   UNL     1      39.205 -11.489   1.328  1.00  0.00    -0.333 N 
HETATM    5  H   UNL     1      38.315 -11.339   1.801  1.00  0.00     0.168 HD
BRANCH   4   6
HETATM    6  C   UNL     1      39.127 -12.419   0.270  1.00  0.00     0.035 A 
HETATM    7  C   UNL     1      38.149 -12.187  -0.703  1.00  0.00     0.053 A 
HETATM    8  C   UNL     1      38.005 -13.065  -1.779  1.00  0.00     0.036 A 
HETATM    9  C   UNL     1      38.814 -14.191  -1.883  1.00  0.00     0.024 A 
HETATM   10 CL   UNL     1      36.823 -12.741  -2.985  1.00  0.00    -0.084 Cl
HETATM   11  C   UNL     1      39.764 -14.448  -0.897  1.00  0.00     0.004 A 
HETATM   12  C   UNL     1      39.913 -13.568   0.180  1.00  0.00     0.029 A 
ENDBRANCH   4   6
ENDBRANCH   2   4
ENDBRANCH   1   2
BRANCH   1  13
HETATM   13  C   UNL     1      39.463 -12.245   3.989  1.00  0.00     0.169 C 
BRANCH  13  14
HETATM   14  C   UNL     1      40.136 -13.530   4.382  1.00  0.00     0.029 A 
HETATM   15  C   UNL     1      40.244 -13.833   5.843  1.00  0.00     0.253 A 
HETATM   16  O   UNL     1      39.640 -13.169   6.681  1.00  0.00    -0.268 OA
HETATM   17  N   UNL     1      41.026 -14.889   6.220  1.00  0.00    -0.322 N 
HETATM   18  C   UNL     1      41.723 -15.703   5.320  1.00  0.00     0.048 A 
HETATM   19  H   UNL     1      41.115 -15.051   7.215  1.00  0.00     0.169 HD
HETATM   20  C   UNL     1      41.607 -15.444   3.938  1.00  0.00    -0.006 A 
HETATM   21  C   UNL     1      42.521 -16.742   5.802  1.00  0.00     0.070 A 
HETATM   22  C   UNL     1      42.299 -16.241   3.019  1.00  0.00     0.053 A 
HETATM   23  C   UNL     1      40.800 -14.303   3.502  1.00  0.00     0.028 A 
HETATM   24  C   UNL     1      43.084 -17.259   3.519  1.00  0.00     0.106 A 
HETATM   25  C   UNL     1      43.193 -17.500   4.868  1.00  0.00     0.107 A 
HETATM   26  O   UNL     1      43.835 -18.118   2.777  1.00  0.00    -0.323 OA
HETATM   27  O   UNL     1      44.026 -18.541   5.143  1.00  0.00    -0.323 OA
HETATM   28  C   UNL     1      44.451 -18.913   3.814  1.00  0.00     0.352 A 
ENDBRANCH  13  14
ENDBRANCH   1  13
BRANCH   1  29
HETATM   29  C   UNL     1      41.619 -10.966   4.144  1.00  0.00     0.153 C 
BRANCH  29  30
HETATM   30  C   UNL     1      41.429 -10.362   5.548  1.00  0.00     0.254 C 
BRANCH  30  31
HETATM   31  N   UNL     1      42.294 -11.039   6.593  1.00  0.00    -0.066 N 
HETATM   32  H   UNL     1      41.662 -11.587   7.198  1.00  0.00     0.280 HD
HETATM   33  C   UNL     1      43.296 -12.033   6.020  1.00  0.00     0.261 C 
HETATM   34  C   UNL     1      44.115 -12.647   7.163  1.00  0.00     0.195 C 
HETATM   35  O   UNL     1      44.780 -11.629   7.922  1.00  0.00    -0.388 OA
HETATM   36  C   UNL     1      43.845 -10.733   8.531  1.00  0.00     0.195 C 
HETATM   37  C   UNL     1      43.004 -10.018   7.470  1.00  0.00     0.261 C 
ENDBRANCH  30  31
ENDBRANCH  29  30
ENDBRANCH   1  29
TORSDOF 8
ENDMDL
