MODEL 1
REMARK VINA RESULT:      -9.2      0.000      0.000
REMARK  6 active torsions:
REMARK  status: ('A' for Active; 'I' for Inactive)
REMARK    1  A    between atoms: C_6  and  C_7 
REMARK    2  A    between atoms: N_9  and  C_10 
REMARK    3  A    between atoms: C_10  and  C_11 
REMARK    4  A    between atoms: C_18  and  C_19 
REMARK       I    between atoms: C_19  and  N_20 
REMARK    5  A    between atoms: N_20  and  C_21 
REMARK    6  A    between atoms: C_24  and  O_25 
ROOT
HETATM    1  C   UNL     1      43.257 -13.900   5.982  1.00  0.00     0.104 A 
HETATM    2  N   UNL     1      44.302 -13.179   6.425  1.00  0.00    -0.171 NA
HETATM    3  N   UNL     1      43.864 -11.907   6.426  1.00  0.00    -0.275 N 
HETATM    4  C   UNL     1      42.570 -11.783   6.023  1.00  0.00     0.132 A 
HETATM    5  C   UNL     1      42.150 -13.050   5.665  1.00  0.00     0.080 A 
ENDROOT
BRANCH   5   6
HETATM    6  C   UNL     1      40.848 -13.353   5.098  1.00  0.00     0.255 C 
HETATM    7  N   UNL     1      40.853 -13.523   3.731  1.00  0.00    -0.352 N 
HETATM    8  H   UNL     1      41.722 -13.366   3.237  1.00  0.00     0.163 HD
HETATM    9  O   UNL     1      39.832 -13.409   5.781  1.00  0.00    -0.268 OA
BRANCH   7  10
HETATM   10  C   UNL     1      39.659 -13.859   2.970  1.00  0.00     0.084 C 
HETATM   11  C   UNL     1      39.447 -12.914   1.780  1.00  0.00     0.028 C 
HETATM   12  C   UNL     1      40.480 -13.124   0.671  1.00  0.00     0.034 C 
HETATM   13  C   UNL     1      40.575 -14.580   0.219  1.00  0.00     0.118 C 
HETATM   14  C   UNL     1      40.746 -15.545   1.392  1.00  0.00     0.034 C 
HETATM   15  C   UNL     1      39.715 -15.320   2.502  1.00  0.00     0.028 C 
BRANCH  13  16
HETATM   16  O   UNL     1      39.420 -14.939  -0.536  1.00  0.00    -0.396 OA
HETATM   17  H   UNL     1      39.535 -15.835  -0.891  1.00  0.00     0.210 HD
ENDBRANCH  13  16
ENDBRANCH   7  10
ENDBRANCH   5   6
BRANCH   1  18
HETATM   18  C   UNL     1      43.363 -15.357   5.878  1.00  0.00    -0.004 A 
HETATM   19  C   UNL     1      43.388 -15.998   4.632  1.00  0.00     0.021 A 
HETATM   20  C   UNL     1      43.540 -17.392   4.528  1.00  0.00    -0.055 A 
HETATM   21  C   UNL     1      43.615 -18.166   5.703  1.00  0.00    -0.056 A 
HETATM   22  C   UNL     1      43.574 -18.024   3.164  1.00  0.00     0.049 C 
HETATM   23  C   UNL     1      43.762 -19.662   5.653  1.00  0.00     0.049 C 
HETATM   24  C   UNL     1      43.574 -17.525   6.949  1.00  0.00     0.008 A 
HETATM   25  C   UNL     1      43.448 -16.137   7.036  1.00  0.00     0.014 A 
ENDBRANCH   1  18
BRANCH   3  26
HETATM   26  C   UNL     1      44.759 -10.830   6.835  1.00  0.00     0.189 C 
BRANCH  26  27
HETATM   27  C   UNL     1      44.469 -10.358   8.241  1.00  0.00    -0.038 A 
HETATM   28  C   UNL     1      45.449 -10.455   9.239  1.00  0.00     0.009 A 
HETATM   29  C   UNL     1      45.188 -10.002  10.535  1.00  0.00     0.001 A 
HETATM   30  C   UNL     1      43.949  -9.446  10.846  1.00  0.00     0.000 A 
HETATM   31  C   UNL     1      42.970  -9.335   9.861  1.00  0.00     0.001 A 
HETATM   32  C   UNL     1      43.230  -9.781   8.565  1.00  0.00     0.009 A 
ENDBRANCH  26  27
ENDBRANCH   3  26
TORSDOF 6
ENDMDL
MODEL 2
REMARK VINA RESULT:      -8.6      2.077      4.623
REMARK  6 active torsions:
REMARK  status: ('A' for Active; 'I' for Inactive)
REMARK    1  A    between atoms: C_6  and  C_7 
REMARK    2  A    between atoms: N_9  and  C_10 
REMARK    3  A    between atoms: C_10  and  C_11 
REMARK    4  A    between atoms: C_18  and  C_19 
REMARK       I    between atoms: C_19  and  N_20 
REMARK    5  A    between atoms: N_20  and  C_21 
REMARK    6  A    between atoms: C_24  and  O_25 
ROOT
HETATM    1  C   UNL     1      43.444 -12.164   4.805  1.00  0.00     0.104 A 
HETATM    2  N   UNL     1      44.267 -11.174   5.191  1.00  0.00    -0.171 NA
HETATM    3  N   UNL     1      44.756 -11.579   6.378  1.00  0.00    -0.275 N 
HETATM    4  C   UNL     1      44.296 -12.802   6.760  1.00  0.00     0.132 A 
HETATM    5  C   UNL     1      43.391 -13.197   5.794  1.00  0.00     0.080 A 
ENDROOT
BRANCH   5   6
HETATM    6  C   UNL     1      42.602 -14.414   5.858  1.00  0.00     0.255 C 
HETATM    7  N   UNL     1      43.054 -15.426   5.039  1.00  0.00    -0.352 N 
HETATM    8  H   UNL     1      43.837 -15.227   4.430  1.00  0.00     0.163 HD
HETATM    9  O   UNL     1      41.597 -14.509   6.554  1.00  0.00    -0.268 OA
BRANCH   7  10
HETATM   10  C   UNL     1      42.423 -16.735   4.975  1.00  0.00     0.084 C 
HETATM   11  C   UNL     1      41.939 -17.074   3.558  1.00  0.00     0.028 C 
HETATM   12  C   UNL     1      43.094 -17.338   2.590  1.00  0.00     0.034 C 
HETATM   13  C   UNL     1      44.075 -18.387   3.112  1.00  0.00     0.118 C 
HETATM   14  C   UNL     1      44.541 -18.092   4.537  1.00  0.00     0.034 C 
HETATM   15  C   UNL     1      43.379 -17.817   5.497  1.00  0.00     0.028 C 
BRANCH  13  16
HETATM   16  O   UNL     1      43.488 -19.685   3.055  1.00  0.00    -0.396 OA
HETATM   17  H   UNL     1      42.532 -19.611   3.204  1.00  0.00     0.210 HD
ENDBRANCH  13  16
ENDBRANCH   7  10
ENDBRANCH   5   6
BRANCH   1  18
HETATM   18  C   UNL     1      42.746 -12.077   3.519  1.00  0.00    -0.004 A 
HETATM   19  C   UNL     1      42.384 -13.229   2.809  1.00  0.00     0.021 A 
HETATM   20  C   UNL     1      41.672 -13.150   1.598  1.00  0.00    -0.055 A 
HETATM   21  C   UNL     1      41.363 -11.884   1.063  1.00  0.00    -0.056 A 
HETATM   22  C   UNL     1      41.298 -14.421   0.886  1.00  0.00     0.049 C 
HETATM   23  C   UNL     1      40.616 -11.739  -0.234  1.00  0.00     0.049 C 
HETATM   24  C   UNL     1      41.740 -10.732   1.768  1.00  0.00     0.008 A 
HETATM   25  C   UNL     1      42.425 -10.827   2.981  1.00  0.00     0.014 A 
ENDBRANCH   1  18
BRANCH   3  26
HETATM   26  C   UNL     1      45.682 -10.725   7.113  1.00  0.00     0.189 C 
BRANCH  26  27
HETATM   27  C   UNL     1      45.010 -10.027   8.272  1.00  0.00    -0.038 A 
HETATM   28  C   UNL     1      45.442 -10.255   9.586  1.00  0.00     0.009 A 
HETATM   29  C   UNL     1      44.832  -9.596  10.657  1.00  0.00     0.001 A 
HETATM   30  C   UNL     1      43.790  -8.701  10.426  1.00  0.00     0.000 A 
HETATM   31  C   UNL     1      43.358  -8.457   9.124  1.00  0.00     0.001 A 
HETATM   32  C   UNL     1      43.968  -9.110   8.053  1.00  0.00     0.009 A 
ENDBRANCH  26  27
ENDBRANCH   3  26
TORSDOF 6
ENDMDL
MODEL 3
REMARK VINA RESULT:      -8.4      2.572      7.693
REMARK  6 active torsions:
REMARK  status: ('A' for Active; 'I' for Inactive)
REMARK    1  A    between atoms: C_6  and  C_7 
REMARK    2  A    between atoms: N_9  and  C_10 
REMARK    3  A    between atoms: C_10  and  C_11 
REMARK    4  A    between atoms: C_18  and  C_19 
REMARK       I    between atoms: C_19  and  N_20 
REMARK    5  A    between atoms: N_20  and  C_21 
REMARK    6  A    between atoms: C_24  and  O_25 
ROOT
HETATM    1  C   UNL     1      42.934 -13.317   6.579  1.00  0.00     0.104 A 
HETATM    2  N   UNL     1      43.231 -14.621   6.718  1.00  0.00    -0.171 NA
HETATM    3  N   UNL     1      42.140 -15.271   6.271  1.00  0.00    -0.275 N 
HETATM    4  C   UNL     1      41.160 -14.435   5.828  1.00  0.00     0.132 A 
HETATM    5  C   UNL     1      41.609 -13.150   6.065  1.00  0.00     0.080 A 
ENDROOT
BRANCH   5   6
HETATM    6  C   UNL     1      40.829 -11.951   5.815  1.00  0.00     0.255 C 
HETATM    7  N   UNL     1      40.748 -11.094   6.890  1.00  0.00    -0.352 N 
HETATM    8  H   UNL     1      41.169 -11.387   7.762  1.00  0.00     0.163 HD
HETATM    9  O   UNL     1      40.262 -11.748   4.746  1.00  0.00    -0.268 OA
BRANCH   7  10
HETATM   10  C   UNL     1      40.037  -9.825   6.841  1.00  0.00     0.084 C 
HETATM   11  C   UNL     1      39.511  -9.402   8.219  1.00  0.00     0.028 C 
HETATM   12  C   UNL     1      40.632  -8.989   9.174  1.00  0.00     0.034 C 
HETATM   13  C   UNL     1      41.556  -7.928   8.578  1.00  0.00     0.118 C 
HETATM   14  C   UNL     1      42.061  -8.309   7.187  1.00  0.00     0.034 C 
HETATM   15  C   UNL     1      40.934  -8.732   6.241  1.00  0.00     0.028 C 
BRANCH  13  16
HETATM   16  O   UNL     1      40.890  -6.669   8.522  1.00  0.00    -0.396 OA
HETATM   17  H   UNL     1      40.336  -6.564   9.312  1.00  0.00     0.210 HD
ENDBRANCH  13  16
ENDBRANCH   7  10
ENDBRANCH   5   6
BRANCH   1  18
HETATM   18  C   UNL     1      43.920 -12.298   6.945  1.00  0.00    -0.004 A 
HETATM   19  C   UNL     1      43.803 -11.567   8.134  1.00  0.00     0.021 A 
HETATM   20  C   UNL     1      44.775 -10.622   8.512  1.00  0.00    -0.055 A 
HETATM   21  C   UNL     1      45.860 -10.369   7.651  1.00  0.00    -0.056 A 
HETATM   22  C   UNL     1      44.605  -9.877   9.807  1.00  0.00     0.049 C 
HETATM   23  C   UNL     1      46.920  -9.360   7.995  1.00  0.00     0.049 C 
HETATM   24  C   UNL     1      45.967 -11.090   6.453  1.00  0.00     0.008 A 
HETATM   25  C   UNL     1      45.007 -12.042   6.103  1.00  0.00     0.014 A 
ENDBRANCH   1  18
BRANCH   3  26
HETATM   26  C   UNL     1      42.100 -16.728   6.296  1.00  0.00     0.189 C 
BRANCH  26  27
HETATM   27  C   UNL     1      42.778 -17.333   5.088  1.00  0.00    -0.038 A 
HETATM   28  C   UNL     1      42.415 -16.932   3.794  1.00  0.00     0.009 A 
HETATM   29  C   UNL     1      43.055 -17.478   2.678  1.00  0.00     0.001 A 
HETATM   30  C   UNL     1      44.064 -18.424   2.842  1.00  0.00     0.000 A 
HETATM   31  C   UNL     1      44.442 -18.823   4.122  1.00  0.00     0.001 A 
HETATM   32  C   UNL     1      43.808 -18.276   5.239  1.00  0.00     0.009 A 
ENDBRANCH  26  27
ENDBRANCH   3  26
TORSDOF 6
ENDMDL
MODEL 4
REMARK VINA RESULT:      -8.4      2.369      7.772
REMARK  6 active torsions:
REMARK  status: ('A' for Active; 'I' for Inactive)
REMARK    1  A    between atoms: C_6  and  C_7 
REMARK    2  A    between atoms: N_9  and  C_10 
REMARK    3  A    between atoms: C_10  and  C_11 
REMARK    4  A    between atoms: C_18  and  C_19 
REMARK       I    between atoms: C_19  and  N_20 
REMARK    5  A    between atoms: N_20  and  C_21 
REMARK    6  A    between atoms: C_24  and  O_25 
ROOT
HETATM    1  C   UNL     1      41.824 -14.202   1.911  1.00  0.00     0.104 A 
HETATM    2  N   UNL     1      41.802 -13.968   0.587  1.00  0.00    -0.171 NA
HETATM    3  N   UNL     1      41.231 -12.756   0.464  1.00  0.00    -0.275 N 
HETATM    4  C   UNL     1      40.905 -12.190   1.658  1.00  0.00     0.132 A 
HETATM    5  C   UNL     1      41.218 -13.123   2.629  1.00  0.00     0.080 A 
ENDROOT
BRANCH   5   6
HETATM    6  C   UNL     1      40.950 -12.953   4.046  1.00  0.00     0.255 C 
HETATM    7  N   UNL     1      42.072 -12.721   4.810  1.00  0.00    -0.352 N 
HETATM    8  H   UNL     1      42.972 -12.749   4.350  1.00  0.00     0.163 HD
HETATM    9  O   UNL     1      39.822 -13.051   4.516  1.00  0.00    -0.268 OA
BRANCH   7  10
HETATM   10  C   UNL     1      42.019 -12.497   6.247  1.00  0.00     0.084 C 
HETATM   11  C   UNL     1      42.964 -13.433   7.013  1.00  0.00     0.028 C 
HETATM   12  C   UNL     1      44.438 -13.090   6.791  1.00  0.00     0.034 C 
HETATM   13  C   UNL     1      44.754 -11.622   7.075  1.00  0.00     0.118 C 
HETATM   14  C   UNL     1      43.800 -10.671   6.353  1.00  0.00     0.034 C 
HETATM   15  C   UNL     1      42.326 -11.028   6.571  1.00  0.00     0.028 C 
BRANCH  13  16
HETATM   16  O   UNL     1      44.717 -11.371   8.477  1.00  0.00    -0.396 OA
HETATM   17  H   UNL     1      44.970 -10.449   8.644  1.00  0.00     0.210 HD
ENDBRANCH  13  16
ENDBRANCH   7  10
ENDBRANCH   5   6
BRANCH   1  18
HETATM   18  C   UNL     1      42.415 -15.440   2.426  1.00  0.00    -0.004 A 
HETATM   19  C   UNL     1      43.058 -15.476   3.670  1.00  0.00     0.021 A 
HETATM   20  C   UNL     1      43.583 -16.673   4.189  1.00  0.00    -0.055 A 
HETATM   21  C   UNL     1      43.507 -17.850   3.418  1.00  0.00    -0.056 A 
HETATM   22  C   UNL     1      44.251 -16.655   5.537  1.00  0.00     0.049 C 
HETATM   23  C   UNL     1      44.064 -19.155   3.915  1.00  0.00     0.049 C 
HETATM   24  C   UNL     1      42.877 -17.808   2.166  1.00  0.00     0.008 A 
HETATM   25  C   UNL     1      42.339 -16.617   1.675  1.00  0.00     0.014 A 
ENDBRANCH   1  18
BRANCH   3  26
HETATM   26  C   UNL     1      41.022 -12.182  -0.861  1.00  0.00     0.189 C 
BRANCH  26  27
HETATM   27  C   UNL     1      39.850 -12.816  -1.573  1.00  0.00    -0.038 A 
HETATM   28  C   UNL     1      40.031 -13.968  -2.352  1.00  0.00     0.009 A 
HETATM   29  C   UNL     1      38.944 -14.566  -2.997  1.00  0.00     0.001 A 
HETATM   30  C   UNL     1      37.668 -14.023  -2.866  1.00  0.00     0.000 A 
HETATM   31  C   UNL     1      37.473 -12.885  -2.087  1.00  0.00     0.001 A 
HETATM   32  C   UNL     1      38.555 -12.289  -1.439  1.00  0.00     0.009 A 
ENDBRANCH  26  27
ENDBRANCH   3  26
TORSDOF 6
ENDMDL
MODEL 5
REMARK VINA RESULT:      -8.3      2.630      7.603
REMARK  6 active torsions:
REMARK  status: ('A' for Active; 'I' for Inactive)
REMARK    1  A    between atoms: C_6  and  C_7 
REMARK    2  A    between atoms: N_9  and  C_10 
REMARK    3  A    between atoms: C_10  and  C_11 
REMARK    4  A    between atoms: C_18  and  C_19 
REMARK       I    between atoms: C_19  and  N_20 
REMARK    5  A    between atoms: N_20  and  C_21 
REMARK    6  A    between atoms: C_24  and  O_25 
ROOT
HETATM    1  C   UNL     1      40.780 -15.038   2.041  1.00  0.00     0.104 A 
HETATM    2  N   UNL     1      40.519 -15.476   0.796  1.00  0.00    -0.171 NA
HETATM    3  N   UNL     1      39.897 -14.445   0.194  1.00  0.00    -0.275 N 
HETATM    4  C   UNL     1      39.768 -13.352   0.996  1.00  0.00     0.132 A 
HETATM    5  C   UNL     1      40.276 -13.712   2.230  1.00  0.00     0.080 A 
ENDROOT
BRANCH   5   6
HETATM    6  C   UNL     1      40.255 -12.860   3.405  1.00  0.00     0.255 C 
HETATM    7  N   UNL     1      41.501 -12.469   3.843  1.00  0.00    -0.352 N 
HETATM    8  H   UNL     1      42.310 -12.846   3.366  1.00  0.00     0.163 HD
HETATM    9  O   UNL     1      39.213 -12.553   3.975  1.00  0.00    -0.268 OA
BRANCH   7  10
HETATM   10  C   UNL     1      41.700 -11.593   4.987  1.00  0.00     0.084 C 
HETATM   11  C   UNL     1      41.742 -12.370   6.310  1.00  0.00     0.028 C 
HETATM   12  C   UNL     1      43.009 -13.214   6.456  1.00  0.00     0.034 C 
HETATM   13  C   UNL     1      44.287 -12.404   6.243  1.00  0.00     0.118 C 
HETATM   14  C   UNL     1      44.253 -11.591   4.950  1.00  0.00     0.034 C 
HETATM   15  C   UNL     1      42.976 -10.757   4.806  1.00  0.00     0.028 C 
BRANCH  13  16
HETATM   16  O   UNL     1      44.515 -11.539   7.352  1.00  0.00    -0.396 OA
HETATM   17  H   UNL     1      44.194 -11.965   8.163  1.00  0.00     0.210 HD
ENDBRANCH  13  16
ENDBRANCH   7  10
ENDBRANCH   5   6
BRANCH   1  18
HETATM   18  C   UNL     1      41.491 -15.901   2.987  1.00  0.00    -0.004 A 
HETATM   19  C   UNL     1      42.458 -16.817   2.551  1.00  0.00     0.021 A 
HETATM   20  C   UNL     1      43.176 -17.613   3.461  1.00  0.00    -0.055 A 
HETATM   21  C   UNL     1      42.880 -17.525   4.835  1.00  0.00    -0.056 A 
HETATM   22  C   UNL     1      44.213 -18.568   2.937  1.00  0.00     0.049 C 
HETATM   23  C   UNL     1      43.605 -18.362   5.853  1.00  0.00     0.049 C 
HETATM   24  C   UNL     1      41.900 -16.619   5.268  1.00  0.00     0.008 A 
HETATM   25  C   UNL     1      41.212 -15.818   4.355  1.00  0.00     0.014 A 
ENDBRANCH   1  18
BRANCH   3  26
HETATM   26  C   UNL     1      39.440 -14.576  -1.185  1.00  0.00     0.189 C 
BRANCH  26  27
HETATM   27  C   UNL     1      39.447 -13.251  -1.910  1.00  0.00    -0.038 A 
HETATM   28  C   UNL     1      38.260 -12.521  -2.067  1.00  0.00     0.009 A 
HETATM   29  C   UNL     1      38.269 -11.287  -2.723  1.00  0.00     0.001 A 
HETATM   30  C   UNL     1      39.461 -10.767  -3.223  1.00  0.00     0.000 A 
HETATM   31  C   UNL     1      40.649 -11.478  -3.065  1.00  0.00     0.001 A 
HETATM   32  C   UNL     1      40.644 -12.708  -2.407  1.00  0.00     0.009 A 
ENDBRANCH  26  27
ENDBRANCH   3  26
TORSDOF 6
ENDMDL
MODEL 6
REMARK VINA RESULT:      -8.3      2.221      6.769
REMARK  6 active torsions:
REMARK  status: ('A' for Active; 'I' for Inactive)
REMARK    1  A    between atoms: C_6  and  C_7 
REMARK    2  A    between atoms: N_9  and  C_10 
REMARK    3  A    between atoms: C_10  and  C_11 
REMARK    4  A    between atoms: C_18  and  C_19 
REMARK       I    between atoms: C_19  and  N_20 
REMARK    5  A    between atoms: N_20  and  C_21 
REMARK    6  A    between atoms: C_24  and  O_25 
ROOT
HETATM    1  C   UNL     1      43.112 -12.880   5.611  1.00  0.00     0.104 A 
HETATM    2  N   UNL     1      42.897 -14.108   6.116  1.00  0.00    -0.171 NA
HETATM    3  N   UNL     1      42.285 -14.783   5.125  1.00  0.00    -0.275 N 
HETATM    4  C   UNL     1      42.119 -14.044   3.994  1.00  0.00     0.132 A 
HETATM    5  C   UNL     1      42.588 -12.777   4.283  1.00  0.00     0.080 A 
ENDROOT
BRANCH   5   6
HETATM    6  C   UNL     1      42.519 -11.649   3.372  1.00  0.00     0.255 C 
HETATM    7  N   UNL     1      41.282 -11.462   2.796  1.00  0.00    -0.352 N 
HETATM    8  H   UNL     1      40.559 -12.140   2.997  1.00  0.00     0.163 HD
HETATM    9  O   UNL     1      43.496 -10.954   3.113  1.00  0.00    -0.268 OA
BRANCH   7  10
HETATM   10  C   UNL     1      40.994 -10.373   1.875  1.00  0.00     0.084 C 
HETATM   11  C   UNL     1      41.297 -10.752   0.419  1.00  0.00     0.028 C 
HETATM   12  C   UNL     1      40.310 -11.779  -0.139  1.00  0.00     0.034 C 
HETATM   13  C   UNL     1      38.853 -11.356   0.037  1.00  0.00     0.118 C 
HETATM   14  C   UNL     1      38.536 -10.936   1.472  1.00  0.00     0.034 C 
HETATM   15  C   UNL     1      39.536  -9.916   2.027  1.00  0.00     0.028 C 
BRANCH  13  16
HETATM   16  O   UNL     1      38.535 -10.293  -0.858  1.00  0.00    -0.396 OA
HETATM   17  H   UNL     1      39.345  -9.803  -1.075  1.00  0.00     0.210 HD
ENDBRANCH  13  16
ENDBRANCH   7  10
ENDBRANCH   5   6
BRANCH   1  18
HETATM   18  C   UNL     1      43.799 -11.867   6.416  1.00  0.00    -0.004 A 
HETATM   19  C   UNL     1      43.085 -10.873   7.098  1.00  0.00     0.021 A 
HETATM   20  C   UNL     1      43.738  -9.929   7.911  1.00  0.00    -0.055 A 
HETATM   21  C   UNL     1      45.143  -9.951   7.999  1.00  0.00    -0.056 A 
HETATM   22  C   UNL     1      42.919  -8.893   8.631  1.00  0.00     0.049 C 
HETATM   23  C   UNL     1      45.896  -8.958   8.840  1.00  0.00     0.049 C 
HETATM   24  C   UNL     1      45.858 -10.937   7.303  1.00  0.00     0.008 A 
HETATM   25  C   UNL     1      45.194 -11.883   6.519  1.00  0.00     0.014 A 
ENDBRANCH   1  18
BRANCH   3  26
HETATM   26  C   UNL     1      41.877 -16.167   5.333  1.00  0.00     0.189 C 
BRANCH  26  27
HETATM   27  C   UNL     1      42.676 -17.126   4.481  1.00  0.00    -0.038 A 
HETATM   28  C   UNL     1      42.365 -17.301   3.125  1.00  0.00     0.009 A 
HETATM   29  C   UNL     1      43.116 -18.174   2.333  1.00  0.00     0.001 A 
HETATM   30  C   UNL     1      44.186 -18.877   2.884  1.00  0.00     0.000 A 
HETATM   31  C   UNL     1      44.511 -18.704   4.228  1.00  0.00     0.001 A 
HETATM   32  C   UNL     1      43.767 -17.829   5.020  1.00  0.00     0.009 A 
ENDBRANCH  26  27
ENDBRANCH   3  26
TORSDOF 6
ENDMDL
MODEL 7
REMARK VINA RESULT:      -8.1      2.960      7.572
REMARK  6 active torsions:
REMARK  status: ('A' for Active; 'I' for Inactive)
REMARK    1  A    between atoms: C_6  and  C_7 
REMARK    2  A    between atoms: N_9  and  C_10 
REMARK    3  A    between atoms: C_10  and  C_11 
REMARK    4  A    between atoms: C_18  and  C_19 
REMARK       I    between atoms: C_19  and  N_20 
REMARK    5  A    between atoms: N_20  and  C_21 
REMARK    6  A    between atoms: C_24  and  O_25 
ROOT
HETATM    1  C   UNL     1      41.643 -14.038   2.302  1.00  0.00     0.104 A 
HETATM    2  N   UNL     1      41.767 -13.837   0.978  1.00  0.00    -0.171 NA
HETATM    3  N   UNL     1      41.090 -12.698   0.741  1.00  0.00    -0.275 N 
HETATM    4  C   UNL     1      40.555 -12.145   1.865  1.00  0.00     0.132 A 
HETATM    5  C   UNL     1      40.839 -13.016   2.899  1.00  0.00     0.080 A 
ENDROOT
BRANCH   5   6
HETATM    6  C   UNL     1      40.374 -12.846   4.264  1.00  0.00     0.255 C 
HETATM    7  N   UNL     1      40.638 -11.606   4.801  1.00  0.00    -0.352 N 
HETATM    8  H   UNL     1      41.174 -10.953   4.245  1.00  0.00     0.163 HD
HETATM    9  O   UNL     1      39.831 -13.750   4.890  1.00  0.00    -0.268 OA
BRANCH   7  10
HETATM   10  C   UNL     1      40.232 -11.221   6.145  1.00  0.00     0.084 C 
HETATM   11  C   UNL     1      41.002  -9.995   6.653  1.00  0.00     0.028 C 
HETATM   12  C   UNL     1      40.605  -8.709   5.927  1.00  0.00     0.034 C 
HETATM   13  C   UNL     1      39.097  -8.466   5.937  1.00  0.00     0.118 C 
HETATM   14  C   UNL     1      38.305  -9.687   5.472  1.00  0.00     0.034 C 
HETATM   15  C   UNL     1      38.718 -10.973   6.196  1.00  0.00     0.028 C 
BRANCH  13  16
HETATM   16  O   UNL     1      38.667  -8.080   7.241  1.00  0.00    -0.396 OA
HETATM   17  H   UNL     1      38.508  -7.123   7.255  1.00  0.00     0.210 HD
ENDBRANCH  13  16
ENDBRANCH   7  10
ENDBRANCH   5   6
BRANCH   1  18
HETATM   18  C   UNL     1      42.291 -15.192   2.931  1.00  0.00    -0.004 A 
HETATM   19  C   UNL     1      42.321 -16.443   2.300  1.00  0.00     0.021 A 
HETATM   20  C   UNL     1      42.984 -17.539   2.879  1.00  0.00    -0.055 A 
HETATM   21  C   UNL     1      43.586 -17.391   4.144  1.00  0.00    -0.056 A 
HETATM   22  C   UNL     1      42.995 -18.855   2.150  1.00  0.00     0.049 C 
HETATM   23  C   UNL     1      44.296 -18.533   4.817  1.00  0.00     0.049 C 
HETATM   24  C   UNL     1      43.542 -16.142   4.781  1.00  0.00     0.008 A 
HETATM   25  C   UNL     1      42.900 -15.056   4.182  1.00  0.00     0.014 A 
ENDBRANCH   1  18
BRANCH   3  26
HETATM   26  C   UNL     1      40.993 -12.179  -0.619  1.00  0.00     0.189 C 
BRANCH  26  27
HETATM   27  C   UNL     1      39.869 -12.828  -1.392  1.00  0.00    -0.038 A 
HETATM   28  C   UNL     1      38.572 -12.298  -1.339  1.00  0.00     0.009 A 
HETATM   29  C   UNL     1      37.535 -12.887  -2.069  1.00  0.00     0.001 A 
HETATM   30  C   UNL     1      37.783 -14.006  -2.859  1.00  0.00     0.000 A 
HETATM   31  C   UNL     1      39.070 -14.537  -2.928  1.00  0.00     0.001 A 
HETATM   32  C   UNL     1      40.108 -13.949  -2.205  1.00  0.00     0.009 A 
ENDBRANCH  26  27
ENDBRANCH   3  26
TORSDOF 6
ENDMDL
MODEL 8
REMARK VINA RESULT:      -8.1      2.656      8.442
REMARK  6 active torsions:
REMARK  status: ('A' for Active; 'I' for Inactive)
REMARK    1  A    between atoms: C_6  and  C_7 
REMARK    2  A    between atoms: N_9  and  C_10 
REMARK    3  A    between atoms: C_10  and  C_11 
REMARK    4  A    between atoms: C_18  and  C_19 
REMARK       I    between atoms: C_19  and  N_20 
REMARK    5  A    between atoms: N_20  and  C_21 
REMARK    6  A    between atoms: C_24  and  O_25 
ROOT
HETATM    1  C   UNL     1      41.926 -13.411   5.936  1.00  0.00     0.104 A 
HETATM    2  N   UNL     1      41.605 -14.712   5.823  1.00  0.00    -0.171 NA
HETATM    3  N   UNL     1      42.641 -15.370   6.374  1.00  0.00    -0.275 N 
HETATM    4  C   UNL     1      43.608 -14.542   6.858  1.00  0.00     0.132 A 
HETATM    5  C   UNL     1      43.214 -13.256   6.541  1.00  0.00     0.080 A 
ENDROOT
BRANCH   5   6
HETATM    6  C   UNL     1      44.005 -12.068   6.805  1.00  0.00     0.255 C 
HETATM    7  N   UNL     1      43.709 -11.444   7.997  1.00  0.00    -0.352 N 
HETATM    8  H   UNL     1      42.945 -11.813   8.547  1.00  0.00     0.163 HD
HETATM    9  O   UNL     1      44.835 -11.642   6.008  1.00  0.00    -0.268 OA
BRANCH   7  10
HETATM   10  C   UNL     1      44.405 -10.254   8.462  1.00  0.00     0.084 C 
HETATM   11  C   UNL     1      43.524  -8.999   8.379  1.00  0.00     0.028 C 
HETATM   12  C   UNL     1      42.391  -9.008   9.407  1.00  0.00     0.034 C 
HETATM   13  C   UNL     1      42.887  -9.250  10.832  1.00  0.00     0.118 C 
HETATM   14  C   UNL     1      43.798 -10.472  10.932  1.00  0.00     0.034 C 
HETATM   15  C   UNL     1      44.923 -10.462   9.892  1.00  0.00     0.028 C 
BRANCH  13  16
HETATM   16  O   UNL     1      43.568  -8.098  11.321  1.00  0.00    -0.396 OA
HETATM   17  H   UNL     1      43.022  -7.311  11.164  1.00  0.00     0.210 HD
ENDBRANCH  13  16
ENDBRANCH   7  10
ENDBRANCH   5   6
BRANCH   1  18
HETATM   18  C   UNL     1      40.998 -12.384   5.459  1.00  0.00    -0.004 A 
HETATM   19  C   UNL     1      40.652 -11.288   6.261  1.00  0.00     0.021 A 
HETATM   20  C   UNL     1      39.799 -10.275   5.789  1.00  0.00    -0.055 A 
HETATM   21  C   UNL     1      39.239 -10.390   4.502  1.00  0.00    -0.056 A 
HETATM   22  C   UNL     1      39.473  -9.114   6.689  1.00  0.00     0.049 C 
HETATM   23  C   UNL     1      38.309  -9.345   3.950  1.00  0.00     0.049 C 
HETATM   24  C   UNL     1      39.574 -11.496   3.706  1.00  0.00     0.008 A 
HETATM   25  C   UNL     1      40.441 -12.482   4.180  1.00  0.00     0.014 A 
ENDBRANCH   1  18
BRANCH   3  26
HETATM   26  C   UNL     1      42.643 -16.828   6.406  1.00  0.00     0.189 C 
BRANCH  26  27
HETATM   27  C   UNL     1      43.089 -17.422   5.090  1.00  0.00    -0.038 A 
HETATM   28  C   UNL     1      42.693 -16.840   3.877  1.00  0.00     0.009 A 
HETATM   29  C   UNL     1      43.119 -17.379   2.661  1.00  0.00     0.001 A 
HETATM   30  C   UNL     1      43.948 -18.498   2.642  1.00  0.00     0.000 A 
HETATM   31  C   UNL     1      44.358 -19.079   3.840  1.00  0.00     0.001 A 
HETATM   32  C   UNL     1      43.937 -18.542   5.057  1.00  0.00     0.009 A 
ENDBRANCH  26  27
ENDBRANCH   3  26
TORSDOF 6
ENDMDL
MODEL 9
REMARK VINA RESULT:      -7.8      9.286     12.565
REMARK  6 active torsions:
REMARK  status: ('A' for Active; 'I' for Inactive)
REMARK    1  A    between atoms: C_6  and  C_7 
REMARK    2  A    between atoms: N_9  and  C_10 
REMARK    3  A    between atoms: C_10  and  C_11 
REMARK    4  A    between atoms: C_18  and  C_19 
REMARK       I    between atoms: C_19  and  N_20 
REMARK    5  A    between atoms: N_20  and  C_21 
REMARK    6  A    between atoms: C_24  and  O_25 
ROOT
HETATM    1  C   UNL     1      41.230  -7.116  16.325  1.00  0.00     0.104 A 
HETATM    2  N   UNL     1      41.841  -7.296  17.509  1.00  0.00    -0.171 NA
HETATM    3  N   UNL     1      41.002  -6.756  18.412  1.00  0.00    -0.275 N 
HETATM    4  C   UNL     1      39.864  -6.255  17.857  1.00  0.00     0.132 A 
HETATM    5  C   UNL     1      39.994  -6.413  16.491  1.00  0.00     0.080 A 
ENDROOT
BRANCH   5   6
HETATM    6  C   UNL     1      39.033  -5.934  15.514  1.00  0.00     0.255 C 
HETATM    7  N   UNL     1      39.535  -5.813  14.237  1.00  0.00    -0.352 N 
HETATM    8  H   UNL     1      40.519  -6.000  14.096  1.00  0.00     0.163 HD
HETATM    9  O   UNL     1      37.885  -5.628  15.819  1.00  0.00    -0.268 OA
BRANCH   7  10
HETATM   10  C   UNL     1      38.729  -5.376  13.107  1.00  0.00     0.084 C 
HETATM   11  C   UNL     1      39.584  -4.752  11.995  1.00  0.00     0.028 C 
HETATM   12  C   UNL     1      40.444  -5.785  11.265  1.00  0.00     0.034 C 
HETATM   13  C   UNL     1      39.632  -6.972  10.748  1.00  0.00     0.118 C 
HETATM   14  C   UNL     1      38.743  -7.586  11.829  1.00  0.00     0.034 C 
HETATM   15  C   UNL     1      37.893  -6.543  12.562  1.00  0.00     0.028 C 
BRANCH  13  16
HETATM   16  O   UNL     1      38.836  -6.578   9.634  1.00  0.00    -0.396 OA
HETATM   17  H   UNL     1      38.235  -7.302   9.397  1.00  0.00     0.210 HD
ENDBRANCH  13  16
ENDBRANCH   7  10
ENDBRANCH   5   6
BRANCH   1  18
HETATM   18  C   UNL     1      41.853  -7.615  15.096  1.00  0.00    -0.004 A 
HETATM   19  C   UNL     1      41.322  -8.715  14.408  1.00  0.00     0.021 A 
HETATM   20  C   UNL     1      41.889  -9.166  13.202  1.00  0.00    -0.055 A 
HETATM   21  C   UNL     1      43.045  -8.534  12.705  1.00  0.00    -0.056 A 
HETATM   22  C   UNL     1      41.269 -10.343  12.499  1.00  0.00     0.049 C 
HETATM   23  C   UNL     1      43.702  -8.983  11.429  1.00  0.00     0.049 C 
HETATM   24  C   UNL     1      43.584  -7.443  13.404  1.00  0.00     0.008 A 
HETATM   25  C   UNL     1      42.995  -6.991  14.587  1.00  0.00     0.014 A 
ENDBRANCH   1  18
BRANCH   3  26
HETATM   26  C   UNL     1      41.359  -6.752  19.826  1.00  0.00     0.189 C 
BRANCH  26  27
HETATM   27  C   UNL     1      41.679  -8.139  20.331  1.00  0.00    -0.038 A 
HETATM   28  C   UNL     1      42.966  -8.448  20.795  1.00  0.00     0.009 A 
HETATM   29  C   UNL     1      43.258  -9.726  21.279  1.00  0.00     0.001 A 
HETATM   30  C   UNL     1      42.268 -10.706  21.310  1.00  0.00     0.000 A 
HETATM   31  C   UNL     1      40.983 -10.410  20.862  1.00  0.00     0.001 A 
HETATM   32  C   UNL     1      40.687  -9.133  20.382  1.00  0.00     0.009 A 
ENDBRANCH  26  27
ENDBRANCH   3  26
TORSDOF 6
ENDMDL
MODEL 10
REMARK VINA RESULT:      -7.7      2.920      7.100
REMARK  6 active torsions:
REMARK  status: ('A' for Active; 'I' for Inactive)
REMARK    1  A    between atoms: C_6  and  C_7 
REMARK    2  A    between atoms: N_9  and  C_10 
REMARK    3  A    between atoms: C_10  and  C_11 
REMARK    4  A    between atoms: C_18  and  C_19 
REMARK       I    between atoms: C_19  and  N_20 
REMARK    5  A    between atoms: N_20  and  C_21 
REMARK    6  A    between atoms: C_24  and  O_25 
ROOT
HETATM    1  C   UNL     1      42.609 -12.543   5.549  1.00  0.00     0.104 A 
HETATM    2  N   UNL     1      42.401 -13.790   6.009  1.00  0.00    -0.171 NA
HETATM    3  N   UNL     1      41.819 -14.440   4.985  1.00  0.00    -0.275 N 
HETATM    4  C   UNL     1      41.664 -13.666   3.875  1.00  0.00     0.132 A 
HETATM    5  C   UNL     1      42.110 -12.403   4.215  1.00  0.00     0.080 A 
ENDROOT
BRANCH   5   6
HETATM    6  C   UNL     1      42.043 -11.247   3.339  1.00  0.00     0.255 C 
HETATM    7  N   UNL     1      40.944 -10.444   3.546  1.00  0.00    -0.352 N 
HETATM    8  H   UNL     1      40.258 -10.745   4.225  1.00  0.00     0.163 HD
HETATM    9  O   UNL     1      42.879 -11.036   2.467  1.00  0.00    -0.268 OA
BRANCH   7  10
HETATM   10  C   UNL     1      40.703  -9.222   2.793  1.00  0.00     0.084 C 
HETATM   11  C   UNL     1      39.532  -9.369   1.811  1.00  0.00     0.028 C 
HETATM   12  C   UNL     1      38.180  -9.462   2.519  1.00  0.00     0.034 C 
HETATM   13  C   UNL     1      37.946  -8.314   3.501  1.00  0.00     0.118 C 
HETATM   14  C   UNL     1      39.116  -8.123   4.464  1.00  0.00     0.034 C 
HETATM   15  C   UNL     1      40.468  -8.042   3.748  1.00  0.00     0.028 C 
BRANCH  13  16
HETATM   16  O   UNL     1      37.699  -7.102   2.794  1.00  0.00    -0.396 OA
HETATM   17  H   UNL     1      37.366  -6.432   3.412  1.00  0.00     0.210 HD
ENDBRANCH  13  16
ENDBRANCH   7  10
ENDBRANCH   5   6
BRANCH   1  18
HETATM   18  C   UNL     1      43.266 -11.548   6.400  1.00  0.00    -0.004 A 
HETATM   19  C   UNL     1      44.652 -11.569   6.606  1.00  0.00     0.021 A 
HETATM   20  C   UNL     1      45.291 -10.586   7.383  1.00  0.00    -0.055 A 
HETATM   21  C   UNL     1      44.516  -9.592   8.011  1.00  0.00    -0.056 A 
HETATM   22  C   UNL     1      46.784 -10.650   7.558  1.00  0.00     0.049 C 
HETATM   23  C   UNL     1      45.143  -8.525   8.865  1.00  0.00     0.049 C 
HETATM   24  C   UNL     1      43.127  -9.583   7.817  1.00  0.00     0.008 A 
HETATM   25  C   UNL     1      42.509 -10.551   7.022  1.00  0.00     0.014 A 
ENDBRANCH   1  18
BRANCH   3  26
HETATM   26  C   UNL     1      41.426 -15.836   5.138  1.00  0.00     0.189 C 
BRANCH  26  27
HETATM   27  C   UNL     1      42.369 -16.771   4.419  1.00  0.00    -0.038 A 
HETATM   28  C   UNL     1      43.431 -17.377   5.106  1.00  0.00     0.009 A 
HETATM   29  C   UNL     1      44.293 -18.256   4.445  1.00  0.00     0.001 A 
HETATM   30  C   UNL     1      44.102 -18.542   3.095  1.00  0.00     0.000 A 
HETATM   31  C   UNL     1      43.045 -17.954   2.403  1.00  0.00     0.001 A 
HETATM   32  C   UNL     1      42.179 -17.080   3.061  1.00  0.00     0.009 A 
ENDBRANCH  26  27
ENDBRANCH   3  26
TORSDOF 6
ENDMDL
