MODEL 1
REMARK VINA RESULT:      -8.7      0.000      0.000
REMARK  13 active torsions:
REMARK  status: ('A' for Active; 'I' for Inactive)
REMARK    1  A    between atoms: C_2  and  O_3 
REMARK    2  A    between atoms: O_3  and  C_4 
REMARK    3  A    between atoms: C_5  and  O_6 
REMARK    4  A    between atoms: C_9  and  C_10 
REMARK    5  A    between atoms: N_11  and  C_12 
REMARK    6  A    between atoms: C_12  and  C_13 
REMARK    7  A    between atoms: C_13  and  N_14 
REMARK    8  A    between atoms: C_23  and  O_24 
REMARK    9  A    between atoms: C_25  and  C_26 
REMARK   10  A    between atoms: C_26  and  C_27 
REMARK   11  A    between atoms: C_31  and  O_32 
REMARK   12  A    between atoms: O_32  and  C_33 
REMARK   13  A    between atoms: C_33  and  C_34 
ROOT
HETATM    1  C   UNL     1      42.004 -14.222   4.844  1.00  0.00     0.161 A 
HETATM    2  N   UNL     1      42.506 -15.538   5.237  1.00  0.00    -0.332 N 
HETATM    3  C   UNL     1      41.674 -16.141   6.143  1.00  0.00     0.278 A 
HETATM    4  O   UNL     1      41.915 -17.152   6.782  1.00  0.00    -0.265 OA
HETATM    5  C   UNL     1      40.488 -15.292   6.313  1.00  0.00     0.146 A 
HETATM    6  C   UNL     1      40.684 -14.197   5.566  1.00  0.00     0.059 A 
ENDROOT
BRANCH   6   7
HETATM    7  C   UNL     1      39.764 -13.055   5.363  1.00  0.00     0.194 C 
HETATM    8  O   UNL     1      39.086 -12.621   6.284  1.00  0.00    -0.287 OA
BRANCH   7   9
HETATM    9  C   UNL     1      39.701 -12.434   4.027  1.00  0.00     0.021 A 
HETATM   10  C   UNL     1      40.097 -11.103   3.825  1.00  0.00    -0.045 A 
HETATM   11  C   UNL     1      40.758 -10.289   4.897  1.00  0.00     0.049 C 
HETATM   12  C   UNL     1      39.895 -10.541   2.554  1.00  0.00     0.044 A 
HETATM   13  C   UNL     1      39.294 -11.275   1.524  1.00  0.00     0.069 A 
HETATM   14  C   UNL     1      38.965 -12.614   1.729  1.00  0.00     0.038 A 
HETATM   15  C   UNL     1      39.169 -13.198   2.981  1.00  0.00     0.019 A 
BRANCH  13  16
HETATM   16  O   UNL     1      39.093 -10.578   0.365  1.00  0.00    -0.347 OA
BRANCH  16  17
HETATM   17  C   UNL     1      40.013 -10.841  -0.695  1.00  0.00     0.214 C 
BRANCH  17  18
HETATM   18  C   UNL     1      39.488 -11.997  -1.508  1.00  0.00    -0.034 A 
HETATM   19  C   UNL     1      38.136 -12.045  -1.877  1.00  0.00     0.009 A 
HETATM   20  C   UNL     1      37.644 -13.114  -2.628  1.00  0.00     0.001 A 
HETATM   21  C   UNL     1      38.497 -14.147  -3.011  1.00  0.00     0.000 A 
HETATM   22  C   UNL     1      39.839 -14.118  -2.638  1.00  0.00     0.001 A 
HETATM   23  C   UNL     1      40.332 -13.050  -1.886  1.00  0.00     0.009 A 
ENDBRANCH  17  18
ENDBRANCH  16  17
ENDBRANCH  13  16
ENDBRANCH   7   9
ENDBRANCH   6   7
BRANCH   1  24
HETATM   24  C   UNL     1      43.008 -13.155   5.244  1.00  0.00    -0.028 A 
HETATM   25  C   UNL     1      43.667 -12.428   4.234  1.00  0.00     0.012 A 
HETATM   26  C   UNL     1      44.680 -11.523   4.550  1.00  0.00     0.040 A 
HETATM   27  C   UNL     1      45.026 -11.327   5.877  1.00  0.00     0.099 A 
HETATM   28  C   UNL     1      44.364 -11.998   6.905  1.00  0.00     0.102 A 
HETATM   29  C   UNL     1      43.373 -12.929   6.589  1.00  0.00     0.049 A 
BRANCH  27  30
HETATM   30  O   UNL     1      46.034 -10.448   6.156  1.00  0.00    -0.358 OA
HETATM   31  H   UNL     1      46.523 -10.825   6.913  1.00  0.00     0.218 HD
ENDBRANCH  27  30
BRANCH  28  32
HETATM   32  O   UNL     1      44.796 -11.726   8.176  1.00  0.00    -0.349 OA
BRANCH  32  33
HETATM   33  C   UNL     1      44.072 -10.693   8.853  1.00  0.00     0.171 C 
HETATM   34  C   UNL     1      45.049  -9.939   9.738  1.00  0.00     0.034 C 
ENDBRANCH  32  33
ENDBRANCH  28  32
ENDBRANCH   1  24
BRANCH   5  35
HETATM   35  O   UNL     1      39.438 -15.630   7.107  1.00  0.00    -0.355 OA
HETATM   36  H   UNL     1      39.041 -16.447   6.745  1.00  0.00     0.218 HD
ENDBRANCH   5  35
BRANCH   2  37
HETATM   37  C   UNL     1      43.734 -16.131   4.708  1.00  0.00     0.155 C 
BRANCH  37  38
HETATM   38  C   UNL     1      43.585 -16.756   3.303  1.00  0.00     0.255 C 
BRANCH  38  39
HETATM   39  N   UNL     1      43.377 -18.255   3.368  1.00  0.00    -0.066 N 
HETATM   40  H   UNL     1      42.430 -18.421   3.742  1.00  0.00     0.280 HD
HETATM   41  C   UNL     1      43.363 -18.947   2.009  1.00  0.00     0.261 C 
HETATM   42  C   UNL     1      43.054 -20.437   2.210  1.00  0.00     0.195 C 
HETATM   43  O   UNL     1      44.014 -21.044   3.084  1.00  0.00    -0.388 OA
HETATM   44  C   UNL     1      44.006 -20.440   4.383  1.00  0.00     0.195 C 
HETATM   45  C   UNL     1      44.357 -18.950   4.300  1.00  0.00     0.261 C 
ENDBRANCH  38  39
ENDBRANCH  37  38
ENDBRANCH   2  37
TORSDOF 13
ENDMDL
MODEL 2
REMARK VINA RESULT:      -8.7      3.437      7.569
REMARK  13 active torsions:
REMARK  status: ('A' for Active; 'I' for Inactive)
REMARK    1  A    between atoms: C_2  and  O_3 
REMARK    2  A    between atoms: O_3  and  C_4 
REMARK    3  A    between atoms: C_5  and  O_6 
REMARK    4  A    between atoms: C_9  and  C_10 
REMARK    5  A    between atoms: N_11  and  C_12 
REMARK    6  A    between atoms: C_12  and  C_13 
REMARK    7  A    between atoms: C_13  and  N_14 
REMARK    8  A    between atoms: C_23  and  O_24 
REMARK    9  A    between atoms: C_25  and  C_26 
REMARK   10  A    between atoms: C_26  and  C_27 
REMARK   11  A    between atoms: C_31  and  O_32 
REMARK   12  A    between atoms: O_32  and  C_33 
REMARK   13  A    between atoms: C_33  and  C_34 
ROOT
HETATM    1  C   UNL     1      40.914 -10.697   6.181  1.00  0.00     0.161 A 
HETATM    2  N   UNL     1      40.534  -9.437   5.543  1.00  0.00    -0.332 N 
HETATM    3  C   UNL     1      39.791  -9.652   4.412  1.00  0.00     0.278 A 
HETATM    4  O   UNL     1      39.485  -8.815   3.580  1.00  0.00    -0.265 OA
HETATM    5  C   UNL     1      39.531 -11.094   4.301  1.00  0.00     0.146 A 
HETATM    6  C   UNL     1      40.176 -11.684   5.317  1.00  0.00     0.059 A 
ENDROOT
BRANCH   6   7
HETATM    7  C   UNL     1      40.195 -13.120   5.673  1.00  0.00     0.194 C 
HETATM    8  O   UNL     1      39.495 -13.555   6.578  1.00  0.00    -0.287 OA
BRANCH   7   9
HETATM    9  C   UNL     1      41.060 -14.025   4.894  1.00  0.00     0.021 A 
HETATM   10  C   UNL     1      42.252 -14.535   5.432  1.00  0.00    -0.045 A 
HETATM   11  C   UNL     1      42.637 -14.332   6.867  1.00  0.00     0.049 C 
HETATM   12  C   UNL     1      43.084 -15.290   4.590  1.00  0.00     0.044 A 
HETATM   13  C   UNL     1      42.751 -15.511   3.249  1.00  0.00     0.069 A 
HETATM   14  C   UNL     1      41.533 -15.049   2.753  1.00  0.00     0.038 A 
HETATM   15  C   UNL     1      40.683 -14.306   3.575  1.00  0.00     0.019 A 
BRANCH  13  16
HETATM   16  O   UNL     1      43.689 -16.200   2.531  1.00  0.00    -0.347 OA
BRANCH  16  17
HETATM   17  C   UNL     1      43.233 -17.381   1.870  1.00  0.00     0.214 C 
BRANCH  17  18
HETATM   18  C   UNL     1      43.545 -18.568   2.745  1.00  0.00    -0.034 A 
HETATM   19  C   UNL     1      43.485 -19.868   2.222  1.00  0.00     0.009 A 
HETATM   20  C   UNL     1      43.772 -20.970   3.028  1.00  0.00     0.001 A 
HETATM   21  C   UNL     1      44.113 -20.785   4.367  1.00  0.00     0.000 A 
HETATM   22  C   UNL     1      44.161 -19.500   4.902  1.00  0.00     0.001 A 
HETATM   23  C   UNL     1      43.874 -18.396   4.097  1.00  0.00     0.009 A 
ENDBRANCH  17  18
ENDBRANCH  16  17
ENDBRANCH  13  16
ENDBRANCH   7   9
ENDBRANCH   6   7
BRANCH   1  24
HETATM   24  C   UNL     1      42.428 -10.820   6.197  1.00  0.00    -0.028 A 
HETATM   25  C   UNL     1      43.102 -11.074   4.987  1.00  0.00     0.012 A 
HETATM   26  C   UNL     1      44.476 -11.311   4.972  1.00  0.00     0.040 A 
HETATM   27  C   UNL     1      45.185 -11.277   6.161  1.00  0.00     0.099 A 
HETATM   28  C   UNL     1      44.556 -10.985   7.371  1.00  0.00     0.102 A 
HETATM   29  C   UNL     1      43.175 -10.781   7.394  1.00  0.00     0.049 A 
BRANCH  27  30
HETATM   30  O   UNL     1      46.527 -11.530   6.119  1.00  0.00    -0.358 OA
HETATM   31  H   UNL     1      46.870 -11.337   7.013  1.00  0.00     0.218 HD
ENDBRANCH  27  30
BRANCH  28  32
HETATM   32  O   UNL     1      45.359 -10.983   8.481  1.00  0.00    -0.349 OA
BRANCH  32  33
HETATM   33  C   UNL     1      45.498  -9.713   9.126  1.00  0.00     0.171 C 
HETATM   34  C   UNL     1      45.020  -9.860  10.559  1.00  0.00     0.034 C 
ENDBRANCH  32  33
ENDBRANCH  28  32
ENDBRANCH   1  24
BRANCH   5  35
HETATM   35  O   UNL     1      38.772 -11.640   3.315  1.00  0.00    -0.355 OA
HETATM   36  H   UNL     1      38.217 -10.929   2.937  1.00  0.00     0.218 HD
ENDBRANCH   5  35
BRANCH   2  37
HETATM   37  C   UNL     1      40.892  -8.119   6.068  1.00  0.00     0.155 C 
BRANCH  37  38
HETATM   38  C   UNL     1      39.835  -7.500   7.009  1.00  0.00     0.255 C 
BRANCH  38  39
HETATM   39  N   UNL     1      40.127  -7.799   8.465  1.00  0.00    -0.066 N 
HETATM   40  H   UNL     1      39.713  -7.039   9.027  1.00  0.00     0.280 HD
HETATM   41  C   UNL     1      39.453  -9.059   8.996  1.00  0.00     0.261 C 
HETATM   42  C   UNL     1      39.755  -9.194  10.495  1.00  0.00     0.195 C 
HETATM   43  O   UNL     1      41.168  -9.230  10.731  1.00  0.00    -0.388 OA
HETATM   44  C   UNL     1      41.812  -8.031  10.284  1.00  0.00     0.195 C 
HETATM   45  C   UNL     1      41.615  -7.828   8.778  1.00  0.00     0.261 C 
ENDBRANCH  38  39
ENDBRANCH  37  38
ENDBRANCH   2  37
TORSDOF 13
ENDMDL
MODEL 3
REMARK VINA RESULT:      -8.5      2.431      8.654
REMARK  13 active torsions:
REMARK  status: ('A' for Active; 'I' for Inactive)
REMARK    1  A    between atoms: C_2  and  O_3 
REMARK    2  A    between atoms: O_3  and  C_4 
REMARK    3  A    between atoms: C_5  and  O_6 
REMARK    4  A    between atoms: C_9  and  C_10 
REMARK    5  A    between atoms: N_11  and  C_12 
REMARK    6  A    between atoms: C_12  and  C_13 
REMARK    7  A    between atoms: C_13  and  N_14 
REMARK    8  A    between atoms: C_23  and  O_24 
REMARK    9  A    between atoms: C_25  and  C_26 
REMARK   10  A    between atoms: C_26  and  C_27 
REMARK   11  A    between atoms: C_31  and  O_32 
REMARK   12  A    between atoms: O_32  and  C_33 
REMARK   13  A    between atoms: C_33  and  C_34 
ROOT
HETATM    1  C   UNL     1      41.635 -13.650   3.020  1.00  0.00     0.161 A 
HETATM    2  N   UNL     1      40.256 -13.825   2.563  1.00  0.00    -0.332 N 
HETATM    3  C   UNL     1      39.500 -12.710   2.811  1.00  0.00     0.278 A 
HETATM    4  O   UNL     1      38.288 -12.623   2.708  1.00  0.00    -0.265 OA
HETATM    5  C   UNL     1      40.383 -11.667   3.350  1.00  0.00     0.146 A 
HETATM    6  C   UNL     1      41.603 -12.212   3.465  1.00  0.00     0.059 A 
ENDROOT
BRANCH   6   7
HETATM    7  C   UNL     1      42.852 -11.563   3.920  1.00  0.00     0.194 C 
HETATM    8  O   UNL     1      43.639 -11.079   3.117  1.00  0.00    -0.287 OA
BRANCH   7   9
HETATM    9  C   UNL     1      43.117 -11.487   5.368  1.00  0.00     0.021 A 
HETATM   10  C   UNL     1      42.748 -10.360   6.118  1.00  0.00    -0.045 A 
HETATM   11  C   UNL     1      41.925  -9.246   5.542  1.00  0.00     0.049 C 
HETATM   12  C   UNL     1      43.141 -10.307   7.465  1.00  0.00     0.044 A 
HETATM   13  C   UNL     1      43.898 -11.334   8.041  1.00  0.00     0.069 A 
HETATM   14  C   UNL     1      44.199 -12.473   7.295  1.00  0.00     0.038 A 
HETATM   15  C   UNL     1      43.808 -12.554   5.957  1.00  0.00     0.019 A 
BRANCH  13  16
HETATM   16  O   UNL     1      44.271 -11.114   9.338  1.00  0.00    -0.347 OA
BRANCH  16  17
HETATM   17  C   UNL     1      44.471  -9.750   9.712  1.00  0.00     0.214 C 
BRANCH  17  18
HETATM   18  C   UNL     1      43.752  -9.502  11.013  1.00  0.00    -0.034 A 
HETATM   19  C   UNL     1      43.632  -8.200  11.518  1.00  0.00     0.009 A 
HETATM   20  C   UNL     1      42.968  -7.965  12.723  1.00  0.00     0.001 A 
HETATM   21  C   UNL     1      42.424  -9.030  13.438  1.00  0.00     0.000 A 
HETATM   22  C   UNL     1      42.550 -10.331  12.955  1.00  0.00     0.001 A 
HETATM   23  C   UNL     1      43.214 -10.567  11.750  1.00  0.00     0.009 A 
ENDBRANCH  17  18
ENDBRANCH  16  17
ENDBRANCH  13  16
ENDBRANCH   7   9
ENDBRANCH   6   7
BRANCH   1  24
HETATM   24  C   UNL     1      41.947 -14.677   4.094  1.00  0.00    -0.028 A 
HETATM   25  C   UNL     1      41.166 -14.695   5.266  1.00  0.00     0.012 A 
HETATM   26  C   UNL     1      41.489 -15.541   6.326  1.00  0.00     0.040 A 
HETATM   27  C   UNL     1      42.582 -16.385   6.214  1.00  0.00     0.099 A 
HETATM   28  C   UNL     1      43.350 -16.424   5.051  1.00  0.00     0.102 A 
HETATM   29  C   UNL     1      43.049 -15.554   4.001  1.00  0.00     0.049 A 
BRANCH  27  30
HETATM   30  O   UNL     1      42.886 -17.190   7.275  1.00  0.00    -0.358 OA
HETATM   31  H   UNL     1      42.468 -16.780   8.057  1.00  0.00     0.218 HD
ENDBRANCH  27  30
BRANCH  28  32
HETATM   32  O   UNL     1      44.407 -17.295   5.058  1.00  0.00    -0.349 OA
BRANCH  32  33
HETATM   33  C   UNL     1      44.096 -18.629   4.642  1.00  0.00     0.171 C 
HETATM   34  C   UNL     1      44.139 -18.669   3.126  1.00  0.00     0.034 C 
ENDBRANCH  32  33
ENDBRANCH  28  32
ENDBRANCH   1  24
BRANCH   5  35
HETATM   35  O   UNL     1      39.956 -10.413   3.652  1.00  0.00    -0.355 OA
HETATM   36  H   UNL     1      40.412  -9.789   3.052  1.00  0.00     0.218 HD
ENDBRANCH   5  35
BRANCH   2  37
HETATM   37  C   UNL     1      39.765 -15.038   1.907  1.00  0.00     0.155 C 
BRANCH  37  38
HETATM   38  C   UNL     1      40.191 -15.179   0.429  1.00  0.00     0.255 C 
BRANCH  38  39
HETATM   39  N   UNL     1      39.457 -14.204  -0.468  1.00  0.00    -0.066 N 
HETATM   40  H   UNL     1      38.610 -13.897   0.035  1.00  0.00     0.280 HD
HETATM   41  C   UNL     1      40.214 -12.908  -0.740  1.00  0.00     0.261 C 
HETATM   42  C   UNL     1      39.327 -11.978  -1.579  1.00  0.00     0.195 C 
HETATM   43  O   UNL     1      38.938 -12.611  -2.804  1.00  0.00    -0.388 OA
HETATM   44  C   UNL     1      38.181 -13.804  -2.569  1.00  0.00     0.195 C 
HETATM   45  C   UNL     1      39.001 -14.829  -1.777  1.00  0.00     0.261 C 
ENDBRANCH  38  39
ENDBRANCH  37  38
ENDBRANCH   2  37
TORSDOF 13
ENDMDL
MODEL 4
REMARK VINA RESULT:      -8.5      2.259      7.970
REMARK  13 active torsions:
REMARK  status: ('A' for Active; 'I' for Inactive)
REMARK    1  A    between atoms: C_2  and  O_3 
REMARK    2  A    between atoms: O_3  and  C_4 
REMARK    3  A    between atoms: C_5  and  O_6 
REMARK    4  A    between atoms: C_9  and  C_10 
REMARK    5  A    between atoms: N_11  and  C_12 
REMARK    6  A    between atoms: C_12  and  C_13 
REMARK    7  A    between atoms: C_13  and  N_14 
REMARK    8  A    between atoms: C_23  and  O_24 
REMARK    9  A    between atoms: C_25  and  C_26 
REMARK   10  A    between atoms: C_26  and  C_27 
REMARK   11  A    between atoms: C_31  and  O_32 
REMARK   12  A    between atoms: O_32  and  C_33 
REMARK   13  A    between atoms: C_33  and  C_34 
ROOT
HETATM    1  C   UNL     1      40.177 -14.526   3.481  1.00  0.00     0.161 A 
HETATM    2  N   UNL     1      40.481 -15.558   2.489  1.00  0.00    -0.332 N 
HETATM    3  C   UNL     1      41.437 -16.426   2.947  1.00  0.00     0.278 A 
HETATM    4  O   UNL     1      42.018 -17.271   2.288  1.00  0.00    -0.265 OA
HETATM    5  C   UNL     1      41.740 -16.081   4.343  1.00  0.00     0.146 A 
HETATM    6  C   UNL     1      41.014 -14.995   4.640  1.00  0.00     0.059 A 
ENDROOT
BRANCH   6   7
HETATM    7  C   UNL     1      40.931 -14.281   5.934  1.00  0.00     0.194 C 
HETATM    8  O   UNL     1      40.016 -14.500   6.717  1.00  0.00    -0.287 OA
BRANCH   7   9
HETATM    9  C   UNL     1      41.992 -13.314   6.272  1.00  0.00     0.021 A 
HETATM   10  C   UNL     1      41.757 -11.932   6.229  1.00  0.00    -0.045 A 
HETATM   11  C   UNL     1      40.391 -11.355   6.003  1.00  0.00     0.049 C 
HETATM   12  C   UNL     1      42.846 -11.072   6.444  1.00  0.00     0.044 A 
HETATM   13  C   UNL     1      44.132 -11.574   6.672  1.00  0.00     0.069 A 
HETATM   14  C   UNL     1      44.331 -12.950   6.772  1.00  0.00     0.038 A 
HETATM   15  C   UNL     1      43.260 -13.824   6.575  1.00  0.00     0.019 A 
BRANCH  13  16
HETATM   16  O   UNL     1      45.107 -10.621   6.791  1.00  0.00    -0.347 OA
BRANCH  16  17
HETATM   17  C   UNL     1      45.788 -10.572   8.045  1.00  0.00     0.214 C 
BRANCH  17  18
HETATM   18  C   UNL     1      44.989  -9.709   8.988  1.00  0.00    -0.034 A 
HETATM   19  C   UNL     1      44.734 -10.141  10.298  1.00  0.00     0.009 A 
HETATM   20  C   UNL     1      43.994  -9.346  11.174  1.00  0.00     0.001 A 
HETATM   21  C   UNL     1      43.496  -8.116  10.748  1.00  0.00     0.000 A 
HETATM   22  C   UNL     1      43.729  -7.682   9.445  1.00  0.00     0.001 A 
HETATM   23  C   UNL     1      44.469  -8.477   8.567  1.00  0.00     0.009 A 
ENDBRANCH  17  18
ENDBRANCH  16  17
ENDBRANCH  13  16
ENDBRANCH   7   9
ENDBRANCH   6   7
BRANCH   1  24
HETATM   24  C   UNL     1      40.521 -13.160   2.913  1.00  0.00    -0.028 A 
HETATM   25  C   UNL     1      41.875 -12.833   2.706  1.00  0.00     0.012 A 
HETATM   26  C   UNL     1      42.245 -11.551   2.298  1.00  0.00     0.040 A 
HETATM   27  C   UNL     1      41.264 -10.598   2.077  1.00  0.00     0.099 A 
HETATM   28  C   UNL     1      39.911 -10.903   2.231  1.00  0.00     0.102 A 
HETATM   29  C   UNL     1      39.541 -12.174   2.671  1.00  0.00     0.049 A 
BRANCH  27  30
HETATM   30  O   UNL     1      41.655  -9.347   1.695  1.00  0.00    -0.358 OA
HETATM   31  H   UNL     1      40.968  -8.734   2.022  1.00  0.00     0.218 HD
ENDBRANCH  27  30
BRANCH  28  32
HETATM   32  O   UNL     1      39.034  -9.879   1.988  1.00  0.00    -0.349 OA
BRANCH  32  33
HETATM   33  C   UNL     1      38.365  -9.368   3.146  1.00  0.00     0.171 C 
HETATM   34  C   UNL     1      38.450  -7.853   3.106  1.00  0.00     0.034 C 
ENDBRANCH  32  33
ENDBRANCH  28  32
ENDBRANCH   1  24
BRANCH   5  35
HETATM   35  O   UNL     1      42.612 -16.786   5.111  1.00  0.00    -0.355 OA
HETATM   36  H   UNL     1      42.523 -16.467   6.031  1.00  0.00     0.218 HD
ENDBRANCH   5  35
BRANCH   2  37
HETATM   37  C   UNL     1      39.825 -15.651   1.185  1.00  0.00     0.155 C 
BRANCH  37  38
HETATM   38  C   UNL     1      40.495 -14.812   0.074  1.00  0.00     0.255 C 
BRANCH  38  39
HETATM   39  N   UNL     1      39.492 -13.958  -0.675  1.00  0.00    -0.066 N 
HETATM   40  H   UNL     1      38.675 -13.827  -0.059  1.00  0.00     0.280 HD
HETATM   41  C   UNL     1      39.968 -12.539  -0.963  1.00  0.00     0.261 C 
HETATM   42  C   UNL     1      38.831 -11.759  -1.640  1.00  0.00     0.195 C 
HETATM   43  O   UNL     1      38.408 -12.412  -2.843  1.00  0.00    -0.388 OA
HETATM   44  C   UNL     1      37.911 -13.730  -2.584  1.00  0.00     0.195 C 
HETATM   45  C   UNL     1      38.992 -14.614  -1.952  1.00  0.00     0.261 C 
ENDBRANCH  38  39
ENDBRANCH  37  38
ENDBRANCH   2  37
TORSDOF 13
ENDMDL
MODEL 5
REMARK VINA RESULT:      -8.3      2.245      6.441
REMARK  13 active torsions:
REMARK  status: ('A' for Active; 'I' for Inactive)
REMARK    1  A    between atoms: C_2  and  O_3 
REMARK    2  A    between atoms: O_3  and  C_4 
REMARK    3  A    between atoms: C_5  and  O_6 
REMARK    4  A    between atoms: C_9  and  C_10 
REMARK    5  A    between atoms: N_11  and  C_12 
REMARK    6  A    between atoms: C_12  and  C_13 
REMARK    7  A    between atoms: C_13  and  N_14 
REMARK    8  A    between atoms: C_23  and  O_24 
REMARK    9  A    between atoms: C_25  and  C_26 
REMARK   10  A    between atoms: C_26  and  C_27 
REMARK   11  A    between atoms: C_31  and  O_32 
REMARK   12  A    between atoms: O_32  and  C_33 
REMARK   13  A    between atoms: C_33  and  C_34 
ROOT
HETATM    1  C   UNL     1      42.413 -12.975   5.602  1.00  0.00     0.161 A 
HETATM    2  N   UNL     1      43.736 -12.356   5.669  1.00  0.00    -0.332 N 
HETATM    3  C   UNL     1      44.012 -11.639   4.534  1.00  0.00     0.278 A 
HETATM    4  O   UNL     1      45.092 -11.166   4.225  1.00  0.00    -0.265 OA
HETATM    5  C   UNL     1      42.813 -11.646   3.684  1.00  0.00     0.146 A 
HETATM    6  C   UNL     1      41.903 -12.411   4.303  1.00  0.00     0.059 A 
ENDROOT
BRANCH   6   7
HETATM    7  C   UNL     1      40.516 -12.702   3.877  1.00  0.00     0.194 C 
HETATM    8  O   UNL     1      39.591 -12.665   4.677  1.00  0.00    -0.287 OA
BRANCH   7   9
HETATM    9  C   UNL     1      40.268 -13.014   2.458  1.00  0.00     0.021 A 
HETATM   10  C   UNL     1      39.539 -12.140   1.637  1.00  0.00    -0.045 A 
HETATM   11  C   UNL     1      39.112 -10.777   2.094  1.00  0.00     0.049 C 
HETATM   12  C   UNL     1      39.238 -12.559   0.331  1.00  0.00     0.044 A 
HETATM   13  C   UNL     1      39.631 -13.819  -0.135  1.00  0.00     0.069 A 
HETATM   14  C   UNL     1      40.408 -14.645   0.676  1.00  0.00     0.038 A 
HETATM   15  C   UNL     1      40.731 -14.244   1.974  1.00  0.00     0.019 A 
BRANCH  13  16
HETATM   16  O   UNL     1      39.206 -14.122  -1.399  1.00  0.00    -0.347 OA
BRANCH  16  17
HETATM   17  C   UNL     1      40.120 -13.831  -2.457  1.00  0.00     0.214 C 
BRANCH  17  18
HETATM   18  C   UNL     1      39.929 -12.394  -2.871  1.00  0.00    -0.034 A 
HETATM   19  C   UNL     1      41.039 -11.571  -3.104  1.00  0.00     0.009 A 
HETATM   20  C   UNL     1      40.867 -10.240  -3.487  1.00  0.00     0.001 A 
HETATM   21  C   UNL     1      39.583  -9.718  -3.634  1.00  0.00     0.000 A 
HETATM   22  C   UNL     1      38.472 -10.521  -3.392  1.00  0.00     0.001 A 
HETATM   23  C   UNL     1      38.643 -11.852  -3.008  1.00  0.00     0.009 A 
ENDBRANCH  17  18
ENDBRANCH  16  17
ENDBRANCH  13  16
ENDBRANCH   7   9
ENDBRANCH   6   7
BRANCH   1  24
HETATM   24  C   UNL     1      42.556 -14.486   5.667  1.00  0.00    -0.028 A 
HETATM   25  C   UNL     1      42.233 -15.148   6.867  1.00  0.00     0.012 A 
HETATM   26  C   UNL     1      42.460 -16.517   7.011  1.00  0.00     0.040 A 
HETATM   27  C   UNL     1      42.994 -17.233   5.951  1.00  0.00     0.099 A 
HETATM   28  C   UNL     1      43.284 -16.616   4.734  1.00  0.00     0.102 A 
HETATM   29  C   UNL     1      43.089 -15.240   4.599  1.00  0.00     0.049 A 
BRANCH  27  30
HETATM   30  O   UNL     1      43.222 -18.568   6.126  1.00  0.00    -0.358 OA
HETATM   31  H   UNL     1      44.080 -18.756   5.699  1.00  0.00     0.218 HD
ENDBRANCH  27  30
BRANCH  28  32
HETATM   32  O   UNL     1      43.811 -17.424   3.762  1.00  0.00    -0.349 OA
BRANCH  32  33
HETATM   33  C   UNL     1      42.916 -17.751   2.695  1.00  0.00     0.171 C 
HETATM   34  C   UNL     1      43.233 -19.161   2.231  1.00  0.00     0.034 C 
ENDBRANCH  32  33
ENDBRANCH  28  32
ENDBRANCH   1  24
BRANCH   5  35
HETATM   35  O   UNL     1      42.734 -10.978   2.504  1.00  0.00    -0.355 OA
HETATM   36  H   UNL     1      43.514 -10.391   2.440  1.00  0.00     0.218 HD
ENDBRANCH   5  35
BRANCH   2  37
HETATM   37  C   UNL     1      44.634 -12.478   6.817  1.00  0.00     0.155 C 
BRANCH  37  38
HETATM   38  C   UNL     1      44.908 -11.149   7.556  1.00  0.00     0.255 C 
BRANCH  38  39
HETATM   39  N   UNL     1      43.715 -10.699   8.374  1.00  0.00    -0.066 N 
HETATM   40  H   UNL     1      43.083 -11.508   8.471  1.00  0.00     0.280 HD
HETATM   41  C   UNL     1      44.049 -10.317   9.812  1.00  0.00     0.261 C 
HETATM   42  C   UNL     1      42.749  -9.971  10.552  1.00  0.00     0.195 C 
HETATM   43  O   UNL     1      42.050  -8.910   9.889  1.00  0.00    -0.388 OA
HETATM   44  C   UNL     1      41.684  -9.270   8.551  1.00  0.00     0.195 C 
HETATM   45  C   UNL     1      42.923  -9.586   7.706  1.00  0.00     0.261 C 
ENDBRANCH  38  39
ENDBRANCH  37  38
ENDBRANCH   2  37
TORSDOF 13
ENDMDL
MODEL 6
REMARK VINA RESULT:      -8.3      3.253      7.046
REMARK  13 active torsions:
REMARK  status: ('A' for Active; 'I' for Inactive)
REMARK    1  A    between atoms: C_2  and  O_3 
REMARK    2  A    between atoms: O_3  and  C_4 
REMARK    3  A    between atoms: C_5  and  O_6 
REMARK    4  A    between atoms: C_9  and  C_10 
REMARK    5  A    between atoms: N_11  and  C_12 
REMARK    6  A    between atoms: C_12  and  C_13 
REMARK    7  A    between atoms: C_13  and  N_14 
REMARK    8  A    between atoms: C_23  and  O_24 
REMARK    9  A    between atoms: C_25  and  C_26 
REMARK   10  A    between atoms: C_26  and  C_27 
REMARK   11  A    between atoms: C_31  and  O_32 
REMARK   12  A    between atoms: O_32  and  C_33 
REMARK   13  A    between atoms: C_33  and  C_34 
ROOT
HETATM    1  C   UNL     1      42.164 -13.195   4.677  1.00  0.00     0.161 A 
HETATM    2  N   UNL     1      42.316 -14.626   4.940  1.00  0.00    -0.332 N 
HETATM    3  C   UNL     1      41.263 -15.117   5.665  1.00  0.00     0.278 A 
HETATM    4  O   UNL     1      41.195 -16.218   6.184  1.00  0.00    -0.265 OA
HETATM    5  C   UNL     1      40.275 -14.041   5.825  1.00  0.00     0.146 A 
HETATM    6  C   UNL     1      40.798 -12.946   5.256  1.00  0.00     0.059 A 
ENDROOT
BRANCH   6   7
HETATM    7  C   UNL     1      40.180 -11.609   5.114  1.00  0.00     0.194 C 
HETATM    8  O   UNL     1      39.739 -11.230   4.037  1.00  0.00    -0.287 OA
BRANCH   7   9
HETATM    9  C   UNL     1      40.082 -10.750   6.309  1.00  0.00     0.021 A 
HETATM   10  C   UNL     1      40.971  -9.684   6.513  1.00  0.00    -0.045 A 
HETATM   11  C   UNL     1      41.957  -9.249   5.470  1.00  0.00     0.049 C 
HETATM   12  C   UNL     1      40.897  -8.987   7.729  1.00  0.00     0.044 A 
HETATM   13  C   UNL     1      39.980  -9.356   8.721  1.00  0.00     0.069 A 
HETATM   14  C   UNL     1      39.065 -10.378   8.472  1.00  0.00     0.038 A 
HETATM   15  C   UNL     1      39.112 -11.077   7.264  1.00  0.00     0.019 A 
BRANCH  13  16
HETATM   16  O   UNL     1      40.070  -8.637   9.881  1.00  0.00    -0.347 OA
BRANCH  16  17
HETATM   17  C   UNL     1      39.895  -9.373  11.092  1.00  0.00     0.214 C 
BRANCH  17  18
HETATM   18  C   UNL     1      40.908  -8.885  12.097  1.00  0.00    -0.034 A 
HETATM   19  C   UNL     1      40.723  -9.134  13.464  1.00  0.00     0.009 A 
HETATM   20  C   UNL     1      41.657  -8.683  14.399  1.00  0.00     0.001 A 
HETATM   21  C   UNL     1      42.780  -7.974  13.976  1.00  0.00     0.000 A 
HETATM   22  C   UNL     1      42.967  -7.707  12.621  1.00  0.00     0.001 A 
HETATM   23  C   UNL     1      42.033  -8.157  11.686  1.00  0.00     0.009 A 
ENDBRANCH  17  18
ENDBRANCH  16  17
ENDBRANCH  13  16
ENDBRANCH   7   9
ENDBRANCH   6   7
BRANCH   1  24
HETATM   24  C   UNL     1      43.313 -12.437   5.319  1.00  0.00    -0.028 A 
HETATM   25  C   UNL     1      44.332 -11.921   4.494  1.00  0.00     0.012 A 
HETATM   26  C   UNL     1      45.463 -11.322   5.047  1.00  0.00     0.040 A 
HETATM   27  C   UNL     1      45.574 -11.219   6.424  1.00  0.00     0.099 A 
HETATM   28  C   UNL     1      44.563 -11.680   7.268  1.00  0.00     0.102 A 
HETATM   29  C   UNL     1      43.446 -12.310   6.718  1.00  0.00     0.049 A 
BRANCH  27  30
HETATM   30  O   UNL     1      46.700 -10.643   6.939  1.00  0.00    -0.358 OA
HETATM   31  H   UNL     1      46.418 -10.160   7.739  1.00  0.00     0.218 HD
ENDBRANCH  27  30
BRANCH  28  32
HETATM   32  O   UNL     1      44.785 -11.528   8.611  1.00  0.00    -0.349 OA
BRANCH  32  33
HETATM   33  C   UNL     1      44.146 -10.394   9.206  1.00  0.00     0.171 C 
HETATM   34  C   UNL     1      44.969  -9.968  10.408  1.00  0.00     0.034 C 
ENDBRANCH  32  33
ENDBRANCH  28  32
ENDBRANCH   1  24
BRANCH   5  35
HETATM   35  O   UNL     1      39.082 -14.213   6.453  1.00  0.00    -0.355 OA
HETATM   36  H   UNL     1      39.091 -13.668   7.265  1.00  0.00     0.218 HD
ENDBRANCH   5  35
BRANCH   2  37
HETATM   37  C   UNL     1      43.446 -15.425   4.464  1.00  0.00     0.155 C 
BRANCH  37  38
HETATM   38  C   UNL     1      43.161 -16.228   3.176  1.00  0.00     0.255 C 
BRANCH  38  39
HETATM   39  N   UNL     1      43.713 -17.637   3.252  1.00  0.00    -0.066 N 
HETATM   40  H   UNL     1      44.703 -17.597   2.966  1.00  0.00     0.280 HD
HETATM   41  C   UNL     1      43.759 -18.218   4.660  1.00  0.00     0.261 C 
HETATM   42  C   UNL     1      44.419 -19.603   4.608  1.00  0.00     0.195 C 
HETATM   43  O   UNL     1      43.711 -20.474   3.717  1.00  0.00    -0.388 OA
HETATM   44  C   UNL     1      43.700 -19.968   2.377  1.00  0.00     0.195 C 
HETATM   45  C   UNL     1      43.011 -18.601   2.309  1.00  0.00     0.261 C 
ENDBRANCH  38  39
ENDBRANCH  37  38
ENDBRANCH   2  37
TORSDOF 13
ENDMDL
MODEL 7
REMARK VINA RESULT:      -8.3      3.562      8.343
REMARK  13 active torsions:
REMARK  status: ('A' for Active; 'I' for Inactive)
REMARK    1  A    between atoms: C_2  and  O_3 
REMARK    2  A    between atoms: O_3  and  C_4 
REMARK    3  A    between atoms: C_5  and  O_6 
REMARK    4  A    between atoms: C_9  and  C_10 
REMARK    5  A    between atoms: N_11  and  C_12 
REMARK    6  A    between atoms: C_12  and  C_13 
REMARK    7  A    between atoms: C_13  and  N_14 
REMARK    8  A    between atoms: C_23  and  O_24 
REMARK    9  A    between atoms: C_25  and  C_26 
REMARK   10  A    between atoms: C_26  and  C_27 
REMARK   11  A    between atoms: C_31  and  O_32 
REMARK   12  A    between atoms: O_32  and  C_33 
REMARK   13  A    between atoms: C_33  and  C_34 
ROOT
HETATM    1  C   UNL     1      40.940 -10.722   6.924  1.00  0.00     0.161 A 
HETATM    2  N   UNL     1      39.545 -10.337   7.137  1.00  0.00    -0.332 N 
HETATM    3  C   UNL     1      38.897 -10.123   5.949  1.00  0.00     0.278 A 
HETATM    4  O   UNL     1      37.794  -9.623   5.809  1.00  0.00    -0.265 OA
HETATM    5  C   UNL     1      39.813 -10.478   4.856  1.00  0.00     0.146 A 
HETATM    6  C   UNL     1      40.978 -10.821   5.423  1.00  0.00     0.059 A 
ENDROOT
BRANCH   6   7
HETATM    7  C   UNL     1      42.210 -11.298   4.756  1.00  0.00     0.194 C 
HETATM    8  O   UNL     1      42.905 -10.537   4.096  1.00  0.00    -0.287 OA
BRANCH   7   9
HETATM    9  C   UNL     1      42.598 -12.711   4.925  1.00  0.00     0.021 A 
HETATM   10  C   UNL     1      42.128 -13.704   4.053  1.00  0.00    -0.045 A 
HETATM   11  C   UNL     1      41.348 -13.382   2.813  1.00  0.00     0.049 C 
HETATM   12  C   UNL     1      42.439 -15.041   4.348  1.00  0.00     0.044 A 
HETATM   13  C   UNL     1      43.177 -15.380   5.488  1.00  0.00     0.069 A 
HETATM   14  C   UNL     1      43.686 -14.373   6.307  1.00  0.00     0.038 A 
HETATM   15  C   UNL     1      43.400 -13.035   6.026  1.00  0.00     0.019 A 
BRANCH  13  16
HETATM   16  O   UNL     1      43.341 -16.723   5.688  1.00  0.00    -0.347 OA
BRANCH  16  17
HETATM   17  C   UNL     1      44.540 -17.294   5.165  1.00  0.00     0.214 C 
BRANCH  17  18
HETATM   18  C   UNL     1      44.168 -18.442   4.261  1.00  0.00    -0.034 A 
HETATM   19  C   UNL     1      43.681 -18.196   2.969  1.00  0.00     0.009 A 
HETATM   20  C   UNL     1      43.333 -19.255   2.129  1.00  0.00     0.001 A 
HETATM   21  C   UNL     1      43.463 -20.569   2.575  1.00  0.00     0.000 A 
HETATM   22  C   UNL     1      43.931 -20.826   3.861  1.00  0.00     0.001 A 
HETATM   23  C   UNL     1      44.279 -19.768   4.702  1.00  0.00     0.009 A 
ENDBRANCH  17  18
ENDBRANCH  16  17
ENDBRANCH  13  16
ENDBRANCH   7   9
ENDBRANCH   6   7
BRANCH   1  24
HETATM   24  C   UNL     1      41.854  -9.685   7.552  1.00  0.00    -0.028 A 
HETATM   25  C   UNL     1      41.819  -8.364   7.065  1.00  0.00     0.012 A 
HETATM   26  C   UNL     1      42.722  -7.408   7.529  1.00  0.00     0.040 A 
HETATM   27  C   UNL     1      43.649  -7.761   8.496  1.00  0.00     0.099 A 
HETATM   28  C   UNL     1      43.682  -9.048   9.032  1.00  0.00     0.102 A 
HETATM   29  C   UNL     1      42.802 -10.016   8.544  1.00  0.00     0.049 A 
BRANCH  27  30
HETATM   30  O   UNL     1      44.532  -6.809   8.920  1.00  0.00    -0.358 OA
HETATM   31  H   UNL     1      44.131  -5.946   8.698  1.00  0.00     0.218 HD
ENDBRANCH  27  30
BRANCH  28  32
HETATM   32  O   UNL     1      44.645  -9.281   9.978  1.00  0.00    -0.349 OA
BRANCH  32  33
HETATM   33  C   UNL     1      44.157  -9.772  11.231  1.00  0.00     0.171 C 
HETATM   34  C   UNL     1      43.550  -8.604  11.987  1.00  0.00     0.034 C 
ENDBRANCH  32  33
ENDBRANCH  28  32
ENDBRANCH   1  24
BRANCH   5  35
HETATM   35  O   UNL     1      39.461 -10.431   3.545  1.00  0.00    -0.355 OA
HETATM   36  H   UNL     1      40.043  -9.782   3.102  1.00  0.00     0.218 HD
ENDBRANCH   5  35
BRANCH   2  37
HETATM   37  C   UNL     1      38.927 -10.217   8.458  1.00  0.00     0.155 C 
BRANCH  37  38
HETATM   38  C   UNL     1      38.999  -8.800   9.069  1.00  0.00     0.255 C 
BRANCH  38  39
HETATM   39  N   UNL     1      38.966  -8.833  10.583  1.00  0.00    -0.066 N 
HETATM   40  H   UNL     1      38.053  -9.222  10.865  1.00  0.00     0.280 HD
HETATM   41  C   UNL     1      39.981  -9.780  11.213  1.00  0.00     0.261 C 
HETATM   42  C   UNL     1      39.780  -9.787  12.735  1.00  0.00     0.195 C 
HETATM   43  O   UNL     1      39.910  -8.465  13.273  1.00  0.00    -0.388 OA
HETATM   44  C   UNL     1      38.931  -7.572  12.730  1.00  0.00     0.195 C 
HETATM   45  C   UNL     1      39.078  -7.452  11.209  1.00  0.00     0.261 C 
ENDBRANCH  38  39
ENDBRANCH  37  38
ENDBRANCH   2  37
TORSDOF 13
ENDMDL
MODEL 8
REMARK VINA RESULT:      -8.2      3.088      7.664
REMARK  13 active torsions:
REMARK  status: ('A' for Active; 'I' for Inactive)
REMARK    1  A    between atoms: C_2  and  O_3 
REMARK    2  A    between atoms: O_3  and  C_4 
REMARK    3  A    between atoms: C_5  and  O_6 
REMARK    4  A    between atoms: C_9  and  C_10 
REMARK    5  A    between atoms: N_11  and  C_12 
REMARK    6  A    between atoms: C_12  and  C_13 
REMARK    7  A    between atoms: C_13  and  N_14 
REMARK    8  A    between atoms: C_23  and  O_24 
REMARK    9  A    between atoms: C_25  and  C_26 
REMARK   10  A    between atoms: C_26  and  C_27 
REMARK   11  A    between atoms: C_31  and  O_32 
REMARK   12  A    between atoms: O_32  and  C_33 
REMARK   13  A    between atoms: C_33  and  C_34 
ROOT
HETATM    1  C   UNL     1      40.402 -11.012   5.078  1.00  0.00     0.161 A 
HETATM    2  N   UNL     1      40.130 -10.037   6.135  1.00  0.00    -0.332 N 
HETATM    3  C   UNL     1      40.616  -8.797   5.809  1.00  0.00     0.278 A 
HETATM    4  O   UNL     1      40.699  -7.837   6.556  1.00  0.00    -0.265 OA
HETATM    5  C   UNL     1      41.142  -8.856   4.439  1.00  0.00     0.146 A 
HETATM    6  C   UNL     1      41.015 -10.125   4.028  1.00  0.00     0.059 A 
ENDROOT
BRANCH   6   7
HETATM    7  C   UNL     1      41.359 -10.694   2.706  1.00  0.00     0.194 C 
HETATM    8  O   UNL     1      41.500  -9.973   1.727  1.00  0.00    -0.287 OA
BRANCH   7   9
HETATM    9  C   UNL     1      41.556 -12.151   2.598  1.00  0.00     0.021 A 
HETATM   10  C   UNL     1      40.477 -13.015   2.355  1.00  0.00    -0.045 A 
HETATM   11  C   UNL     1      39.102 -12.512   2.028  1.00  0.00     0.049 C 
HETATM   12  C   UNL     1      40.719 -14.397   2.387  1.00  0.00     0.044 A 
HETATM   13  C   UNL     1      41.992 -14.904   2.674  1.00  0.00     0.069 A 
HETATM   14  C   UNL     1      43.062 -14.028   2.851  1.00  0.00     0.038 A 
HETATM   15  C   UNL     1      42.847 -12.648   2.811  1.00  0.00     0.019 A 
BRANCH  13  16
HETATM   16  O   UNL     1      42.064 -16.268   2.744  1.00  0.00    -0.347 OA
BRANCH  16  17
HETATM   17  C   UNL     1      43.225 -16.866   2.167  1.00  0.00     0.214 C 
BRANCH  17  18
HETATM   18  C   UNL     1      43.504 -18.161   2.889  1.00  0.00    -0.034 A 
HETATM   19  C   UNL     1      43.348 -19.387   2.227  1.00  0.00     0.009 A 
HETATM   20  C   UNL     1      43.603 -20.587   2.891  1.00  0.00     0.001 A 
HETATM   21  C   UNL     1      44.010 -20.574   4.224  1.00  0.00     0.000 A 
HETATM   22  C   UNL     1      44.154 -19.363   4.897  1.00  0.00     0.001 A 
HETATM   23  C   UNL     1      43.898 -18.162   4.234  1.00  0.00     0.009 A 
ENDBRANCH  17  18
ENDBRANCH  16  17
ENDBRANCH  13  16
ENDBRANCH   7   9
ENDBRANCH   6   7
BRANCH   1  24
HETATM   24  C   UNL     1      41.289 -12.117   5.625  1.00  0.00    -0.028 A 
HETATM   25  C   UNL     1      40.743 -13.403   5.800  1.00  0.00     0.012 A 
HETATM   26  C   UNL     1      41.483 -14.416   6.407  1.00  0.00     0.040 A 
HETATM   27  C   UNL     1      42.779 -14.156   6.823  1.00  0.00     0.099 A 
HETATM   28  C   UNL     1      43.366 -12.906   6.625  1.00  0.00     0.102 A 
HETATM   29  C   UNL     1      42.615 -11.881   6.048  1.00  0.00     0.049 A 
BRANCH  27  30
HETATM   30  O   UNL     1      43.475 -15.162   7.430  1.00  0.00    -0.358 OA
HETATM   31  H   UNL     1      43.321 -15.963   6.893  1.00  0.00     0.218 HD
ENDBRANCH  27  30
BRANCH  28  32
HETATM   32  O   UNL     1      44.649 -12.766   7.081  1.00  0.00    -0.349 OA
BRANCH  32  33
HETATM   33  C   UNL     1      45.332 -11.596   6.619  1.00  0.00     0.171 C 
HETATM   34  C   UNL     1      45.771 -10.798   7.833  1.00  0.00     0.034 C 
ENDBRANCH  32  33
ENDBRANCH  28  32
ENDBRANCH   1  24
BRANCH   5  35
HETATM   35  O   UNL     1      41.650  -7.775   3.790  1.00  0.00    -0.355 OA
HETATM   36  H   UNL     1      42.299  -8.099   3.134  1.00  0.00     0.218 HD
ENDBRANCH   5  35
BRANCH   2  37
HETATM   37  C   UNL     1      39.412 -10.354   7.369  1.00  0.00     0.155 C 
BRANCH  37  38
HETATM   38  C   UNL     1      39.500  -9.260   8.456  1.00  0.00     0.255 C 
BRANCH  38  39
HETATM   39  N   UNL     1      40.332  -9.703   9.641  1.00  0.00    -0.066 N 
HETATM   40  H   UNL     1      40.488 -10.718   9.549  1.00  0.00     0.280 HD
HETATM   41  C   UNL     1      41.739  -9.116   9.676  1.00  0.00     0.261 C 
HETATM   42  C   UNL     1      42.501  -9.713  10.867  1.00  0.00     0.195 C 
HETATM   43  O   UNL     1      41.809  -9.458  12.096  1.00  0.00    -0.388 OA
HETATM   44  C   UNL     1      40.503 -10.046  12.102  1.00  0.00     0.195 C 
HETATM   45  C   UNL     1      39.636  -9.475  10.974  1.00  0.00     0.261 C 
ENDBRANCH  38  39
ENDBRANCH  37  38
ENDBRANCH   2  37
TORSDOF 13
ENDMDL
MODEL 9
REMARK VINA RESULT:      -8.1      4.980      9.933
REMARK  13 active torsions:
REMARK  status: ('A' for Active; 'I' for Inactive)
REMARK    1  A    between atoms: C_2  and  O_3 
REMARK    2  A    between atoms: O_3  and  C_4 
REMARK    3  A    between atoms: C_5  and  O_6 
REMARK    4  A    between atoms: C_9  and  C_10 
REMARK    5  A    between atoms: N_11  and  C_12 
REMARK    6  A    between atoms: C_12  and  C_13 
REMARK    7  A    between atoms: C_13  and  N_14 
REMARK    8  A    between atoms: C_23  and  O_24 
REMARK    9  A    between atoms: C_25  and  C_26 
REMARK   10  A    between atoms: C_26  and  C_27 
REMARK   11  A    between atoms: C_31  and  O_32 
REMARK   12  A    between atoms: O_32  and  C_33 
REMARK   13  A    between atoms: C_33  and  C_34 
ROOT
HETATM    1  C   UNL     1      42.889  -7.684  10.335  1.00  0.00     0.161 A 
HETATM    2  N   UNL     1      42.581  -8.076  11.710  1.00  0.00    -0.332 N 
HETATM    3  C   UNL     1      43.131  -9.292  12.019  1.00  0.00     0.278 A 
HETATM    4  O   UNL     1      42.901  -9.955  13.016  1.00  0.00    -0.265 OA
HETATM    5  C   UNL     1      43.952  -9.727  10.881  1.00  0.00     0.146 A 
HETATM    6  C   UNL     1      43.809  -8.801   9.922  1.00  0.00     0.059 A 
ENDROOT
BRANCH   6   7
HETATM    7  C   UNL     1      44.462  -8.754   8.595  1.00  0.00     0.194 C 
HETATM    8  O   UNL     1      45.208  -7.833   8.292  1.00  0.00    -0.287 OA
BRANCH   7   9
HETATM    9  C   UNL     1      44.213  -9.859   7.651  1.00  0.00     0.021 A 
HETATM   10  C   UNL     1      45.254 -10.698   7.223  1.00  0.00    -0.045 A 
HETATM   11  C   UNL     1      46.631 -10.634   7.812  1.00  0.00     0.049 C 
HETATM   12  C   UNL     1      44.967 -11.649   6.231  1.00  0.00     0.044 A 
HETATM   13  C   UNL     1      43.689 -11.747   5.668  1.00  0.00     0.069 A 
HETATM   14  C   UNL     1      42.656 -10.947   6.153  1.00  0.00     0.038 A 
HETATM   15  C   UNL     1      42.915 -10.002   7.148  1.00  0.00     0.019 A 
BRANCH  13  16
HETATM   16  O   UNL     1      43.574 -12.667   4.662  1.00  0.00    -0.347 OA
BRANCH  16  17
HETATM   17  C   UNL     1      42.619 -13.708   4.869  1.00  0.00     0.214 C 
BRANCH  17  18
HETATM   18  C   UNL     1      42.843 -14.775   3.827  1.00  0.00    -0.034 A 
HETATM   19  C   UNL     1      42.695 -16.129   4.158  1.00  0.00     0.009 A 
HETATM   20  C   UNL     1      42.903 -17.120   3.197  1.00  0.00     0.001 A 
HETATM   21  C   UNL     1      43.266 -16.767   1.899  1.00  0.00     0.000 A 
HETATM   22  C   UNL     1      43.430 -15.426   1.561  1.00  0.00     0.001 A 
HETATM   23  C   UNL     1      43.224 -14.434   2.522  1.00  0.00     0.009 A 
ENDBRANCH  17  18
ENDBRANCH  16  17
ENDBRANCH  13  16
ENDBRANCH   7   9
ENDBRANCH   6   7
BRANCH   1  24
HETATM   24  C   UNL     1      41.598  -7.550   9.545  1.00  0.00    -0.028 A 
HETATM   25  C   UNL     1      41.184  -6.269   9.132  1.00  0.00     0.012 A 
HETATM   26  C   UNL     1      39.951  -6.085   8.508  1.00  0.00     0.040 A 
HETATM   27  C   UNL     1      39.135  -7.180   8.277  1.00  0.00     0.099 A 
HETATM   28  C   UNL     1      39.534  -8.469   8.633  1.00  0.00     0.102 A 
HETATM   29  C   UNL     1      40.753  -8.651   9.288  1.00  0.00     0.049 A 
BRANCH  27  30
HETATM   30  O   UNL     1      37.925  -6.968   7.680  1.00  0.00    -0.358 OA
HETATM   31  H   UNL     1      37.905  -6.024   7.431  1.00  0.00     0.218 HD
ENDBRANCH  27  30
BRANCH  28  32
HETATM   32  O   UNL     1      38.643  -9.472   8.359  1.00  0.00    -0.349 OA
BRANCH  32  33
HETATM   33  C   UNL     1      39.137 -10.501   7.496  1.00  0.00     0.171 C 
HETATM   34  C   UNL     1      38.831 -10.099   6.064  1.00  0.00     0.034 C 
ENDBRANCH  32  33
ENDBRANCH  28  32
ENDBRANCH   1  24
BRANCH   5  35
HETATM   35  O   UNL     1      44.682 -10.874  10.884  1.00  0.00    -0.355 OA
HETATM   36  H   UNL     1      45.413 -10.760  11.523  1.00  0.00     0.218 HD
ENDBRANCH   5  35
BRANCH   2  37
HETATM   37  C   UNL     1      41.799  -7.255  12.635  1.00  0.00     0.155 C 
BRANCH  37  38
HETATM   38  C   UNL     1      40.399  -7.820  12.960  1.00  0.00     0.255 C 
BRANCH  38  39
HETATM   39  N   UNL     1      39.379  -6.721  13.175  1.00  0.00    -0.066 N 
HETATM   40  H   UNL     1      38.858  -6.946  14.036  1.00  0.00     0.280 HD
HETATM   41  C   UNL     1      39.983  -5.350  13.456  1.00  0.00     0.261 C 
HETATM   42  C   UNL     1      38.851  -4.354  13.744  1.00  0.00     0.195 C 
HETATM   43  O   UNL     1      37.932  -4.294  12.646  1.00  0.00    -0.388 OA
HETATM   44  C   UNL     1      37.315  -5.563  12.399  1.00  0.00     0.195 C 
HETATM   45  C   UNL     1      38.363  -6.626  12.048  1.00  0.00     0.261 C 
ENDBRANCH  38  39
ENDBRANCH  37  38
ENDBRANCH   2  37
TORSDOF 13
ENDMDL
MODEL 10
REMARK VINA RESULT:      -7.9      5.111     10.191
REMARK  13 active torsions:
REMARK  status: ('A' for Active; 'I' for Inactive)
REMARK    1  A    between atoms: C_2  and  O_3 
REMARK    2  A    between atoms: O_3  and  C_4 
REMARK    3  A    between atoms: C_5  and  O_6 
REMARK    4  A    between atoms: C_9  and  C_10 
REMARK    5  A    between atoms: N_11  and  C_12 
REMARK    6  A    between atoms: C_12  and  C_13 
REMARK    7  A    between atoms: C_13  and  N_14 
REMARK    8  A    between atoms: C_23  and  O_24 
REMARK    9  A    between atoms: C_25  and  C_26 
REMARK   10  A    between atoms: C_26  and  C_27 
REMARK   11  A    between atoms: C_31  and  O_32 
REMARK   12  A    between atoms: O_32  and  C_33 
REMARK   13  A    between atoms: C_33  and  C_34 
ROOT
HETATM    1  C   UNL     1      42.795  -7.542  10.308  1.00  0.00     0.161 A 
HETATM    2  N   UNL     1      42.449  -7.851  11.695  1.00  0.00    -0.332 N 
HETATM    3  C   UNL     1      42.990  -9.046  12.092  1.00  0.00     0.278 A 
HETATM    4  O   UNL     1      42.733  -9.648  13.120  1.00  0.00    -0.265 OA
HETATM    5  C   UNL     1      43.841  -9.548  11.004  1.00  0.00     0.146 A 
HETATM    6  C   UNL     1      43.725  -8.681   9.989  1.00  0.00     0.059 A 
ENDROOT
BRANCH   6   7
HETATM    7  C   UNL     1      44.414  -8.713   8.680  1.00  0.00     0.194 C 
HETATM    8  O   UNL     1      45.086  -7.764   8.298  1.00  0.00    -0.287 OA
BRANCH   7   9
HETATM    9  C   UNL     1      44.294  -9.927   7.852  1.00  0.00     0.021 A 
HETATM   10  C   UNL     1      45.428 -10.652   7.455  1.00  0.00    -0.045 A 
HETATM   11  C   UNL     1      46.801 -10.343   7.973  1.00  0.00     0.049 C 
HETATM   12  C   UNL     1      45.247 -11.725   6.569  1.00  0.00     0.044 A 
HETATM   13  C   UNL     1      43.979 -12.052   6.075  1.00  0.00     0.069 A 
HETATM   14  C   UNL     1      42.859 -11.358   6.531  1.00  0.00     0.038 A 
HETATM   15  C   UNL     1      43.013 -10.295   7.423  1.00  0.00     0.019 A 
BRANCH  13  16
HETATM   16  O   UNL     1      43.963 -13.072   5.164  1.00  0.00    -0.347 OA
BRANCH  16  17
HETATM   17  C   UNL     1      42.863 -13.085   4.253  1.00  0.00     0.214 C 
BRANCH  17  18
HETATM   18  C   UNL     1      42.862 -14.404   3.524  1.00  0.00    -0.034 A 
HETATM   19  C   UNL     1      43.282 -14.474   2.188  1.00  0.00     0.009 A 
HETATM   20  C   UNL     1      43.282 -15.693   1.509  1.00  0.00     0.001 A 
HETATM   21  C   UNL     1      42.856 -16.852   2.156  1.00  0.00     0.000 A 
HETATM   22  C   UNL     1      42.422 -16.793   3.478  1.00  0.00     0.001 A 
HETATM   23  C   UNL     1      42.421 -15.574   4.158  1.00  0.00     0.009 A 
ENDBRANCH  17  18
ENDBRANCH  16  17
ENDBRANCH  13  16
ENDBRANCH   7   9
ENDBRANCH   6   7
BRANCH   1  24
HETATM   24  C   UNL     1      41.526  -7.457   9.476  1.00  0.00    -0.028 A 
HETATM   25  C   UNL     1      41.100  -6.197   9.014  1.00  0.00     0.012 A 
HETATM   26  C   UNL     1      39.882  -6.056   8.349  1.00  0.00     0.040 A 
HETATM   27  C   UNL     1      39.095  -7.175   8.125  1.00  0.00     0.099 A 
HETATM   28  C   UNL     1      39.509  -8.444   8.531  1.00  0.00     0.102 A 
HETATM   29  C   UNL     1      40.711  -8.582   9.227  1.00  0.00     0.049 A 
BRANCH  27  30
HETATM   30  O   UNL     1      37.901  -7.005   7.487  1.00  0.00    -0.358 OA
HETATM   31  H   UNL     1      37.275  -6.675   8.161  1.00  0.00     0.218 HD
ENDBRANCH  27  30
BRANCH  28  32
HETATM   32  O   UNL     1      38.647  -9.472   8.260  1.00  0.00    -0.349 OA
BRANCH  32  33
HETATM   33  C   UNL     1      39.187 -10.516   7.442  1.00  0.00     0.171 C 
HETATM   34  C   UNL     1      38.702 -10.296   6.021  1.00  0.00     0.034 C 
ENDBRANCH  32  33
ENDBRANCH  28  32
ENDBRANCH   1  24
BRANCH   5  35
HETATM   35  O   UNL     1      44.571 -10.691  11.097  1.00  0.00    -0.355 OA
HETATM   36  H   UNL     1      44.812 -10.965  10.190  1.00  0.00     0.218 HD
ENDBRANCH   5  35
BRANCH   2  37
HETATM   37  C   UNL     1      41.642  -6.977  12.547  1.00  0.00     0.155 C 
BRANCH  37  38
HETATM   38  C   UNL     1      42.462  -6.113  13.530  1.00  0.00     0.255 C 
BRANCH  38  39
HETATM   39  N   UNL     1      41.762  -5.950  14.863  1.00  0.00    -0.066 N 
HETATM   40  H   UNL     1      41.882  -4.969  15.159  1.00  0.00     0.280 HD
HETATM   41  C   UNL     1      40.249  -6.135  14.804  1.00  0.00     0.261 C 
HETATM   42  C   UNL     1      39.657  -5.855  16.193  1.00  0.00     0.195 C 
HETATM   43  O   UNL     1      40.241  -6.714  17.180  1.00  0.00    -0.388 OA
HETATM   44  C   UNL     1      41.656  -6.518  17.285  1.00  0.00     0.195 C 
HETATM   45  C   UNL     1      42.355  -6.825  15.956  1.00  0.00     0.261 C 
ENDBRANCH  38  39
ENDBRANCH  37  38
ENDBRANCH   2  37
TORSDOF 13
ENDMDL
