MODEL 1
REMARK VINA RESULT:      -9.4      0.000      0.000
REMARK  6 active torsions:
REMARK  status: ('A' for Active; 'I' for Inactive)
REMARK    1  A    between atoms: O_2  and  C_3 
REMARK    2  A    between atoms: C_5  and  N_6 
REMARK    3  A    between atoms: C_7  and  C_9 
REMARK    4  A    between atoms: C_7  and  O_8 
REMARK       I    between atoms: C_9  and  N_10 
REMARK    5  A    between atoms: N_10  and  C_11 
REMARK    6  A    between atoms: C_11  and  C_12 
ROOT
HETATM    1  N   UNL     1      40.262 -13.490   3.823  1.00  0.00    -0.254 N 
HETATM    2  C   UNL     1      40.148 -14.144   2.503  1.00  0.00     0.256 C 
HETATM    3  C   UNL     1      39.640 -13.242   1.390  1.00  0.00     0.034 A 
HETATM    4  C   UNL     1      39.050 -12.034   1.721  1.00  0.00     0.048 A 
HETATM    5  N   UNL     1      38.977 -11.671   3.052  1.00  0.00    -0.308 N 
HETATM    6  C   UNL     1      39.524 -12.346   4.099  1.00  0.00     0.330 C 
HETATM    7  O   UNL     1      39.337 -11.855   5.214  1.00  0.00    -0.246 OA
HETATM    8  C   UNL     1      39.678 -13.612   0.031  1.00  0.00     0.015 A 
HETATM    9  C   UNL     1      39.160 -12.767  -0.954  1.00  0.00     0.001 A 
HETATM   10  C   UNL     1      38.577 -11.555  -0.596  1.00  0.00     0.002 A 
HETATM   11  C   UNL     1      38.515 -11.189   0.747  1.00  0.00     0.030 A 
HETATM   12  H   UNL     1      38.487 -10.828   3.322  1.00  0.00     0.170 HD
ENDROOT
BRANCH   2  13
HETATM   13  C   UNL     1      41.556 -14.726   2.047  1.00  0.00     0.279 C 
HETATM   14  N   UNL     1      41.699 -16.097   2.087  1.00  0.00    -0.352 N 
HETATM   15  H   UNL     1      40.865 -16.663   2.191  1.00  0.00     0.162 HD
HETATM   16  O   UNL     1      42.489 -13.962   1.776  1.00  0.00    -0.268 OA
BRANCH  14  17
HETATM   17  C   UNL     1      42.906 -16.745   1.634  1.00  0.00     0.161 C 
BRANCH  17  18
HETATM   18  C   UNL     1      43.332 -17.821   2.597  1.00  0.00    -0.040 A 
HETATM   19  C   UNL     1      43.703 -17.506   3.911  1.00  0.00     0.010 A 
HETATM   20  C   UNL     1      44.083 -18.517   4.799  1.00  0.00     0.024 A 
HETATM   21  C   UNL     1      44.097 -19.843   4.375  1.00  0.00     0.034 A 
HETATM   22 CL   UNL     1      44.559 -21.087   5.472  1.00  0.00    -0.084 Cl
HETATM   23  C   UNL     1      43.740 -20.171   3.069  1.00  0.00     0.024 A 
HETATM   24  C   UNL     1      43.360 -19.162   2.182  1.00  0.00     0.010 A 
ENDBRANCH  17  18
ENDBRANCH  14  17
ENDBRANCH   2  13
BRANCH   2  25
HETATM   25  O   UNL     1      39.178 -15.188   2.608  1.00  0.00    -0.359 OA
HETATM   26  H   UNL     1      38.481 -14.948   1.968  1.00  0.00     0.213 HD
ENDBRANCH   2  25
BRANCH   1  27
HETATM   27  C   UNL     1      40.959 -14.164   4.906  1.00  0.00     0.045 A 
HETATM   28  C   UNL     1      42.216 -13.707   5.340  1.00  0.00     0.066 A 
HETATM   29  C   UNL     1      42.906 -14.336   6.381  1.00  0.00     0.070 A 
HETATM   30  C   UNL     1      42.385 -15.479   6.976  1.00  0.00     0.037 A 
HETATM   31  C   UNL     1      41.153 -15.963   6.553  1.00  0.00     0.005 A 
HETATM   32  C   UNL     1      40.446 -15.309   5.536  1.00  0.00     0.030 A 
BRANCH  29  33
HETATM   33  O   UNL     1      44.120 -13.803   6.720  1.00  0.00    -0.356 OA
HETATM   34  C   UNL     1      44.045 -12.413   7.039  1.00  0.00     0.210 C 
ENDBRANCH  29  33
ENDBRANCH   1  27
TORSDOF 6
ENDMDL
MODEL 2
REMARK VINA RESULT:      -9.0      3.203      6.812
REMARK  6 active torsions:
REMARK  status: ('A' for Active; 'I' for Inactive)
REMARK    1  A    between atoms: O_2  and  C_3 
REMARK    2  A    between atoms: C_5  and  N_6 
REMARK    3  A    between atoms: C_7  and  C_9 
REMARK    4  A    between atoms: C_7  and  O_8 
REMARK       I    between atoms: C_9  and  N_10 
REMARK    5  A    between atoms: N_10  and  C_11 
REMARK    6  A    between atoms: C_11  and  C_12 
ROOT
HETATM    1  N   UNL     1      42.932 -15.504   4.514  1.00  0.00    -0.254 N 
HETATM    2  C   UNL     1      42.833 -16.188   3.209  1.00  0.00     0.256 C 
HETATM    3  C   UNL     1      43.167 -17.671   3.242  1.00  0.00     0.034 A 
HETATM    4  C   UNL     1      43.811 -18.189   4.353  1.00  0.00     0.048 A 
HETATM    5  N   UNL     1      44.095 -17.348   5.412  1.00  0.00    -0.308 N 
HETATM    6  C   UNL     1      43.714 -16.046   5.527  1.00  0.00     0.330 C 
HETATM    7  O   UNL     1      44.077 -15.468   6.552  1.00  0.00    -0.246 OA
HETATM    8  C   UNL     1      42.913 -18.535   2.159  1.00  0.00     0.015 A 
HETATM    9  C   UNL     1      43.276 -19.883   2.220  1.00  0.00     0.001 A 
HETATM   10  C   UNL     1      43.917 -20.380   3.350  1.00  0.00     0.002 A 
HETATM   11  C   UNL     1      44.193 -19.531   4.418  1.00  0.00     0.030 A 
HETATM   12  H   UNL     1      44.628 -17.688   6.201  1.00  0.00     0.170 HD
ENDROOT
BRANCH   2  13
HETATM   13  C   UNL     1      41.367 -16.038   2.612  1.00  0.00     0.279 C 
HETATM   14  N   UNL     1      41.259 -15.408   1.390  1.00  0.00    -0.352 N 
HETATM   15  H   UNL     1      42.103 -15.271   0.847  1.00  0.00     0.162 HD
HETATM   16  O   UNL     1      40.384 -16.382   3.278  1.00  0.00    -0.268 OA
BRANCH  14  17
HETATM   17  C   UNL     1      39.989 -15.274   0.718  1.00  0.00     0.161 C 
BRANCH  17  18
HETATM   18  C   UNL     1      40.040 -14.174  -0.309  1.00  0.00    -0.040 A 
HETATM   19  C   UNL     1      39.423 -14.326  -1.559  1.00  0.00     0.010 A 
HETATM   20  C   UNL     1      39.467 -13.292  -2.497  1.00  0.00     0.024 A 
HETATM   21  C   UNL     1      40.131 -12.105  -2.194  1.00  0.00     0.034 A 
HETATM   22 CL   UNL     1      40.177 -10.831  -3.349  1.00  0.00    -0.084 Cl
HETATM   23  C   UNL     1      40.756 -11.943  -0.960  1.00  0.00     0.024 A 
HETATM   24  C   UNL     1      40.713 -12.976  -0.021  1.00  0.00     0.010 A 
ENDBRANCH  17  18
ENDBRANCH  14  17
ENDBRANCH   2  13
BRANCH   2  25
HETATM   25  O   UNL     1      43.800 -15.610   2.330  1.00  0.00    -0.359 OA
HETATM   26  H   UNL     1      43.319 -14.906   1.856  1.00  0.00     0.213 HD
ENDBRANCH   2  25
BRANCH   1  27
HETATM   27  C   UNL     1      42.410 -14.157   4.666  1.00  0.00     0.045 A 
HETATM   28  C   UNL     1      41.259 -13.920   5.439  1.00  0.00     0.066 A 
HETATM   29  C   UNL     1      40.737 -12.633   5.603  1.00  0.00     0.070 A 
HETATM   30  C   UNL     1      41.315 -11.554   4.946  1.00  0.00     0.037 A 
HETATM   31  C   UNL     1      42.443 -11.763   4.160  1.00  0.00     0.005 A 
HETATM   32  C   UNL     1      42.987 -13.047   4.029  1.00  0.00     0.030 A 
BRANCH  29  33
HETATM   33  O   UNL     1      39.614 -12.523   6.379  1.00  0.00    -0.356 OA
HETATM   34  C   UNL     1      39.245 -11.167   6.630  1.00  0.00     0.210 C 
ENDBRANCH  29  33
ENDBRANCH   1  27
TORSDOF 6
ENDMDL
MODEL 3
REMARK VINA RESULT:      -8.8      2.109      3.127
REMARK  6 active torsions:
REMARK  status: ('A' for Active; 'I' for Inactive)
REMARK    1  A    between atoms: O_2  and  C_3 
REMARK    2  A    between atoms: C_5  and  N_6 
REMARK    3  A    between atoms: C_7  and  C_9 
REMARK    4  A    between atoms: C_7  and  O_8 
REMARK       I    between atoms: C_9  and  N_10 
REMARK    5  A    between atoms: N_10  and  C_11 
REMARK    6  A    between atoms: C_11  and  C_12 
ROOT
HETATM    1  N   UNL     1      41.366 -11.893   3.849  1.00  0.00    -0.254 N 
HETATM    2  C   UNL     1      40.657 -13.189   3.899  1.00  0.00     0.256 C 
HETATM    3  C   UNL     1      40.438 -13.844   2.544  1.00  0.00     0.034 A 
HETATM    4  C   UNL     1      40.617 -13.090   1.397  1.00  0.00     0.048 A 
HETATM    5  N   UNL     1      41.025 -11.776   1.520  1.00  0.00    -0.308 N 
HETATM    6  C   UNL     1      41.376 -11.149   2.676  1.00  0.00     0.330 C 
HETATM    7  O   UNL     1      41.706  -9.967   2.569  1.00  0.00    -0.246 OA
HETATM    8  C   UNL     1      39.991 -15.172   2.403  1.00  0.00     0.015 A 
HETATM    9  C   UNL     1      39.762 -15.719   1.137  1.00  0.00     0.001 A 
HETATM   10  C   UNL     1      39.954 -14.941  -0.001  1.00  0.00     0.002 A 
HETATM   11  C   UNL     1      40.376 -13.620   0.128  1.00  0.00     0.030 A 
HETATM   12  H   UNL     1      41.092 -11.187   0.700  1.00  0.00     0.170 HD
ENDROOT
BRANCH   2  13
HETATM   13  C   UNL     1      41.450 -14.222   4.811  1.00  0.00     0.279 C 
HETATM   14  N   UNL     1      42.628 -14.722   4.297  1.00  0.00    -0.352 N 
HETATM   15  H   UNL     1      43.030 -14.261   3.489  1.00  0.00     0.162 HD
HETATM   16  O   UNL     1      40.962 -14.617   5.875  1.00  0.00    -0.268 OA
BRANCH  14  17
HETATM   17  C   UNL     1      43.468 -15.612   5.060  1.00  0.00     0.161 C 
BRANCH  17  18
HETATM   18  C   UNL     1      43.609 -16.942   4.367  1.00  0.00    -0.040 A 
HETATM   19  C   UNL     1      44.181 -18.040   5.024  1.00  0.00     0.010 A 
HETATM   20  C   UNL     1      44.293 -19.271   4.373  1.00  0.00     0.024 A 
HETATM   21  C   UNL     1      43.839 -19.409   3.063  1.00  0.00     0.034 A 
HETATM   22 CL   UNL     1      43.972 -20.928   2.266  1.00  0.00    -0.084 Cl
HETATM   23  C   UNL     1      43.277 -18.324   2.395  1.00  0.00     0.024 A 
HETATM   24  C   UNL     1      43.164 -17.094   3.044  1.00  0.00     0.010 A 
ENDBRANCH  17  18
ENDBRANCH  14  17
ENDBRANCH   2  13
BRANCH   2  25
HETATM   25  O   UNL     1      39.346 -12.957   4.416  1.00  0.00    -0.359 OA
HETATM   26  H   UNL     1      38.914 -12.381   3.758  1.00  0.00     0.213 HD
ENDBRANCH   2  25
BRANCH   1  27
HETATM   27  C   UNL     1      41.850 -11.287   5.077  1.00  0.00     0.045 A 
HETATM   28  C   UNL     1      43.199 -11.412   5.452  1.00  0.00     0.066 A 
HETATM   29  C   UNL     1      43.691 -10.836   6.628  1.00  0.00     0.070 A 
HETATM   30  C   UNL     1      42.833 -10.171   7.495  1.00  0.00     0.037 A 
HETATM   31  C   UNL     1      41.489 -10.050   7.158  1.00  0.00     0.005 A 
HETATM   32  C   UNL     1      41.007 -10.594   5.961  1.00  0.00     0.030 A 
BRANCH  29  33
HETATM   33  O   UNL     1      45.023 -11.021   6.889  1.00  0.00    -0.356 OA
HETATM   34  C   UNL     1      45.420 -10.481   8.149  1.00  0.00     0.210 C 
ENDBRANCH  29  33
ENDBRANCH   1  27
TORSDOF 6
ENDMDL
MODEL 4
REMARK VINA RESULT:      -8.5      3.364      7.111
REMARK  6 active torsions:
REMARK  status: ('A' for Active; 'I' for Inactive)
REMARK    1  A    between atoms: O_2  and  C_3 
REMARK    2  A    between atoms: C_5  and  N_6 
REMARK    3  A    between atoms: C_7  and  C_9 
REMARK    4  A    between atoms: C_7  and  O_8 
REMARK       I    between atoms: C_9  and  N_10 
REMARK    5  A    between atoms: N_10  and  C_11 
REMARK    6  A    between atoms: C_11  and  C_12 
ROOT
HETATM    1  N   UNL     1      42.213 -14.041   3.465  1.00  0.00    -0.254 N 
HETATM    2  C   UNL     1      42.413 -15.089   2.442  1.00  0.00     0.256 C 
HETATM    3  C   UNL     1      42.946 -16.407   2.980  1.00  0.00     0.034 A 
HETATM    4  C   UNL     1      43.480 -16.445   4.257  1.00  0.00     0.048 A 
HETATM    5  N   UNL     1      43.476 -15.289   5.015  1.00  0.00    -0.308 N 
HETATM    6  C   UNL     1      42.900 -14.105   4.671  1.00  0.00     0.330 C 
HETATM    7  O   UNL     1      43.016 -13.192   5.489  1.00  0.00    -0.246 OA
HETATM    8  C   UNL     1      42.986 -17.585   2.209  1.00  0.00     0.015 A 
HETATM    9  C   UNL     1      43.524 -18.764   2.732  1.00  0.00     0.001 A 
HETATM   10  C   UNL     1      44.050 -18.777   4.021  1.00  0.00     0.002 A 
HETATM   11  C   UNL     1      44.035 -17.612   4.784  1.00  0.00     0.030 A 
HETATM   12  H   UNL     1      43.925 -15.276   5.921  1.00  0.00     0.170 HD
ENDROOT
BRANCH   2  13
HETATM   13  C   UNL     1      41.048 -15.393   1.685  1.00  0.00     0.279 C 
HETATM   14  N   UNL     1      40.934 -14.908   0.399  1.00  0.00    -0.352 N 
HETATM   15  H   UNL     1      41.774 -14.582  -0.065  1.00  0.00     0.162 HD
HETATM   16  O   UNL     1      40.116 -15.947   2.277  1.00  0.00    -0.268 OA
BRANCH  14  17
HETATM   17  C   UNL     1      39.772 -15.179  -0.411  1.00  0.00     0.161 C 
BRANCH  17  18
HETATM   18  C   UNL     1      39.239 -13.912  -1.026  1.00  0.00    -0.040 A 
HETATM   19  C   UNL     1      38.631 -13.924  -2.288  1.00  0.00     0.010 A 
HETATM   20  C   UNL     1      38.129 -12.742  -2.841  1.00  0.00     0.024 A 
HETATM   21  C   UNL     1      38.237 -11.545  -2.137  1.00  0.00     0.034 A 
HETATM   22 CL   UNL     1      37.612 -10.093  -2.816  1.00  0.00    -0.084 Cl
HETATM   23  C   UNL     1      38.847 -11.516  -0.885  1.00  0.00     0.024 A 
HETATM   24  C   UNL     1      39.349 -12.697  -0.332  1.00  0.00     0.010 A 
ENDBRANCH  17  18
ENDBRANCH  14  17
ENDBRANCH   2  13
BRANCH   2  25
HETATM   25  O   UNL     1      43.410 -14.631   1.527  1.00  0.00    -0.359 OA
HETATM   26  H   UNL     1      42.959 -14.594   0.663  1.00  0.00     0.213 HD
ENDBRANCH   2  25
BRANCH   1  27
HETATM   27  C   UNL     1      41.487 -12.829   3.126  1.00  0.00     0.045 A 
HETATM   28  C   UNL     1      42.038 -11.892   2.235  1.00  0.00     0.066 A 
HETATM   29  C   UNL     1      41.359 -10.718   1.892  1.00  0.00     0.070 A 
HETATM   30  C   UNL     1      40.135 -10.420   2.479  1.00  0.00     0.037 A 
HETATM   31  C   UNL     1      39.577 -11.320   3.379  1.00  0.00     0.005 A 
HETATM   32  C   UNL     1      40.241 -12.513   3.692  1.00  0.00     0.030 A 
BRANCH  29  33
HETATM   33  O   UNL     1      41.991  -9.880   1.013  1.00  0.00    -0.356 OA
HETATM   34  C   UNL     1      41.118  -8.898   0.457  1.00  0.00     0.210 C 
ENDBRANCH  29  33
ENDBRANCH   1  27
TORSDOF 6
ENDMDL
MODEL 5
REMARK VINA RESULT:      -8.1      2.267      3.348
REMARK  6 active torsions:
REMARK  status: ('A' for Active; 'I' for Inactive)
REMARK    1  A    between atoms: O_2  and  C_3 
REMARK    2  A    between atoms: C_5  and  N_6 
REMARK    3  A    between atoms: C_7  and  C_9 
REMARK    4  A    between atoms: C_7  and  O_8 
REMARK       I    between atoms: C_9  and  N_10 
REMARK    5  A    between atoms: N_10  and  C_11 
REMARK    6  A    between atoms: C_11  and  C_12 
ROOT
HETATM    1  N   UNL     1      40.095 -11.374   1.934  1.00  0.00    -0.254 N 
HETATM    2  C   UNL     1      39.246 -12.298   1.154  1.00  0.00     0.256 C 
HETATM    3  C   UNL     1      39.045 -11.901  -0.300  1.00  0.00     0.034 A 
HETATM    4  C   UNL     1      39.382 -10.618  -0.698  1.00  0.00     0.048 A 
HETATM    5  N   UNL     1      39.924  -9.752   0.232  1.00  0.00    -0.308 N 
HETATM    6  C   UNL     1      40.264 -10.061   1.513  1.00  0.00     0.330 C 
HETATM    7  O   UNL     1      40.730  -9.138   2.184  1.00  0.00    -0.246 OA
HETATM    8  C   UNL     1      38.465 -12.761  -1.252  1.00  0.00     0.015 A 
HETATM    9  C   UNL     1      38.261 -12.337  -2.568  1.00  0.00     0.001 A 
HETATM   10  C   UNL     1      38.613 -11.044  -2.944  1.00  0.00     0.002 A 
HETATM   11  C   UNL     1      39.168 -10.178  -2.006  1.00  0.00     0.030 A 
HETATM   12  H   UNL     1      40.110  -8.790  -0.019  1.00  0.00     0.170 HD
ENDROOT
BRANCH   2  13
HETATM   13  C   UNL     1      39.858 -13.765   1.174  1.00  0.00     0.279 C 
HETATM   14  N   UNL     1      39.352 -14.632   2.118  1.00  0.00    -0.352 N 
HETATM   15  H   UNL     1      38.494 -14.375   2.594  1.00  0.00     0.162 HD
HETATM   16  O   UNL     1      40.809 -14.055   0.439  1.00  0.00    -0.268 OA
BRANCH  14  17
HETATM   17  C   UNL     1      39.779 -16.009   2.188  1.00  0.00     0.161 C 
BRANCH  17  18
HETATM   18  C   UNL     1      40.950 -16.160   3.123  1.00  0.00    -0.040 A 
HETATM   19  C   UNL     1      40.782 -16.050   4.511  1.00  0.00     0.010 A 
HETATM   20  C   UNL     1      41.875 -16.206   5.367  1.00  0.00     0.024 A 
HETATM   21  C   UNL     1      43.138 -16.467   4.842  1.00  0.00     0.034 A 
HETATM   22 CL   UNL     1      44.481 -16.666   5.900  1.00  0.00    -0.084 Cl
HETATM   23  C   UNL     1      43.322 -16.570   3.465  1.00  0.00     0.024 A 
HETATM   24  C   UNL     1      42.230 -16.415   2.608  1.00  0.00     0.010 A 
ENDBRANCH  17  18
ENDBRANCH  14  17
ENDBRANCH   2  13
BRANCH   2  25
HETATM   25  O   UNL     1      37.936 -12.286   1.726  1.00  0.00    -0.359 OA
HETATM   26  H   UNL     1      37.902 -11.469   2.258  1.00  0.00     0.213 HD
ENDBRANCH   2  25
BRANCH   1  27
HETATM   27  C   UNL     1      40.561 -11.761   3.255  1.00  0.00     0.045 A 
HETATM   28  C   UNL     1      39.701 -11.693   4.365  1.00  0.00     0.066 A 
HETATM   29  C   UNL     1      40.124 -12.061   5.646  1.00  0.00     0.070 A 
HETATM   30  C   UNL     1      41.440 -12.448   5.864  1.00  0.00     0.037 A 
HETATM   31  C   UNL     1      42.318 -12.505   4.787  1.00  0.00     0.005 A 
HETATM   32  C   UNL     1      41.881 -12.172   3.499  1.00  0.00     0.030 A 
BRANCH  29  33
HETATM   33  O   UNL     1      39.198 -11.957   6.649  1.00  0.00    -0.356 OA
HETATM   34  C   UNL     1      39.183 -10.666   7.257  1.00  0.00     0.210 C 
ENDBRANCH  29  33
ENDBRANCH   1  27
TORSDOF 6
ENDMDL
MODEL 6
REMARK VINA RESULT:      -8.1      3.226      6.181
REMARK  6 active torsions:
REMARK  status: ('A' for Active; 'I' for Inactive)
REMARK    1  A    between atoms: O_2  and  C_3 
REMARK    2  A    between atoms: C_5  and  N_6 
REMARK    3  A    between atoms: C_7  and  C_9 
REMARK    4  A    between atoms: C_7  and  O_8 
REMARK       I    between atoms: C_9  and  N_10 
REMARK    5  A    between atoms: N_10  and  C_11 
REMARK    6  A    between atoms: C_11  and  C_12 
ROOT
HETATM    1  N   UNL     1      41.037 -12.970   4.737  1.00  0.00    -0.254 N 
HETATM    2  C   UNL     1      42.127 -13.026   3.742  1.00  0.00     0.256 C 
HETATM    3  C   UNL     1      42.388 -14.407   3.163  1.00  0.00     0.034 A 
HETATM    4  C   UNL     1      41.844 -15.513   3.794  1.00  0.00     0.048 A 
HETATM    5  N   UNL     1      41.049 -15.321   4.908  1.00  0.00    -0.308 N 
HETATM    6  C   UNL     1      40.651 -14.122   5.413  1.00  0.00     0.330 C 
HETATM    7  O   UNL     1      39.947 -14.169   6.422  1.00  0.00    -0.246 OA
HETATM    8  C   UNL     1      43.221 -14.622   2.047  1.00  0.00     0.015 A 
HETATM    9  C   UNL     1      43.466 -15.915   1.576  1.00  0.00     0.001 A 
HETATM   10  C   UNL     1      42.902 -17.010   2.225  1.00  0.00     0.002 A 
HETATM   11  C   UNL     1      42.094 -16.811   3.342  1.00  0.00     0.030 A 
HETATM   12  H   UNL     1      40.701 -16.117   5.426  1.00  0.00     0.170 HD
ENDROOT
BRANCH   2  13
HETATM   13  C   UNL     1      41.822 -12.045   2.528  1.00  0.00     0.279 C 
HETATM   14  N   UNL     1      40.760 -12.381   1.715  1.00  0.00    -0.352 N 
HETATM   15  H   UNL     1      40.113 -13.090   2.041  1.00  0.00     0.162 HD
HETATM   16  O   UNL     1      42.575 -11.095   2.288  1.00  0.00    -0.268 OA
BRANCH  14  17
HETATM   17  C   UNL     1      40.345 -11.533   0.624  1.00  0.00     0.161 C 
BRANCH  17  18
HETATM   18  C   UNL     1      39.763 -12.350  -0.499  1.00  0.00    -0.040 A 
HETATM   19  C   UNL     1      39.046 -11.740  -1.538  1.00  0.00     0.010 A 
HETATM   20  C   UNL     1      38.524 -12.510  -2.581  1.00  0.00     0.024 A 
HETATM   21  C   UNL     1      38.711 -13.890  -2.588  1.00  0.00     0.034 A 
HETATM   22 CL   UNL     1      38.073 -14.834  -3.877  1.00  0.00    -0.084 Cl
HETATM   23  C   UNL     1      39.414 -14.511  -1.558  1.00  0.00     0.024 A 
HETATM   24  C   UNL     1      39.937 -13.743  -0.516  1.00  0.00     0.010 A 
ENDBRANCH  17  18
ENDBRANCH  14  17
ENDBRANCH   2  13
BRANCH   2  25
HETATM   25  O   UNL     1      43.344 -12.661   4.395  1.00  0.00    -0.359 OA
HETATM   26  H   UNL     1      43.281 -13.061   5.283  1.00  0.00     0.213 HD
ENDBRANCH   2  25
BRANCH   1  27
HETATM   27  C   UNL     1      40.528 -11.684   5.182  1.00  0.00     0.045 A 
HETATM   28  C   UNL     1      41.256 -10.906   6.099  1.00  0.00     0.066 A 
HETATM   29  C   UNL     1      40.789  -9.664   6.541  1.00  0.00     0.070 A 
HETATM   30  C   UNL     1      39.550  -9.193   6.126  1.00  0.00     0.037 A 
HETATM   31  C   UNL     1      38.800  -9.952   5.234  1.00  0.00     0.005 A 
HETATM   32  C   UNL     1      39.287 -11.178   4.763  1.00  0.00     0.030 A 
BRANCH  29  33
HETATM   33  O   UNL     1      41.584  -8.994   7.432  1.00  0.00    -0.356 OA
HETATM   34  C   UNL     1      42.849  -9.625   7.630  1.00  0.00     0.210 C 
ENDBRANCH  29  33
ENDBRANCH   1  27
TORSDOF 6
ENDMDL
MODEL 7
REMARK VINA RESULT:      -7.9      3.823      6.965
REMARK  6 active torsions:
REMARK  status: ('A' for Active; 'I' for Inactive)
REMARK    1  A    between atoms: O_2  and  C_3 
REMARK    2  A    between atoms: C_5  and  N_6 
REMARK    3  A    between atoms: C_7  and  C_9 
REMARK    4  A    between atoms: C_7  and  O_8 
REMARK       I    between atoms: C_9  and  N_10 
REMARK    5  A    between atoms: N_10  and  C_11 
REMARK    6  A    between atoms: C_11  and  C_12 
ROOT
HETATM    1  N   UNL     1      40.649 -12.847   4.379  1.00  0.00    -0.254 N 
HETATM    2  C   UNL     1      41.685 -13.743   4.933  1.00  0.00     0.256 C 
HETATM    3  C   UNL     1      42.000 -14.958   4.075  1.00  0.00     0.034 A 
HETATM    4  C   UNL     1      41.130 -15.301   3.053  1.00  0.00     0.048 A 
HETATM    5  N   UNL     1      40.024 -14.505   2.824  1.00  0.00    -0.308 N 
HETATM    6  C   UNL     1      39.738 -13.330   3.447  1.00  0.00     0.330 C 
HETATM    7  O   UNL     1      38.693 -12.776   3.100  1.00  0.00    -0.246 OA
HETATM    8  C   UNL     1      43.105 -15.796   4.316  1.00  0.00     0.015 A 
HETATM    9  C   UNL     1      43.330 -16.927   3.526  1.00  0.00     0.001 A 
HETATM   10  C   UNL     1      42.444 -17.248   2.502  1.00  0.00     0.002 A 
HETATM   11  C   UNL     1      41.336 -16.437   2.268  1.00  0.00     0.030 A 
HETATM   12  H   UNL     1      39.339 -14.777   2.131  1.00  0.00     0.170 HD
ENDROOT
BRANCH   2  13
HETATM   13  C   UNL     1      43.044 -12.947   5.158  1.00  0.00     0.279 C 
HETATM   14  N   UNL     1      43.480 -12.827   6.461  1.00  0.00    -0.352 N 
HETATM   15  H   UNL     1      43.049 -13.415   7.166  1.00  0.00     0.162 HD
HETATM   16  O   UNL     1      43.604 -12.386   4.210  1.00  0.00    -0.268 OA
BRANCH  14  17
HETATM   17  C   UNL     1      44.732 -12.187   6.783  1.00  0.00     0.161 C 
BRANCH  17  18
HETATM   18  C   UNL     1      44.499 -10.834   7.401  1.00  0.00    -0.040 A 
HETATM   19  C   UNL     1      43.202 -10.328   7.559  1.00  0.00     0.010 A 
HETATM   20  C   UNL     1      43.000  -9.076   8.147  1.00  0.00     0.024 A 
HETATM   21  C   UNL     1      44.092  -8.325   8.574  1.00  0.00     0.034 A 
HETATM   22 CL   UNL     1      43.840  -6.787   9.304  1.00  0.00    -0.084 Cl
HETATM   23  C   UNL     1      45.387  -8.811   8.416  1.00  0.00     0.024 A 
HETATM   24  C   UNL     1      45.590 -10.062   7.829  1.00  0.00     0.010 A 
ENDBRANCH  17  18
ENDBRANCH  14  17
ENDBRANCH   2  13
BRANCH   2  25
HETATM   25  O   UNL     1      41.198 -14.275   6.166  1.00  0.00    -0.359 OA
HETATM   26  H   UNL     1      41.750 -15.061   6.335  1.00  0.00     0.213 HD
ENDBRANCH   2  25
BRANCH   1  27
HETATM   27  C   UNL     1      40.431 -11.539   4.971  1.00  0.00     0.045 A 
HETATM   28  C   UNL     1      40.925 -10.380   4.346  1.00  0.00     0.066 A 
HETATM   29  C   UNL     1      40.728  -9.109   4.895  1.00  0.00     0.070 A 
HETATM   30  C   UNL     1      40.083  -8.966   6.117  1.00  0.00     0.037 A 
HETATM   31  C   UNL     1      39.602 -10.097   6.767  1.00  0.00     0.005 A 
HETATM   32  C   UNL     1      39.767 -11.366   6.196  1.00  0.00     0.030 A 
BRANCH  29  33
HETATM   33  O   UNL     1      41.251  -8.054   4.197  1.00  0.00    -0.356 OA
HETATM   34  C   UNL     1      41.476  -6.906   5.015  1.00  0.00     0.210 C 
ENDBRANCH  29  33
ENDBRANCH   1  27
TORSDOF 6
ENDMDL
MODEL 8
REMARK VINA RESULT:      -7.8     14.987     17.532
REMARK  6 active torsions:
REMARK  status: ('A' for Active; 'I' for Inactive)
REMARK    1  A    between atoms: O_2  and  C_3 
REMARK    2  A    between atoms: C_5  and  N_6 
REMARK    3  A    between atoms: C_7  and  C_9 
REMARK    4  A    between atoms: C_7  and  O_8 
REMARK       I    between atoms: C_9  and  N_10 
REMARK    5  A    between atoms: N_10  and  C_11 
REMARK    6  A    between atoms: C_11  and  C_12 
ROOT
HETATM    1  N   UNL     1      47.536 -29.750  -0.183  1.00  0.00    -0.254 N 
HETATM    2  C   UNL     1      47.186 -30.201   1.180  1.00  0.00     0.256 C 
HETATM    3  C   UNL     1      48.340 -30.190   2.169  1.00  0.00     0.034 A 
HETATM    4  C   UNL     1      49.634 -30.073   1.689  1.00  0.00     0.048 A 
HETATM    5  N   UNL     1      49.830 -29.932   0.329  1.00  0.00    -0.308 N 
HETATM    6  C   UNL     1      48.857 -29.794  -0.612  1.00  0.00     0.330 C 
HETATM    7  O   UNL     1      49.245 -29.688  -1.777  1.00  0.00    -0.246 OA
HETATM    8  C   UNL     1      48.159 -30.365   3.555  1.00  0.00     0.015 A 
HETATM    9  C   UNL     1      49.255 -30.390   4.421  1.00  0.00     0.001 A 
HETATM   10  C   UNL     1      50.545 -30.265   3.915  1.00  0.00     0.002 A 
HETATM   11  C   UNL     1      50.737 -30.113   2.544  1.00  0.00     0.030 A 
HETATM   12  H   UNL     1      50.768 -29.918  -0.049  1.00  0.00     0.170 HD
ENDROOT
BRANCH   2  13
HETATM   13  C   UNL     1      46.025 -29.296   1.783  1.00  0.00     0.279 C 
HETATM   14  N   UNL     1      44.781 -29.881   1.893  1.00  0.00    -0.352 N 
HETATM   15  H   UNL     1      44.715 -30.887   1.794  1.00  0.00     0.162 HD
HETATM   16  O   UNL     1      46.230 -28.104   2.034  1.00  0.00    -0.268 OA
BRANCH  14  17
HETATM   17  C   UNL     1      43.668 -29.182   2.488  1.00  0.00     0.161 C 
BRANCH  17  18
HETATM   18  C   UNL     1      42.494 -30.107   2.677  1.00  0.00    -0.040 A 
HETATM   19  C   UNL     1      42.020 -30.895   1.619  1.00  0.00     0.010 A 
HETATM   20  C   UNL     1      40.939 -31.758   1.812  1.00  0.00     0.024 A 
HETATM   21  C   UNL     1      40.324 -31.834   3.060  1.00  0.00     0.034 A 
HETATM   22 CL   UNL     1      38.997 -32.903   3.297  1.00  0.00    -0.084 Cl
HETATM   23  C   UNL     1      40.778 -31.050   4.118  1.00  0.00     0.024 A 
HETATM   24  C   UNL     1      41.859 -30.187   3.926  1.00  0.00     0.010 A 
ENDBRANCH  17  18
ENDBRANCH  14  17
ENDBRANCH   2  13
BRANCH   2  25
HETATM   25  O   UNL     1      46.775 -31.568   1.102  1.00  0.00    -0.359 OA
HETATM   26  H   UNL     1      46.235 -31.622   0.292  1.00  0.00     0.213 HD
ENDBRANCH   2  25
BRANCH   1  27
HETATM   27  C   UNL     1      46.485 -29.483  -1.149  1.00  0.00     0.045 A 
HETATM   28  C   UNL     1      45.741 -30.538  -1.706  1.00  0.00     0.066 A 
HETATM   29  C   UNL     1      44.723 -30.307  -2.637  1.00  0.00     0.070 A 
HETATM   30  C   UNL     1      44.462 -29.018  -3.085  1.00  0.00     0.037 A 
HETATM   31  C   UNL     1      45.196 -27.958  -2.565  1.00  0.00     0.005 A 
HETATM   32  C   UNL     1      46.189 -28.188  -1.604  1.00  0.00     0.030 A 
BRANCH  29  33
HETATM   33  O   UNL     1      44.065 -31.411  -3.109  1.00  0.00    -0.356 OA
HETATM   34  C   UNL     1      44.050 -32.490  -2.174  1.00  0.00     0.210 C 
ENDBRANCH  29  33
ENDBRANCH   1  27
TORSDOF 6
ENDMDL
MODEL 9
REMARK VINA RESULT:      -7.4     15.277     17.765
REMARK  6 active torsions:
REMARK  status: ('A' for Active; 'I' for Inactive)
REMARK    1  A    between atoms: O_2  and  C_3 
REMARK    2  A    between atoms: C_5  and  N_6 
REMARK    3  A    between atoms: C_7  and  C_9 
REMARK    4  A    between atoms: C_7  and  O_8 
REMARK       I    between atoms: C_9  and  N_10 
REMARK    5  A    between atoms: N_10  and  C_11 
REMARK    6  A    between atoms: C_11  and  C_12 
ROOT
HETATM    1  N   UNL     1      46.450 -31.595   2.533  1.00  0.00    -0.254 N 
HETATM    2  C   UNL     1      47.156 -30.438   3.121  1.00  0.00     0.256 C 
HETATM    3  C   UNL     1      48.545 -30.748   3.657  1.00  0.00     0.034 A 
HETATM    4  C   UNL     1      48.913 -32.070   3.842  1.00  0.00     0.048 A 
HETATM    5  N   UNL     1      48.020 -33.066   3.498  1.00  0.00    -0.308 N 
HETATM    6  C   UNL     1      46.817 -32.888   2.887  1.00  0.00     0.330 C 
HETATM    7  O   UNL     1      46.166 -33.911   2.671  1.00  0.00    -0.246 OA
HETATM    8  C   UNL     1      49.455 -29.744   4.043  1.00  0.00     0.015 A 
HETATM    9  C   UNL     1      50.705 -30.078   4.571  1.00  0.00     0.001 A 
HETATM   10  C   UNL     1      51.053 -31.414   4.742  1.00  0.00     0.002 A 
HETATM   11  C   UNL     1      50.153 -32.414   4.384  1.00  0.00     0.030 A 
HETATM   12  H   UNL     1      48.240 -34.033   3.691  1.00  0.00     0.170 HD
ENDROOT
BRANCH   2  13
HETATM   13  C   UNL     1      47.303 -29.273   2.049  1.00  0.00     0.279 C 
HETATM   14  N   UNL     1      48.006 -29.575   0.902  1.00  0.00    -0.352 N 
HETATM   15  H   UNL     1      48.202 -30.549   0.703  1.00  0.00     0.162 HD
HETATM   16  O   UNL     1      46.888 -28.136   2.301  1.00  0.00    -0.268 OA
BRANCH  14  17
HETATM   17  C   UNL     1      48.147 -28.622  -0.172  1.00  0.00     0.161 C 
BRANCH  17  18
HETATM   18  C   UNL     1      47.053 -28.798  -1.192  1.00  0.00    -0.040 A 
HETATM   19  C   UNL     1      47.215 -29.668  -2.279  1.00  0.00     0.010 A 
HETATM   20  C   UNL     1      46.186 -29.832  -3.210  1.00  0.00     0.024 A 
HETATM   21  C   UNL     1      44.996 -29.124  -3.062  1.00  0.00     0.034 A 
HETATM   22 CL   UNL     1      43.728 -29.332  -4.207  1.00  0.00    -0.084 Cl
HETATM   23  C   UNL     1      44.825 -28.248  -1.993  1.00  0.00     0.024 A 
HETATM   24  C   UNL     1      45.852 -28.084  -1.061  1.00  0.00     0.010 A 
ENDBRANCH  17  18
ENDBRANCH  14  17
ENDBRANCH   2  13
BRANCH   2  25
HETATM   25  O   UNL     1      46.411 -29.992   4.255  1.00  0.00    -0.359 OA
HETATM   26  H   UNL     1      46.486 -29.020   4.239  1.00  0.00     0.213 HD
ENDBRANCH   2  25
BRANCH   1  27
HETATM   27  C   UNL     1      45.229 -31.387   1.773  1.00  0.00     0.045 A 
HETATM   28  C   UNL     1      44.041 -31.007   2.420  1.00  0.00     0.066 A 
HETATM   29  C   UNL     1      42.853 -30.799   1.712  1.00  0.00     0.070 A 
HETATM   30  C   UNL     1      42.805 -31.027   0.342  1.00  0.00     0.037 A 
HETATM   31  C   UNL     1      43.962 -31.423  -0.320  1.00  0.00     0.005 A 
HETATM   32  C   UNL     1      45.159 -31.593   0.386  1.00  0.00     0.030 A 
BRANCH  29  33
HETATM   33  O   UNL     1      41.759 -30.427   2.447  1.00  0.00    -0.356 OA
HETATM   34  C   UNL     1      41.965 -30.562   3.853  1.00  0.00     0.210 C 
ENDBRANCH  29  33
ENDBRANCH   1  27
TORSDOF 6
ENDMDL
MODEL 10
REMARK VINA RESULT:      -7.4      2.857      4.788
REMARK  6 active torsions:
REMARK  status: ('A' for Active; 'I' for Inactive)
REMARK    1  A    between atoms: O_2  and  C_3 
REMARK    2  A    between atoms: C_5  and  N_6 
REMARK    3  A    between atoms: C_7  and  C_9 
REMARK    4  A    between atoms: C_7  and  O_8 
REMARK       I    between atoms: C_9  and  N_10 
REMARK    5  A    between atoms: N_10  and  C_11 
REMARK    6  A    between atoms: C_11  and  C_12 
ROOT
HETATM    1  N   UNL     1      39.622 -10.509   1.502  1.00  0.00    -0.254 N 
HETATM    2  C   UNL     1      39.441 -11.975   1.537  1.00  0.00     0.256 C 
HETATM    3  C   UNL     1      39.655 -12.673   0.204  1.00  0.00     0.034 A 
HETATM    4  C   UNL     1      39.690 -11.913  -0.954  1.00  0.00     0.048 A 
HETATM    5  N   UNL     1      39.566 -10.541  -0.855  1.00  0.00    -0.308 N 
HETATM    6  C   UNL     1      39.509  -9.822   0.300  1.00  0.00     0.330 C 
HETATM    7  O   UNL     1      39.391  -8.602   0.169  1.00  0.00    -0.246 OA
HETATM    8  C   UNL     1      39.752 -14.073   0.082  1.00  0.00     0.015 A 
HETATM    9  C   UNL     1      39.906 -14.673  -1.170  1.00  0.00     0.001 A 
HETATM   10  C   UNL     1      39.943 -13.887  -2.318  1.00  0.00     0.002 A 
HETATM   11  C   UNL     1      39.828 -12.503  -2.212  1.00  0.00     0.030 A 
HETATM   12  H   UNL     1      39.516  -9.974  -1.691  1.00  0.00     0.170 HD
ENDROOT
BRANCH   2  13
HETATM   13  C   UNL     1      40.434 -12.632   2.591  1.00  0.00     0.279 C 
HETATM   14  N   UNL     1      41.777 -12.591   2.282  1.00  0.00    -0.352 N 
HETATM   15  H   UNL     1      42.078 -11.975   1.535  1.00  0.00     0.162 HD
HETATM   16  O   UNL     1      39.991 -13.234   3.575  1.00  0.00    -0.268 OA
BRANCH  14  17
HETATM   17  C   UNL     1      42.778 -13.093   3.191  1.00  0.00     0.161 C 
BRANCH  17  18
HETATM   18  C   UNL     1      42.960 -14.579   3.021  1.00  0.00    -0.040 A 
HETATM   19  C   UNL     1      43.129 -15.143   1.750  1.00  0.00     0.010 A 
HETATM   20  C   UNL     1      43.310 -16.522   1.608  1.00  0.00     0.024 A 
HETATM   21  C   UNL     1      43.317 -17.341   2.735  1.00  0.00     0.034 A 
HETATM   22 CL   UNL     1      43.546 -19.037   2.559  1.00  0.00    -0.084 Cl
HETATM   23  C   UNL     1      43.140 -16.795   4.004  1.00  0.00     0.024 A 
HETATM   24  C   UNL     1      42.960 -15.418   4.146  1.00  0.00     0.010 A 
ENDBRANCH  17  18
ENDBRANCH  14  17
ENDBRANCH   2  13
BRANCH   2  25
HETATM   25  O   UNL     1      38.082 -12.245   1.884  1.00  0.00    -0.359 OA
HETATM   26  H   UNL     1      37.606 -11.413   1.703  1.00  0.00     0.213 HD
ENDBRANCH   2  25
BRANCH   1  27
HETATM   27  C   UNL     1      39.687  -9.758   2.744  1.00  0.00     0.045 A 
HETATM   28  C   UNL     1      38.513  -9.450   3.454  1.00  0.00     0.066 A 
HETATM   29  C   UNL     1      38.547  -8.730   4.652  1.00  0.00     0.070 A 
HETATM   30  C   UNL     1      39.752  -8.243   5.143  1.00  0.00     0.037 A 
HETATM   31  C   UNL     1      40.926  -8.517   4.450  1.00  0.00     0.005 A 
HETATM   32  C   UNL     1      40.894  -9.271   3.270  1.00  0.00     0.030 A 
BRANCH  29  33
HETATM   33  O   UNL     1      37.342  -8.491   5.257  1.00  0.00    -0.356 OA
HETATM   34  C   UNL     1      37.041  -7.100   5.362  1.00  0.00     0.210 C 
ENDBRANCH  29  33
ENDBRANCH   1  27
TORSDOF 6
ENDMDL
