MODEL 1
REMARK VINA RESULT:      -7.1      0.000      0.000
REMARK  6 active torsions:
REMARK  status: ('A' for Active; 'I' for Inactive)
REMARK    1  A    between atoms: C_2  and  O_3 
REMARK    2  A    between atoms: O_3  and  C_4 
REMARK    3  A    between atoms: C_4  and  C_5 
REMARK    4  A    between atoms: C_6  and  O_7 
REMARK    5  A    between atoms: C_12  and  O_13 
REMARK    6  A    between atoms: C_17  and  C_18 
ROOT
HETATM    1  C   UNL     1      42.782 -15.728   4.500  1.00  0.00     0.133 C 
HETATM    2  C   UNL     1      43.153 -16.179   5.962  1.00  0.00     0.073 C 
HETATM    3  C   UNL     1      44.681 -16.374   6.081  1.00  0.00     0.047 C 
HETATM    4  C   UNL     1      42.676 -15.177   7.048  1.00  0.00     0.097 C 
HETATM    5  C   UNL     1      43.105 -13.820   6.652  1.00  0.00     0.042 A 
HETATM    6  C   UNL     1      43.203 -13.362   5.358  1.00  0.00     0.030 A 
HETATM    7  C   UNL     1      43.701 -12.063   5.513  1.00  0.00     0.190 A 
HETATM    8  N   UNL     1      43.918 -11.722   6.778  1.00  0.00    -0.149 NA
HETATM    9  N   UNL     1      43.533 -12.813   7.467  1.00  0.00    -0.279 N 
HETATM   10  H   UNL     1      43.610 -12.796   8.478  1.00  0.00     0.189 HD
HETATM   11  C   UNL     1      42.853 -14.198   4.170  1.00  0.00     0.074 C 
ENDROOT
BRANCH  11  12
HETATM   12  C   UNL     1      41.612 -13.547   3.565  1.00  0.00    -0.048 A 
HETATM   13  C   UNL     1      41.523 -13.408   2.170  1.00  0.00     0.009 A 
HETATM   14  C   UNL     1      40.405 -12.814   1.578  1.00  0.00     0.024 A 
HETATM   15  C   UNL     1      39.358 -12.352   2.372  1.00  0.00     0.034 A 
HETATM   16 CL   UNL     1      37.982 -11.626   1.642  1.00  0.00    -0.084 Cl
HETATM   17  C   UNL     1      39.417 -12.488   3.755  1.00  0.00     0.024 A 
HETATM   18  C   UNL     1      40.530 -13.089   4.344  1.00  0.00     0.009 A 
ENDBRANCH  11  12
BRANCH   1  19
HETATM   19  C   UNL     1      41.544 -16.413   3.965  1.00  0.00     0.267 C 
HETATM   20  O   UNL     1      40.492 -16.437   4.598  1.00  0.00    -0.265 OA
BRANCH  19  21
HETATM   21  O   UNL     1      41.721 -16.955   2.734  1.00  0.00    -0.321 OA
BRANCH  21  22
HETATM   22  C   UNL     1      43.067 -17.353   2.431  1.00  0.00     0.174 C 
HETATM   23  C   UNL     1      43.191 -18.864   2.337  1.00  0.00     0.034 C 
ENDBRANCH  21  22
ENDBRANCH  19  21
ENDBRANCH   1  19
BRANCH   2  24
HETATM   24  O   UNL     1      42.582 -17.458   6.278  1.00  0.00    -0.389 OA
HETATM   25  H   UNL     1      42.646 -17.607   7.239  1.00  0.00     0.210 HD
ENDBRANCH   2  24
BRANCH   7  26
HETATM   26  O   UNL     1      43.975 -11.139   4.588  1.00  0.00    -0.343 OA
HETATM   27  H   UNL     1      43.589 -11.406   3.741  1.00  0.00     0.219 HD
ENDBRANCH   7  26
TORSDOF 6
ENDMDL
MODEL 2
REMARK VINA RESULT:      -6.8      2.927      4.623
REMARK  6 active torsions:
REMARK  status: ('A' for Active; 'I' for Inactive)
REMARK    1  A    between atoms: C_2  and  O_3 
REMARK    2  A    between atoms: O_3  and  C_4 
REMARK    3  A    between atoms: C_4  and  C_5 
REMARK    4  A    between atoms: C_6  and  O_7 
REMARK    5  A    between atoms: C_12  and  O_13 
REMARK    6  A    between atoms: C_17  and  C_18 
ROOT
HETATM    1  C   UNL     1      41.591 -12.700   4.145  1.00  0.00     0.133 C 
HETATM    2  C   UNL     1      42.370 -11.560   3.388  1.00  0.00     0.073 C 
HETATM    3  C   UNL     1      41.847 -10.177   3.838  1.00  0.00     0.047 C 
HETATM    4  C   UNL     1      43.906 -11.625   3.603  1.00  0.00     0.097 C 
HETATM    5  C   UNL     1      44.170 -11.748   5.052  1.00  0.00     0.042 A 
HETATM    6  C   UNL     1      43.369 -12.412   5.952  1.00  0.00     0.030 A 
HETATM    7  C   UNL     1      44.008 -12.188   7.178  1.00  0.00     0.190 A 
HETATM    8  N   UNL     1      45.103 -11.443   7.080  1.00  0.00    -0.149 NA
HETATM    9  N   UNL     1      45.193 -11.191   5.761  1.00  0.00    -0.279 N 
HETATM   10  H   UNL     1      45.966 -10.622   5.430  1.00  0.00     0.189 HD
HETATM   11  C   UNL     1      42.118 -13.127   5.557  1.00  0.00     0.074 C 
ENDROOT
BRANCH  11  12
HETATM   12  C   UNL     1      42.405 -14.608   5.787  1.00  0.00    -0.048 A 
HETATM   13  C   UNL     1      43.651 -15.131   5.404  1.00  0.00     0.009 A 
HETATM   14  C   UNL     1      43.951 -16.483   5.594  1.00  0.00     0.024 A 
HETATM   15  C   UNL     1      43.011 -17.331   6.175  1.00  0.00     0.034 A 
HETATM   16 CL   UNL     1      43.384 -18.992   6.413  1.00  0.00    -0.084 Cl
HETATM   17  C   UNL     1      41.775 -16.835   6.574  1.00  0.00     0.024 A 
HETATM   18  C   UNL     1      41.480 -15.483   6.391  1.00  0.00     0.009 A 
ENDBRANCH  11  12
BRANCH   1  19
HETATM   19  C   UNL     1      41.227 -13.864   3.250  1.00  0.00     0.267 C 
HETATM   20  O   UNL     1      40.102 -14.355   3.250  1.00  0.00    -0.265 OA
BRANCH  19  21
HETATM   21  O   UNL     1      42.250 -14.269   2.456  1.00  0.00    -0.321 OA
BRANCH  21  22
HETATM   22  C   UNL     1      42.017 -15.492   1.740  1.00  0.00     0.174 C 
HETATM   23  C   UNL     1      43.150 -16.482   1.948  1.00  0.00     0.034 C 
ENDBRANCH  21  22
ENDBRANCH  19  21
ENDBRANCH   1  19
BRANCH   2  24
HETATM   24  O   UNL     1      42.133 -11.612   1.972  1.00  0.00    -0.389 OA
HETATM   25  H   UNL     1      42.198 -12.537   1.672  1.00  0.00     0.210 HD
ENDBRANCH   2  24
BRANCH   7  26
HETATM   26  O   UNL     1      43.682 -12.617   8.400  1.00  0.00    -0.343 OA
HETATM   27  H   UNL     1      43.020 -12.024   8.784  1.00  0.00     0.219 HD
ENDBRANCH   7  26
TORSDOF 6
ENDMDL
MODEL 3
REMARK VINA RESULT:      -6.7      3.646      5.773
REMARK  6 active torsions:
REMARK  status: ('A' for Active; 'I' for Inactive)
REMARK    1  A    between atoms: C_2  and  O_3 
REMARK    2  A    between atoms: O_3  and  C_4 
REMARK    3  A    between atoms: C_4  and  C_5 
REMARK    4  A    between atoms: C_6  and  O_7 
REMARK    5  A    between atoms: C_12  and  O_13 
REMARK    6  A    between atoms: C_17  and  C_18 
ROOT
HETATM    1  C   UNL     1      41.686 -12.151   3.433  1.00  0.00     0.133 C 
HETATM    2  C   UNL     1      40.400 -11.285   3.711  1.00  0.00     0.073 C 
HETATM    3  C   UNL     1      40.569  -9.878   3.095  1.00  0.00     0.047 C 
HETATM    4  C   UNL     1      39.099 -11.934   3.164  1.00  0.00     0.097 C 
HETATM    5  C   UNL     1      39.331 -12.332   1.760  1.00  0.00     0.042 A 
HETATM    6  C   UNL     1      40.529 -12.769   1.245  1.00  0.00     0.030 A 
HETATM    7  C   UNL     1      40.246 -12.956  -0.115  1.00  0.00     0.190 A 
HETATM    8  N   UNL     1      38.995 -12.655  -0.444  1.00  0.00    -0.149 NA
HETATM    9  N   UNL     1      38.443 -12.284   0.726  1.00  0.00    -0.279 N 
HETATM   10  H   UNL     1      37.469 -11.999   0.730  1.00  0.00     0.189 HD
HETATM   11  C   UNL     1      41.765 -12.920   2.071  1.00  0.00     0.074 C 
ENDROOT
BRANCH  11  12
HETATM   12  C   UNL     1      42.040 -14.421   2.120  1.00  0.00    -0.048 A 
HETATM   13  C   UNL     1      43.332 -14.890   1.829  1.00  0.00     0.009 A 
HETATM   14  C   UNL     1      43.623 -16.257   1.861  1.00  0.00     0.024 A 
HETATM   15  C   UNL     1      42.627 -17.175   2.187  1.00  0.00     0.034 A 
HETATM   16 CL   UNL     1      42.988 -18.855   2.230  1.00  0.00    -0.084 Cl
HETATM   17  C   UNL     1      41.344 -16.735   2.490  1.00  0.00     0.024 A 
HETATM   18  C   UNL     1      41.057 -15.369   2.467  1.00  0.00     0.009 A 
ENDBRANCH  11  12
BRANCH   1  19
HETATM   19  C   UNL     1      42.115 -12.975   4.627  1.00  0.00     0.267 C 
HETATM   20  O   UNL     1      43.285 -13.019   4.997  1.00  0.00    -0.265 OA
BRANCH  19  21
HETATM   21  O   UNL     1      41.084 -13.615   5.234  1.00  0.00    -0.321 OA
BRANCH  21  22
HETATM   22  C   UNL     1      41.468 -14.602   6.204  1.00  0.00     0.174 C 
HETATM   23  C   UNL     1      40.436 -15.712   6.304  1.00  0.00     0.034 C 
ENDBRANCH  21  22
ENDBRANCH  19  21
ENDBRANCH   1  19
BRANCH   2  24
HETATM   24  O   UNL     1      40.210 -11.063   5.117  1.00  0.00    -0.389 OA
HETATM   25  H   UNL     1      39.255 -11.030   5.308  1.00  0.00     0.210 HD
ENDBRANCH   2  24
BRANCH   7  26
HETATM   26  O   UNL     1      41.038 -13.390  -1.098  1.00  0.00    -0.343 OA
HETATM   27  H   UNL     1      41.464 -14.216  -0.828  1.00  0.00     0.219 HD
ENDBRANCH   7  26
TORSDOF 6
ENDMDL
MODEL 4
REMARK VINA RESULT:      -6.6      2.705      4.914
REMARK  6 active torsions:
REMARK  status: ('A' for Active; 'I' for Inactive)
REMARK    1  A    between atoms: C_2  and  O_3 
REMARK    2  A    between atoms: O_3  and  C_4 
REMARK    3  A    between atoms: C_4  and  C_5 
REMARK    4  A    between atoms: C_6  and  O_7 
REMARK    5  A    between atoms: C_12  and  O_13 
REMARK    6  A    between atoms: C_17  and  C_18 
ROOT
HETATM    1  C   UNL     1      42.023 -13.485   3.338  1.00  0.00     0.133 C 
HETATM    2  C   UNL     1      42.675 -12.207   3.988  1.00  0.00     0.073 C 
HETATM    3  C   UNL     1      41.587 -11.356   4.680  1.00  0.00     0.047 C 
HETATM    4  C   UNL     1      43.792 -12.547   5.013  1.00  0.00     0.097 C 
HETATM    5  C   UNL     1      43.272 -13.567   5.948  1.00  0.00     0.042 A 
HETATM    6  C   UNL     1      42.376 -14.560   5.625  1.00  0.00     0.030 A 
HETATM    7  C   UNL     1      42.161 -15.209   6.847  1.00  0.00     0.190 A 
HETATM    8  N   UNL     1      42.838 -14.679   7.859  1.00  0.00    -0.149 NA
HETATM    9  N   UNL     1      43.527 -13.675   7.283  1.00  0.00    -0.279 N 
HETATM   10  H   UNL     1      44.129 -13.106   7.869  1.00  0.00     0.189 HD
HETATM   11  C   UNL     1      41.827 -14.745   4.247  1.00  0.00     0.074 C 
ENDROOT
BRANCH  11  12
HETATM   12  C   UNL     1      42.402 -16.070   3.755  1.00  0.00    -0.048 A 
HETATM   13  C   UNL     1      41.728 -16.776   2.745  1.00  0.00     0.009 A 
HETATM   14  C   UNL     1      42.220 -17.995   2.269  1.00  0.00     0.024 A 
HETATM   15  C   UNL     1      43.397 -18.524   2.795  1.00  0.00     0.034 A 
HETATM   16 CL   UNL     1      44.004 -20.020   2.206  1.00  0.00    -0.084 Cl
HETATM   17  C   UNL     1      44.089 -17.839   3.787  1.00  0.00     0.024 A 
HETATM   18  C   UNL     1      43.600 -16.618   4.255  1.00  0.00     0.009 A 
ENDBRANCH  11  12
BRANCH   1  19
HETATM   19  C   UNL     1      42.580 -13.801   1.967  1.00  0.00     0.267 C 
HETATM   20  O   UNL     1      43.681 -14.322   1.819  1.00  0.00    -0.265 OA
BRANCH  19  21
HETATM   21  O   UNL     1      41.735 -13.474   0.957  1.00  0.00    -0.321 OA
BRANCH  21  22
HETATM   22  C   UNL     1      40.369 -13.872   1.154  1.00  0.00     0.174 C 
HETATM   23  C   UNL     1      39.924 -14.871   0.099  1.00  0.00     0.034 C 
ENDBRANCH  21  22
ENDBRANCH  19  21
ENDBRANCH   1  19
BRANCH   2  24
HETATM   24  O   UNL     1      43.254 -11.348   2.993  1.00  0.00    -0.389 OA
HETATM   25  H   UNL     1      43.648 -10.573   3.433  1.00  0.00     0.210 HD
ENDBRANCH   2  24
BRANCH   7  26
HETATM   26  O   UNL     1      41.394 -16.266   7.127  1.00  0.00    -0.343 OA
HETATM   27  H   UNL     1      41.787 -17.061   6.741  1.00  0.00     0.219 HD
ENDBRANCH   7  26
TORSDOF 6
ENDMDL
MODEL 5
REMARK VINA RESULT:      -6.6      3.172      4.909
REMARK  6 active torsions:
REMARK  status: ('A' for Active; 'I' for Inactive)
REMARK    1  A    between atoms: C_2  and  O_3 
REMARK    2  A    between atoms: O_3  and  C_4 
REMARK    3  A    between atoms: C_4  and  C_5 
REMARK    4  A    between atoms: C_6  and  O_7 
REMARK    5  A    between atoms: C_12  and  O_13 
REMARK    6  A    between atoms: C_17  and  C_18 
ROOT
HETATM    1  C   UNL     1      41.696 -14.896   3.137  1.00  0.00     0.133 C 
HETATM    2  C   UNL     1      40.885 -14.639   1.812  1.00  0.00     0.073 C 
HETATM    3  C   UNL     1      39.565 -15.442   1.839  1.00  0.00     0.047 C 
HETATM    4  C   UNL     1      40.569 -13.137   1.572  1.00  0.00     0.097 C 
HETATM    5  C   UNL     1      39.993 -12.578   2.812  1.00  0.00     0.042 A 
HETATM    6  C   UNL     1      40.327 -12.965   4.090  1.00  0.00     0.030 A 
HETATM    7  C   UNL     1      39.476 -12.195   4.893  1.00  0.00     0.190 A 
HETATM    8  N   UNL     1      38.664 -11.403   4.202  1.00  0.00    -0.149 NA
HETATM    9  N   UNL     1      39.006 -11.643   2.922  1.00  0.00    -0.279 N 
HETATM   10  H   UNL     1      38.511 -11.145   2.189  1.00  0.00     0.189 HD
HETATM   11  C   UNL     1      41.357 -14.008   4.382  1.00  0.00     0.074 C 
ENDROOT
BRANCH  11  12
HETATM   12  C   UNL     1      42.507 -13.266   5.058  1.00  0.00    -0.048 A 
HETATM   13  C   UNL     1      43.009 -13.748   6.278  1.00  0.00     0.009 A 
HETATM   14  C   UNL     1      44.059 -13.095   6.930  1.00  0.00     0.024 A 
HETATM   15  C   UNL     1      44.624 -11.952   6.370  1.00  0.00     0.034 A 
HETATM   16 CL   UNL     1      45.919 -11.154   7.170  1.00  0.00    -0.084 Cl
HETATM   17  C   UNL     1      44.153 -11.462   5.157  1.00  0.00     0.024 A 
HETATM   18  C   UNL     1      43.110 -12.120   4.503  1.00  0.00     0.009 A 
ENDBRANCH  11  12
BRANCH   1  19
HETATM   19  C   UNL     1      43.180 -15.072   2.898  1.00  0.00     0.267 C 
HETATM   20  O   UNL     1      43.798 -14.359   2.112  1.00  0.00    -0.265 OA
BRANCH  19  21
HETATM   21  O   UNL     1      43.730 -16.059   3.648  1.00  0.00    -0.321 OA
BRANCH  21  22
HETATM   22  C   UNL     1      42.987 -17.287   3.677  1.00  0.00     0.174 C 
HETATM   23  C   UNL     1      43.206 -18.098   2.412  1.00  0.00     0.034 C 
ENDBRANCH  21  22
ENDBRANCH  19  21
ENDBRANCH   1  19
BRANCH   2  24
HETATM   24  O   UNL     1      41.596 -15.117   0.659  1.00  0.00    -0.389 OA
HETATM   25  H   UNL     1      42.426 -15.537   0.949  1.00  0.00     0.210 HD
ENDBRANCH   2  24
BRANCH   7  26
HETATM   26  O   UNL     1      39.375 -12.144   6.223  1.00  0.00    -0.343 OA
HETATM   27  H   UNL     1      38.491 -12.432   6.491  1.00  0.00     0.219 HD
ENDBRANCH   7  26
TORSDOF 6
ENDMDL
MODEL 6
REMARK VINA RESULT:      -6.5      2.732      4.539
REMARK  6 active torsions:
REMARK  status: ('A' for Active; 'I' for Inactive)
REMARK    1  A    between atoms: C_2  and  O_3 
REMARK    2  A    between atoms: O_3  and  C_4 
REMARK    3  A    between atoms: C_4  and  C_5 
REMARK    4  A    between atoms: C_6  and  O_7 
REMARK    5  A    between atoms: C_12  and  O_13 
REMARK    6  A    between atoms: C_17  and  C_18 
ROOT
HETATM    1  C   UNL     1      41.998 -16.080   5.783  1.00  0.00     0.133 C 
HETATM    2  C   UNL     1      43.283 -16.438   6.621  1.00  0.00     0.073 C 
HETATM    3  C   UNL     1      43.066 -17.771   7.372  1.00  0.00     0.047 C 
HETATM    4  C   UNL     1      44.567 -16.539   5.754  1.00  0.00     0.097 C 
HETATM    5  C   UNL     1      44.279 -17.405   4.592  1.00  0.00     0.042 A 
HETATM    6  C   UNL     1      43.065 -17.498   3.950  1.00  0.00     0.030 A 
HETATM    7  C   UNL     1      43.290 -18.479   2.976  1.00  0.00     0.190 A 
HETATM    8  N   UNL     1      44.520 -18.979   2.997  1.00  0.00    -0.149 NA
HETATM    9  N   UNL     1      45.119 -18.296   3.991  1.00  0.00    -0.279 N 
HETATM   10  H   UNL     1      46.088 -18.509   4.206  1.00  0.00     0.189 HD
HETATM   11  C   UNL     1      41.870 -16.694   4.348  1.00  0.00     0.074 C 
ENDROOT
BRANCH  11  12
HETATM   12  C   UNL     1      41.619 -15.736   3.187  1.00  0.00    -0.048 A 
HETATM   13  C   UNL     1      40.361 -15.732   2.563  1.00  0.00     0.009 A 
HETATM   14  C   UNL     1      40.093 -14.872   1.494  1.00  0.00     0.024 A 
HETATM   15  C   UNL     1      41.079 -14.000   1.036  1.00  0.00     0.034 A 
HETATM   16 CL   UNL     1      40.746 -12.939  -0.275  1.00  0.00    -0.084 Cl
HETATM   17  C   UNL     1      42.328 -13.977   1.645  1.00  0.00     0.024 A 
HETATM   18  C   UNL     1      42.592 -14.831   2.718  1.00  0.00     0.009 A 
ENDBRANCH  11  12
BRANCH   1  19
HETATM   19  C   UNL     1      41.635 -14.613   5.855  1.00  0.00     0.267 C 
HETATM   20  O   UNL     1      42.491 -13.732   5.843  1.00  0.00    -0.265 OA
BRANCH  19  21
HETATM   21  O   UNL     1      40.298 -14.393   5.905  1.00  0.00    -0.321 OA
BRANCH  21  22
HETATM   22  C   UNL     1      39.904 -13.014   5.826  1.00  0.00     0.174 C 
HETATM   23  C   UNL     1      39.570 -12.613   4.399  1.00  0.00     0.034 C 
ENDBRANCH  21  22
ENDBRANCH  19  21
ENDBRANCH   1  19
BRANCH   2  24
HETATM   24  O   UNL     1      43.532 -15.463   7.645  1.00  0.00    -0.389 OA
HETATM   25  H   UNL     1      43.935 -14.673   7.240  1.00  0.00     0.210 HD
ENDBRANCH   2  24
BRANCH   7  26
HETATM   26  O   UNL     1      42.461 -18.964   2.048  1.00  0.00    -0.343 OA
HETATM   27  H   UNL     1      42.369 -18.320   1.330  1.00  0.00     0.219 HD
ENDBRANCH   7  26
TORSDOF 6
ENDMDL
MODEL 7
REMARK VINA RESULT:      -6.5      3.107      5.030
REMARK  6 active torsions:
REMARK  status: ('A' for Active; 'I' for Inactive)
REMARK    1  A    between atoms: C_2  and  O_3 
REMARK    2  A    between atoms: O_3  and  C_4 
REMARK    3  A    between atoms: C_4  and  C_5 
REMARK    4  A    between atoms: C_6  and  O_7 
REMARK    5  A    between atoms: C_12  and  O_13 
REMARK    6  A    between atoms: C_17  and  C_18 
ROOT
HETATM    1  C   UNL     1      40.908 -14.755   2.265  1.00  0.00     0.133 C 
HETATM    2  C   UNL     1      40.946 -13.506   1.308  1.00  0.00     0.073 C 
HETATM    3  C   UNL     1      39.539 -13.248   0.723  1.00  0.00     0.047 C 
HETATM    4  C   UNL     1      41.456 -12.217   2.008  1.00  0.00     0.097 C 
HETATM    5  C   UNL     1      40.715 -12.050   3.275  1.00  0.00     0.042 A 
HETATM    6  C   UNL     1      40.262 -13.076   4.073  1.00  0.00     0.030 A 
HETATM    7  C   UNL     1      39.583 -12.408   5.101  1.00  0.00     0.190 A 
HETATM    8  N   UNL     1      39.584 -11.087   4.969  1.00  0.00    -0.149 NA
HETATM    9  N   UNL     1      40.297 -10.884   3.846  1.00  0.00    -0.279 N 
HETATM   10  H   UNL     1      40.437  -9.929   3.530  1.00  0.00     0.189 HD
HETATM   11  C   UNL     1      40.495 -14.517   3.757  1.00  0.00     0.074 C 
ENDROOT
BRANCH  11  12
HETATM   12  C   UNL     1      41.439 -15.025   4.843  1.00  0.00    -0.048 A 
HETATM   13  C   UNL     1      41.065 -16.142   5.608  1.00  0.00     0.009 A 
HETATM   14  C   UNL     1      41.901 -16.635   6.614  1.00  0.00     0.024 A 
HETATM   15  C   UNL     1      43.125 -16.021   6.868  1.00  0.00     0.034 A 
HETATM   16 CL   UNL     1      44.153 -16.632   8.102  1.00  0.00    -0.084 Cl
HETATM   17  C   UNL     1      43.524 -14.921   6.117  1.00  0.00     0.024 A 
HETATM   18  C   UNL     1      42.691 -14.434   5.107  1.00  0.00     0.009 A 
ENDBRANCH  11  12
BRANCH   1  19
HETATM   19  C   UNL     1      42.106 -15.664   2.100  1.00  0.00     0.267 C 
HETATM   20  O   UNL     1      43.227 -15.222   1.865  1.00  0.00    -0.265 OA
BRANCH  19  21
HETATM   21  O   UNL     1      41.809 -16.978   2.262  1.00  0.00    -0.321 OA
BRANCH  21  22
HETATM   22  C   UNL     1      42.938 -17.865   2.236  1.00  0.00     0.174 C 
HETATM   23  C   UNL     1      43.543 -18.035   3.619  1.00  0.00     0.034 C 
ENDBRANCH  21  22
ENDBRANCH  19  21
ENDBRANCH   1  19
BRANCH   2  24
HETATM   24  O   UNL     1      41.792 -13.740   0.171  1.00  0.00    -0.389 OA
HETATM   25  H   UNL     1      41.457 -14.510  -0.322  1.00  0.00     0.210 HD
ENDBRANCH   2  24
BRANCH   7  26
HETATM   26  O   UNL     1      38.956 -12.904   6.170  1.00  0.00    -0.343 OA
HETATM   27  H   UNL     1      39.503 -12.768   6.957  1.00  0.00     0.219 HD
ENDBRANCH   7  26
TORSDOF 6
ENDMDL
MODEL 8
REMARK VINA RESULT:      -6.5      3.437      5.784
REMARK  6 active torsions:
REMARK  status: ('A' for Active; 'I' for Inactive)
REMARK    1  A    between atoms: C_2  and  O_3 
REMARK    2  A    between atoms: O_3  and  C_4 
REMARK    3  A    between atoms: C_4  and  C_5 
REMARK    4  A    between atoms: C_6  and  O_7 
REMARK    5  A    between atoms: C_12  and  O_13 
REMARK    6  A    between atoms: C_17  and  C_18 
ROOT
HETATM    1  C   UNL     1      39.336 -12.582   1.483  1.00  0.00     0.133 C 
HETATM    2  C   UNL     1      39.366 -11.012   1.604  1.00  0.00     0.073 C 
HETATM    3  C   UNL     1      37.964 -10.488   1.992  1.00  0.00     0.047 C 
HETATM    4  C   UNL     1      40.410 -10.500   2.633  1.00  0.00     0.097 C 
HETATM    5  C   UNL     1      40.232 -11.252   3.892  1.00  0.00     0.042 A 
HETATM    6  C   UNL     1      39.834 -12.566   3.985  1.00  0.00     0.030 A 
HETATM    7  C   UNL     1      39.759 -12.783   5.367  1.00  0.00     0.190 A 
HETATM    8  N   UNL     1      40.064 -11.713   6.091  1.00  0.00    -0.149 NA
HETATM    9  N   UNL     1      40.365 -10.783   5.166  1.00  0.00    -0.279 N 
HETATM   10  H   UNL     1      40.632  -9.856   5.483  1.00  0.00     0.189 HD
HETATM   11  C   UNL     1      39.550 -13.418   2.790  1.00  0.00     0.074 C 
ENDROOT
BRANCH  11  12
HETATM   12  C   UNL     1      40.645 -14.481   2.779  1.00  0.00    -0.048 A 
HETATM   13  C   UNL     1      40.300 -15.816   2.509  1.00  0.00     0.009 A 
HETATM   14  C   UNL     1      41.273 -16.819   2.493  1.00  0.00     0.024 A 
HETATM   15  C   UNL     1      42.606 -16.502   2.745  1.00  0.00     0.034 A 
HETATM   16 CL   UNL     1      43.802 -17.737   2.720  1.00  0.00    -0.084 Cl
HETATM   17  C   UNL     1      42.975 -15.187   3.004  1.00  0.00     0.024 A 
HETATM   18  C   UNL     1      42.003 -14.184   3.011  1.00  0.00     0.009 A 
ENDBRANCH  11  12
BRANCH   1  19
HETATM   19  C   UNL     1      40.114 -13.099   0.292  1.00  0.00     0.267 C 
HETATM   20  O   UNL     1      41.230 -12.670   0.012  1.00  0.00    -0.265 OA
BRANCH  19  21
HETATM   21  O   UNL     1      39.465 -14.076  -0.389  1.00  0.00    -0.321 OA
BRANCH  21  22
HETATM   22  C   UNL     1      39.007 -13.704  -1.698  1.00  0.00     0.174 C 
HETATM   23  C   UNL     1      38.830 -14.920  -2.591  1.00  0.00     0.034 C 
ENDBRANCH  21  22
ENDBRANCH  19  21
ENDBRANCH   1  19
BRANCH   2  24
HETATM   24  O   UNL     1      39.666 -10.393   0.343  1.00  0.00    -0.389 OA
HETATM   25  H   UNL     1      40.444  -9.816   0.449  1.00  0.00     0.210 HD
ENDBRANCH   2  24
BRANCH   7  26
HETATM   26  O   UNL     1      39.440 -13.892   6.039  1.00  0.00    -0.343 OA
HETATM   27  H   UNL     1      39.417 -13.699   6.987  1.00  0.00     0.219 HD
ENDBRANCH   7  26
TORSDOF 6
ENDMDL
MODEL 9
REMARK VINA RESULT:      -6.3      3.142      4.678
REMARK  6 active torsions:
REMARK  status: ('A' for Active; 'I' for Inactive)
REMARK    1  A    between atoms: C_2  and  O_3 
REMARK    2  A    between atoms: O_3  and  C_4 
REMARK    3  A    between atoms: C_4  and  C_5 
REMARK    4  A    between atoms: C_6  and  O_7 
REMARK    5  A    between atoms: C_12  and  O_13 
REMARK    6  A    between atoms: C_17  and  C_18 
ROOT
HETATM    1  C   UNL     1      41.575 -15.315   4.417  1.00  0.00     0.133 C 
HETATM    2  C   UNL     1      42.594 -15.912   3.375  1.00  0.00     0.073 C 
HETATM    3  C   UNL     1      41.950 -17.104   2.633  1.00  0.00     0.047 C 
HETATM    4  C   UNL     1      43.088 -14.866   2.339  1.00  0.00     0.097 C 
HETATM    5  C   UNL     1      41.911 -14.171   1.780  1.00  0.00     0.042 A 
HETATM    6  C   UNL     1      40.751 -13.893   2.466  1.00  0.00     0.030 A 
HETATM    7  C   UNL     1      39.939 -13.292   1.495  1.00  0.00     0.190 A 
HETATM    8  N   UNL     1      40.512 -13.206   0.301  1.00  0.00    -0.149 NA
HETATM    9  N   UNL     1      41.731 -13.740   0.498  1.00  0.00    -0.279 N 
HETATM   10  H   UNL     1      42.369 -13.791  -0.290  1.00  0.00     0.189 HD
HETATM   11  C   UNL     1      40.549 -14.249   3.903  1.00  0.00     0.074 C 
ENDROOT
BRANCH  11  12
HETATM   12  C   UNL     1      40.480 -12.917   4.646  1.00  0.00    -0.048 A 
HETATM   13  C   UNL     1      39.543 -12.759   5.681  1.00  0.00     0.009 A 
HETATM   14  C   UNL     1      39.447 -11.554   6.383  1.00  0.00     0.024 A 
HETATM   15  C   UNL     1      40.288 -10.491   6.062  1.00  0.00     0.034 A 
HETATM   16 CL   UNL     1      40.171  -9.011   6.930  1.00  0.00    -0.084 Cl
HETATM   17  C   UNL     1      41.231 -10.626   5.050  1.00  0.00     0.024 A 
HETATM   18  C   UNL     1      41.332 -11.833   4.356  1.00  0.00     0.009 A 
ENDBRANCH  11  12
BRANCH   1  19
HETATM   19  C   UNL     1      42.219 -14.957   5.738  1.00  0.00     0.267 C 
HETATM   20  O   UNL     1      41.748 -15.326   6.810  1.00  0.00    -0.265 OA
BRANCH  19  21
HETATM   21  O   UNL     1      43.355 -14.228   5.600  1.00  0.00    -0.321 OA
BRANCH  21  22
HETATM   22  C   UNL     1      43.746 -13.484   6.765  1.00  0.00     0.174 C 
HETATM   23  C   UNL     1      44.441 -12.188   6.388  1.00  0.00     0.034 C 
ENDBRANCH  21  22
ENDBRANCH  19  21
ENDBRANCH   1  19
BRANCH   2  24
HETATM   24  O   UNL     1      43.755 -16.452   4.026  1.00  0.00    -0.389 OA
HETATM   25  H   UNL     1      43.489 -17.219   4.566  1.00  0.00     0.210 HD
ENDBRANCH   2  24
BRANCH   7  26
HETATM   26  O   UNL     1      38.702 -12.800   1.605  1.00  0.00    -0.343 OA
HETATM   27  H   UNL     1      38.340 -13.027   2.473  1.00  0.00     0.219 HD
ENDBRANCH   7  26
TORSDOF 6
ENDMDL
MODEL 10
REMARK VINA RESULT:      -6.3      2.742      4.678
REMARK  6 active torsions:
REMARK  status: ('A' for Active; 'I' for Inactive)
REMARK    1  A    between atoms: C_2  and  O_3 
REMARK    2  A    between atoms: O_3  and  C_4 
REMARK    3  A    between atoms: C_4  and  C_5 
REMARK    4  A    between atoms: C_6  and  O_7 
REMARK    5  A    between atoms: C_12  and  O_13 
REMARK    6  A    between atoms: C_17  and  C_18 
ROOT
HETATM    1  C   UNL     1      40.534 -11.953   4.627  1.00  0.00     0.133 C 
HETATM    2  C   UNL     1      41.150 -10.504   4.615  1.00  0.00     0.073 C 
HETATM    3  C   UNL     1      40.687  -9.726   5.868  1.00  0.00     0.047 C 
HETATM    4  C   UNL     1      42.702 -10.502   4.552  1.00  0.00     0.097 C 
HETATM    5  C   UNL     1      43.212 -11.423   5.588  1.00  0.00     0.042 A 
HETATM    6  C   UNL     1      42.590 -12.579   6.001  1.00  0.00     0.030 A 
HETATM    7  C   UNL     1      43.427 -13.048   7.021  1.00  0.00     0.190 A 
HETATM    8  N   UNL     1      44.474 -12.265   7.253  1.00  0.00    -0.149 NA
HETATM    9  N   UNL     1      44.332 -11.276   6.352  1.00  0.00    -0.279 N 
HETATM   10  H   UNL     1      45.026 -10.535   6.336  1.00  0.00     0.189 HD
HETATM   11  C   UNL     1      41.303 -13.065   5.417  1.00  0.00     0.074 C 
ENDROOT
BRANCH  11  12
HETATM   12  C   UNL     1      41.653 -14.350   4.672  1.00  0.00    -0.048 A 
HETATM   13  C   UNL     1      42.866 -14.425   3.968  1.00  0.00     0.009 A 
HETATM   14  C   UNL     1      43.221 -15.583   3.271  1.00  0.00     0.024 A 
HETATM   15  C   UNL     1      42.370 -16.685   3.269  1.00  0.00     0.034 A 
HETATM   16 CL   UNL     1      42.810 -18.110   2.415  1.00  0.00    -0.084 Cl
HETATM   17  C   UNL     1      41.168 -16.641   3.968  1.00  0.00     0.024 A 
HETATM   18  C   UNL     1      40.819 -15.486   4.671  1.00  0.00     0.009 A 
ENDBRANCH  11  12
BRANCH   1  19
HETATM   19  C   UNL     1      40.043 -12.398   3.266  1.00  0.00     0.267 C 
HETATM   20  O   UNL     1      38.914 -12.852   3.102  1.00  0.00    -0.265 OA
BRANCH  19  21
HETATM   21  O   UNL     1      40.958 -12.218   2.281  1.00  0.00    -0.321 OA
BRANCH  21  22
HETATM   22  C   UNL     1      40.556 -12.685   0.984  1.00  0.00     0.174 C 
HETATM   23  C   UNL     1      40.981 -14.126   0.757  1.00  0.00     0.034 C 
ENDBRANCH  21  22
ENDBRANCH  19  21
ENDBRANCH   1  19
BRANCH   2  24
HETATM   24  O   UNL     1      40.674  -9.739   3.497  1.00  0.00    -0.389 OA
HETATM   25  H   UNL     1      40.033 -10.274   2.994  1.00  0.00     0.210 HD
ENDBRANCH   2  24
BRANCH   7  26
HETATM   26  O   UNL     1      43.324 -14.149   7.769  1.00  0.00    -0.343 OA
HETATM   27  H   UNL     1      43.221 -13.900   8.699  1.00  0.00     0.219 HD
ENDBRANCH   7  26
TORSDOF 6
ENDMDL
