MODEL 1
REMARK VINA RESULT:      -8.5      0.000      0.000
REMARK  7 active torsions:
REMARK  status: ('A' for Active; 'I' for Inactive)
REMARK    1  A    between atoms: C_2  and  N_3 
REMARK    2  A    between atoms: C_2  and  C_10 
REMARK    3  A    between atoms: N_11  and  C_12 
REMARK    4  A    between atoms: C_19  and  S_20 
REMARK    5  A    between atoms: S_20  and  C_21 
REMARK    6  A    between atoms: C_21  and  C_22 
REMARK    7  A    between atoms: C_21  and  C_28 
REMARK       I    between atoms: C_22  and  N_23 
REMARK       I    between atoms: N_23  and  C_24 
REMARK       I    between atoms: C_24  and  N_25 
ROOT
HETATM    1  C   UNL     1      43.023 -11.420   6.485  1.00  0.00     0.166 A 
HETATM    2  N   UNL     1      42.351 -12.472   5.864  1.00  0.00    -0.274 N 
HETATM    3  C   UNL     1      41.443 -11.839   5.028  1.00  0.00     0.197 A 
HETATM    4  N   UNL     1      41.656 -10.545   5.051  1.00  0.00    -0.122 NA
HETATM    5  N   UNL     1      42.655 -10.282   5.936  1.00  0.00    -0.131 NA
ENDROOT
BRANCH   3   6
HETATM    6  S   UNL     1      40.274 -12.652   4.046  1.00  0.00    -0.070 SA
BRANCH   6   7
HETATM    7  C   UNL     1      41.153 -13.048   2.481  1.00  0.00     0.180 C 
BRANCH   7   8
HETATM    8  C   UNL     1      40.307 -12.668   1.249  1.00  0.00     0.244 C 
HETATM    9  N   UNL     1      40.707 -11.605   0.461  1.00  0.00    -0.278 N 
HETATM   10  C   UNL     1      41.594 -10.600   0.749  1.00  0.00     0.320 C 
HETATM   11  H   UNL     1      40.107 -11.461  -0.335  1.00  0.00     0.173 HD
HETATM   12  N   UNL     1      41.679  -9.667  -0.238  1.00  0.00    -0.352 N 
HETATM   13  O   UNL     1      42.299 -10.512   1.742  1.00  0.00    -0.247 OA
HETATM   14  H   UNL     1      40.865  -9.420  -0.783  1.00  0.00     0.160 HD
HETATM   15  H   UNL     1      42.289  -8.888  -0.014  1.00  0.00     0.160 HD
HETATM   16  O   UNL     1      39.258 -13.239   0.929  1.00  0.00    -0.271 OA
ENDBRANCH   7   8
BRANCH   7  17
HETATM   17  C   UNL     1      41.752 -14.448   2.463  1.00  0.00    -0.035 A 
HETATM   18  C   UNL     1      42.953 -14.676   1.768  1.00  0.00     0.009 A 
HETATM   19  C   UNL     1      43.528 -15.948   1.725  1.00  0.00     0.001 A 
HETATM   20  C   UNL     1      42.915 -17.014   2.376  1.00  0.00     0.000 A 
HETATM   21  C   UNL     1      41.725 -16.809   3.070  1.00  0.00     0.001 A 
HETATM   22  C   UNL     1      41.147 -15.538   3.113  1.00  0.00     0.009 A 
ENDBRANCH   7  17
ENDBRANCH   6   7
ENDBRANCH   3   6
BRANCH   2  23
HETATM   23  C   UNL     1      42.557 -13.857   6.098  1.00  0.00     0.043 A 
HETATM   24  C   UNL     1      43.764 -14.476   5.746  1.00  0.00     0.033 A 
HETATM   25  C   UNL     1      43.941 -15.841   5.989  1.00  0.00     0.044 A 
HETATM   26  C   UNL     1      42.921 -16.577   6.581  1.00  0.00     0.116 A 
HETATM   27  F   UNL     1      43.095 -17.883   6.812  1.00  0.00    -0.206 F 
HETATM   28  C   UNL     1      41.721 -15.973   6.939  1.00  0.00     0.044 A 
HETATM   29  C   UNL     1      41.535 -14.609   6.701  1.00  0.00     0.033 A 
ENDBRANCH   2  23
BRANCH   1  30
HETATM   30  C   UNL     1      43.877 -11.515   7.711  1.00  0.00     0.255 C 
HETATM   31  C   UNL     1      45.365 -11.386   7.373  1.00  0.00     0.049 C 
BRANCH  30  32
HETATM   32  N   UNL     1      43.526 -10.482   8.812  1.00  0.00    -0.060 N 
HETATM   33  H   UNL     1      42.523 -10.293   8.699  1.00  0.00     0.280 HD
HETATM   34  C   UNL     1      43.714 -10.966  10.242  1.00  0.00     0.236 C 
HETATM   35  C   UNL     1      43.103  -9.940  11.191  1.00  0.00     0.028 C 
HETATM   36  C   UNL     1      43.734  -8.564  11.002  1.00  0.00     0.003 C 
HETATM   37  C   UNL     1      43.668  -8.118   9.546  1.00  0.00     0.028 C 
HETATM   38  C   UNL     1      44.246  -9.166   8.601  1.00  0.00     0.236 C 
ENDBRANCH  30  32
ENDBRANCH   1  30
TORSDOF 7
ENDMDL
MODEL 2
REMARK VINA RESULT:      -8.4      2.476      7.158
REMARK  7 active torsions:
REMARK  status: ('A' for Active; 'I' for Inactive)
REMARK    1  A    between atoms: C_2  and  N_3 
REMARK    2  A    between atoms: C_2  and  C_10 
REMARK    3  A    between atoms: N_11  and  C_12 
REMARK    4  A    between atoms: C_19  and  S_20 
REMARK    5  A    between atoms: S_20  and  C_21 
REMARK    6  A    between atoms: C_21  and  C_22 
REMARK    7  A    between atoms: C_21  and  C_28 
REMARK       I    between atoms: C_22  and  N_23 
REMARK       I    between atoms: N_23  and  C_24 
REMARK       I    between atoms: C_24  and  N_25 
ROOT
HETATM    1  C   UNL     1      40.206 -11.970   2.168  1.00  0.00     0.166 A 
HETATM    2  N   UNL     1      41.267 -12.662   2.749  1.00  0.00    -0.274 N 
HETATM    3  C   UNL     1      41.967 -11.680   3.436  1.00  0.00     0.197 A 
HETATM    4  N   UNL     1      41.304 -10.550   3.380  1.00  0.00    -0.122 NA
HETATM    5  N   UNL     1      40.196 -10.732   2.614  1.00  0.00    -0.131 NA
ENDROOT
BRANCH   3   6
HETATM    6  S   UNL     1      43.440 -11.945   4.304  1.00  0.00    -0.070 SA
BRANCH   6   7
HETATM    7  C   UNL     1      42.920 -12.491   5.980  1.00  0.00     0.180 C 
BRANCH   7   8
HETATM    8  C   UNL     1      43.774 -11.827   7.078  1.00  0.00     0.244 C 
HETATM    9  N   UNL     1      43.221 -10.813   7.839  1.00  0.00    -0.278 N 
HETATM   10  C   UNL     1      42.104 -10.058   7.592  1.00  0.00     0.320 C 
HETATM   11  H   UNL     1      43.848 -10.471   8.548  1.00  0.00     0.173 HD
HETATM   12  N   UNL     1      41.906  -9.083   8.521  1.00  0.00    -0.352 N 
HETATM   13  O   UNL     1      41.304 -10.215   6.684  1.00  0.00    -0.247 OA
HETATM   14  H   UNL     1      42.691  -8.615   8.950  1.00  0.00     0.160 HD
HETATM   15  H   UNL     1      41.115  -8.481   8.320  1.00  0.00     0.160 HD
HETATM   16  O   UNL     1      44.953 -12.122   7.310  1.00  0.00    -0.271 OA
ENDBRANCH   7   8
BRANCH   7  17
HETATM   17  C   UNL     1      42.753 -14.000   6.097  1.00  0.00    -0.035 A 
HETATM   18  C   UNL     1      43.760 -14.846   5.599  1.00  0.00     0.009 A 
HETATM   19  C   UNL     1      43.639 -16.235   5.683  1.00  0.00     0.001 A 
HETATM   20  C   UNL     1      42.511 -16.803   6.268  1.00  0.00     0.000 A 
HETATM   21  C   UNL     1      41.503 -15.983   6.767  1.00  0.00     0.001 A 
HETATM   22  C   UNL     1      41.622 -14.594   6.683  1.00  0.00     0.009 A 
ENDBRANCH   7  17
ENDBRANCH   6   7
ENDBRANCH   3   6
BRANCH   2  23
HETATM   23  C   UNL     1      41.549 -14.046   2.607  1.00  0.00     0.043 A 
HETATM   24  C   UNL     1      42.688 -14.482   1.916  1.00  0.00     0.033 A 
HETATM   25  C   UNL     1      42.943 -15.851   1.792  1.00  0.00     0.044 A 
HETATM   26  C   UNL     1      42.069 -16.772   2.357  1.00  0.00     0.116 A 
HETATM   27  F   UNL     1      42.318 -18.080   2.237  1.00  0.00    -0.206 F 
HETATM   28  C   UNL     1      40.939 -16.351   3.048  1.00  0.00     0.044 A 
HETATM   29  C   UNL     1      40.675 -14.985   3.178  1.00  0.00     0.033 A 
ENDBRANCH   2  23
BRANCH   1  30
HETATM   30  C   UNL     1      39.326 -12.464   1.062  1.00  0.00     0.255 C 
HETATM   31  C   UNL     1      38.141 -11.525   0.822  1.00  0.00     0.049 C 
BRANCH  30  32
HETATM   32  N   UNL     1      40.062 -12.690  -0.284  1.00  0.00    -0.060 N 
HETATM   33  H   UNL     1      40.923 -13.194  -0.042  1.00  0.00     0.280 HD
HETATM   34  C   UNL     1      39.324 -13.558  -1.292  1.00  0.00     0.236 C 
HETATM   35  C   UNL     1      40.269 -13.883  -2.444  1.00  0.00     0.028 C 
HETATM   36  C   UNL     1      40.790 -12.613  -3.109  1.00  0.00     0.003 C 
HETATM   37  C   UNL     1      41.422 -11.672  -2.089  1.00  0.00     0.028 C 
HETATM   38  C   UNL     1      40.484 -11.383  -0.922  1.00  0.00     0.236 C 
ENDBRANCH  30  32
ENDBRANCH   1  30
TORSDOF 7
ENDMDL
MODEL 3
REMARK VINA RESULT:      -8.1      3.571      8.007
REMARK  7 active torsions:
REMARK  status: ('A' for Active; 'I' for Inactive)
REMARK    1  A    between atoms: C_2  and  N_3 
REMARK    2  A    between atoms: C_2  and  C_10 
REMARK    3  A    between atoms: N_11  and  C_12 
REMARK    4  A    between atoms: C_19  and  S_20 
REMARK    5  A    between atoms: S_20  and  C_21 
REMARK    6  A    between atoms: C_21  and  C_22 
REMARK    7  A    between atoms: C_21  and  C_28 
REMARK       I    between atoms: C_22  and  N_23 
REMARK       I    between atoms: N_23  and  C_24 
REMARK       I    between atoms: C_24  and  N_25 
ROOT
HETATM    1  C   UNL     1      40.433 -12.795   6.133  1.00  0.00     0.166 A 
HETATM    2  N   UNL     1      41.261 -11.690   6.317  1.00  0.00    -0.274 N 
HETATM    3  C   UNL     1      40.380 -10.662   6.623  1.00  0.00     0.197 A 
HETATM    4  N   UNL     1      39.168 -11.148   6.746  1.00  0.00    -0.122 NA
HETATM    5  N   UNL     1      39.200 -12.478   6.467  1.00  0.00    -0.131 NA
ENDROOT
BRANCH   3   6
HETATM    6  S   UNL     1      40.840  -9.016   6.888  1.00  0.00    -0.070 SA
BRANCH   6   7
HETATM    7  C   UNL     1      41.182  -8.896   8.690  1.00  0.00     0.180 C 
BRANCH   7   8
HETATM    8  C   UNL     1      40.488  -7.670   9.315  1.00  0.00     0.244 C 
HETATM    9  N   UNL     1      39.864  -7.804  10.541  1.00  0.00    -0.278 N 
HETATM   10  C   UNL     1      39.481  -8.945  11.198  1.00  0.00     0.320 C 
HETATM   11  H   UNL     1      39.470  -6.940  10.876  1.00  0.00     0.173 HD
HETATM   12  N   UNL     1      38.809  -8.694  12.354  1.00  0.00    -0.352 N 
HETATM   13  O   UNL     1      39.724 -10.094  10.863  1.00  0.00    -0.247 OA
HETATM   14  H   UNL     1      38.197  -7.894  12.429  1.00  0.00     0.160 HD
HETATM   15  H   UNL     1      38.471  -9.529  12.820  1.00  0.00     0.160 HD
HETATM   16  O   UNL     1      40.420  -6.562   8.770  1.00  0.00    -0.271 OA
ENDBRANCH   7   8
BRANCH   7  17
HETATM   17  C   UNL     1      42.656  -9.065   9.035  1.00  0.00    -0.035 A 
HETATM   18  C   UNL     1      43.630  -8.475   8.210  1.00  0.00     0.009 A 
HETATM   19  C   UNL     1      44.991  -8.614   8.492  1.00  0.00     0.001 A 
HETATM   20  C   UNL     1      45.403  -9.342   9.604  1.00  0.00     0.000 A 
HETATM   21  C   UNL     1      44.455  -9.934  10.434  1.00  0.00     0.001 A 
HETATM   22  C   UNL     1      43.093  -9.798  10.152  1.00  0.00     0.009 A 
ENDBRANCH   7  17
ENDBRANCH   6   7
ENDBRANCH   3   6
BRANCH   2  23
HETATM   23  C   UNL     1      42.672 -11.661   6.171  1.00  0.00     0.043 A 
HETATM   24  C   UNL     1      43.264 -11.266   4.963  1.00  0.00     0.033 A 
HETATM   25  C   UNL     1      44.657 -11.245   4.846  1.00  0.00     0.044 A 
HETATM   26  C   UNL     1      45.448 -11.613   5.929  1.00  0.00     0.116 A 
HETATM   27  F   UNL     1      46.780 -11.589   5.813  1.00  0.00    -0.206 F 
HETATM   28  C   UNL     1      44.873 -12.001   7.133  1.00  0.00     0.044 A 
HETATM   29  C   UNL     1      43.482 -12.025   7.259  1.00  0.00     0.033 A 
ENDBRANCH   2  23
BRANCH   1  30
HETATM   30  C   UNL     1      40.812 -14.086   5.475  1.00  0.00     0.255 C 
HETATM   31  C   UNL     1      40.377 -15.293   6.311  1.00  0.00     0.049 C 
BRANCH  30  32
HETATM   32  N   UNL     1      40.258 -14.253   4.036  1.00  0.00    -0.060 N 
HETATM   33  H   UNL     1      39.237 -14.271   4.138  1.00  0.00     0.280 HD
HETATM   34  C   UNL     1      40.575 -13.111   3.081  1.00  0.00     0.236 C 
HETATM   35  C   UNL     1      39.767 -13.305   1.802  1.00  0.00     0.028 C 
HETATM   36  C   UNL     1      40.071 -14.651   1.152  1.00  0.00     0.003 C 
HETATM   37  C   UNL     1      39.880 -15.799   2.136  1.00  0.00     0.028 C 
HETATM   38  C   UNL     1      40.661 -15.579   3.427  1.00  0.00     0.236 C 
ENDBRANCH  30  32
ENDBRANCH   1  30
TORSDOF 7
ENDMDL
MODEL 4
REMARK VINA RESULT:      -8.1      3.736      7.739
REMARK  7 active torsions:
REMARK  status: ('A' for Active; 'I' for Inactive)
REMARK    1  A    between atoms: C_2  and  N_3 
REMARK    2  A    between atoms: C_2  and  C_10 
REMARK    3  A    between atoms: N_11  and  C_12 
REMARK    4  A    between atoms: C_19  and  S_20 
REMARK    5  A    between atoms: S_20  and  C_21 
REMARK    6  A    between atoms: C_21  and  C_22 
REMARK    7  A    between atoms: C_21  and  C_28 
REMARK       I    between atoms: C_22  and  N_23 
REMARK       I    between atoms: N_23  and  C_24 
REMARK       I    between atoms: C_24  and  N_25 
ROOT
HETATM    1  C   UNL     1      39.799 -12.004   6.220  1.00  0.00     0.166 A 
HETATM    2  N   UNL     1      40.807 -11.079   6.487  1.00  0.00    -0.274 N 
HETATM    3  C   UNL     1      40.120  -9.957   6.927  1.00  0.00     0.197 A 
HETATM    4  N   UNL     1      38.845 -10.243   7.042  1.00  0.00    -0.122 NA
HETATM    5  N   UNL     1      38.645 -11.522   6.629  1.00  0.00    -0.131 NA
ENDROOT
BRANCH   3   6
HETATM    6  S   UNL     1      40.859  -8.449   7.342  1.00  0.00    -0.070 SA
BRANCH   6   7
HETATM    7  C   UNL     1      41.401  -8.643   9.088  1.00  0.00     0.180 C 
BRANCH   7   8
HETATM    8  C   UNL     1      40.845  -7.515   9.978  1.00  0.00     0.244 C 
HETATM    9  N   UNL     1      40.147  -7.846  11.125  1.00  0.00    -0.278 N 
HETATM   10  C   UNL     1      39.584  -9.045  11.480  1.00  0.00     0.320 C 
HETATM   11  H   UNL     1      39.856  -7.040  11.653  1.00  0.00     0.173 HD
HETATM   12  N   UNL     1      38.894  -8.983  12.651  1.00  0.00    -0.352 N 
HETATM   13  O   UNL     1      39.689 -10.104  10.881  1.00  0.00    -0.247 OA
HETATM   14  H   UNL     1      38.391  -8.145  12.906  1.00  0.00     0.160 HD
HETATM   15  H   UNL     1      38.425  -9.848  12.895  1.00  0.00     0.160 HD
HETATM   16  O   UNL     1      40.952  -6.311   9.717  1.00  0.00    -0.271 OA
ENDBRANCH   7   8
BRANCH   7  17
HETATM   17  C   UNL     1      42.893  -8.918   9.229  1.00  0.00    -0.035 A 
HETATM   18  C   UNL     1      43.351  -9.703  10.302  1.00  0.00     0.009 A 
HETATM   19  C   UNL     1      44.712  -9.972  10.466  1.00  0.00     0.001 A 
HETATM   20  C   UNL     1      45.638  -9.462   9.561  1.00  0.00     0.000 A 
HETATM   21  C   UNL     1      45.205  -8.683   8.492  1.00  0.00     0.001 A 
HETATM   22  C   UNL     1      43.845  -8.412   8.327  1.00  0.00     0.009 A 
ENDBRANCH   7  17
ENDBRANCH   6   7
ENDBRANCH   3   6
BRANCH   2  23
HETATM   23  C   UNL     1      42.200 -11.273   6.295  1.00  0.00     0.043 A 
HETATM   24  C   UNL     1      42.825 -10.881   5.104  1.00  0.00     0.033 A 
HETATM   25  C   UNL     1      44.199 -11.081   4.941  1.00  0.00     0.044 A 
HETATM   26  C   UNL     1      44.939 -11.666   5.963  1.00  0.00     0.116 A 
HETATM   27  F   UNL     1      46.253 -11.855   5.804  1.00  0.00    -0.206 F 
HETATM   28  C   UNL     1      44.331 -12.055   7.151  1.00  0.00     0.044 A 
HETATM   29  C   UNL     1      42.959 -11.858   7.323  1.00  0.00     0.033 A 
ENDBRANCH   2  23
BRANCH   1  30
HETATM   30  C   UNL     1      39.941 -13.263   5.422  1.00  0.00     0.255 C 
HETATM   31  C   UNL     1      40.042 -12.971   3.922  1.00  0.00     0.049 C 
BRANCH  30  32
HETATM   32  N   UNL     1      41.144 -14.148   5.839  1.00  0.00    -0.060 N 
HETATM   33  H   UNL     1      41.709 -13.562   6.464  1.00  0.00     0.280 HD
HETATM   34  C   UNL     1      40.788 -15.400   6.626  1.00  0.00     0.236 C 
HETATM   35  C   UNL     1      42.073 -16.021   7.164  1.00  0.00     0.028 C 
HETATM   36  C   UNL     1      43.044 -16.354   6.036  1.00  0.00     0.003 C 
HETATM   37  C   UNL     1      43.313 -15.136   5.159  1.00  0.00     0.028 C 
HETATM   38  C   UNL     1      42.022 -14.499   4.656  1.00  0.00     0.236 C 
ENDBRANCH  30  32
ENDBRANCH   1  30
TORSDOF 7
ENDMDL
MODEL 5
REMARK VINA RESULT:      -7.6      2.602      3.802
REMARK  7 active torsions:
REMARK  status: ('A' for Active; 'I' for Inactive)
REMARK    1  A    between atoms: C_2  and  N_3 
REMARK    2  A    between atoms: C_2  and  C_10 
REMARK    3  A    between atoms: N_11  and  C_12 
REMARK    4  A    between atoms: C_19  and  S_20 
REMARK    5  A    between atoms: S_20  and  C_21 
REMARK    6  A    between atoms: C_21  and  C_22 
REMARK    7  A    between atoms: C_21  and  C_28 
REMARK       I    between atoms: C_22  and  N_23 
REMARK       I    between atoms: N_23  and  C_24 
REMARK       I    between atoms: C_24  and  N_25 
ROOT
HETATM    1  C   UNL     1      40.457 -10.757   4.492  1.00  0.00     0.166 A 
HETATM    2  N   UNL     1      41.288 -11.825   4.826  1.00  0.00    -0.274 N 
HETATM    3  C   UNL     1      40.501 -12.944   4.593  1.00  0.00     0.197 A 
HETATM    4  N   UNL     1      39.369 -12.574   4.043  1.00  0.00    -0.122 NA
HETATM    5  N   UNL     1      39.349 -11.218   3.954  1.00  0.00    -0.131 NA
ENDROOT
BRANCH   3   6
HETATM    6  S   UNL     1      40.989 -14.574   4.904  1.00  0.00    -0.070 SA
BRANCH   6   7
HETATM    7  C   UNL     1      41.627 -15.200   3.298  1.00  0.00     0.180 C 
BRANCH   7   8
HETATM    8  C   UNL     1      40.501 -15.320   2.253  1.00  0.00     0.244 C 
HETATM    9  N   UNL     1      40.561 -14.547   1.108  1.00  0.00    -0.278 N 
HETATM   10  C   UNL     1      41.319 -13.433   0.855  1.00  0.00     0.320 C 
HETATM   11  H   UNL     1      39.797 -14.724   0.476  1.00  0.00     0.173 HD
HETATM   12  N   UNL     1      41.055 -12.874  -0.358  1.00  0.00    -0.352 N 
HETATM   13  O   UNL     1      42.188 -12.965   1.573  1.00  0.00    -0.247 OA
HETATM   14  H   UNL     1      40.120 -12.889  -0.737  1.00  0.00     0.160 HD
HETATM   15  H   UNL     1      41.568 -12.017  -0.533  1.00  0.00     0.160 HD
HETATM   16  O   UNL     1      39.511 -16.049   2.384  1.00  0.00    -0.271 OA
ENDBRANCH   7   8
BRANCH   7  17
HETATM   17  C   UNL     1      42.525 -16.422   3.441  1.00  0.00    -0.035 A 
HETATM   18  C   UNL     1      43.213 -16.634   4.650  1.00  0.00     0.009 A 
HETATM   19  C   UNL     1      44.049 -17.740   4.816  1.00  0.00     0.001 A 
HETATM   20  C   UNL     1      44.214 -18.654   3.779  1.00  0.00     0.000 A 
HETATM   21  C   UNL     1      43.542 -18.461   2.574  1.00  0.00     0.001 A 
HETATM   22  C   UNL     1      42.706 -17.355   2.406  1.00  0.00     0.009 A 
ENDBRANCH   7  17
ENDBRANCH   6   7
ENDBRANCH   3   6
BRANCH   2  23
HETATM   23  C   UNL     1      42.614 -11.736   5.326  1.00  0.00     0.043 A 
HETATM   24  C   UNL     1      42.881 -11.897   6.692  1.00  0.00     0.033 A 
HETATM   25  C   UNL     1      44.196 -11.807   7.158  1.00  0.00     0.044 A 
HETATM   26  C   UNL     1      45.232 -11.562   6.264  1.00  0.00     0.116 A 
HETATM   27  F   UNL     1      46.488 -11.478   6.714  1.00  0.00    -0.206 F 
HETATM   28  C   UNL     1      44.980 -11.406   4.906  1.00  0.00     0.044 A 
HETATM   29  C   UNL     1      43.669 -11.494   4.431  1.00  0.00     0.033 A 
ENDBRANCH   2  23
BRANCH   1  30
HETATM   30  C   UNL     1      40.673  -9.320   4.853  1.00  0.00     0.255 C 
HETATM   31  C   UNL     1      39.798  -8.389   4.009  1.00  0.00     0.049 C 
BRANCH  30  32
HETATM   32  N   UNL     1      40.438  -9.000   6.352  1.00  0.00    -0.060 N 
HETATM   33  H   UNL     1      39.796  -8.199   6.361  1.00  0.00     0.280 HD
HETATM   34  C   UNL     1      39.763 -10.102   7.155  1.00  0.00     0.236 C 
HETATM   35  C   UNL     1      39.386  -9.549   8.525  1.00  0.00     0.028 C 
HETATM   36  C   UNL     1      40.609  -9.017   9.265  1.00  0.00     0.003 C 
HETATM   37  C   UNL     1      41.370  -8.001   8.420  1.00  0.00     0.028 C 
HETATM   38  C   UNL     1      41.710  -8.549   7.039  1.00  0.00     0.236 C 
ENDBRANCH  30  32
ENDBRANCH   1  30
TORSDOF 7
ENDMDL
MODEL 6
REMARK VINA RESULT:      -7.5      3.393      6.916
REMARK  7 active torsions:
REMARK  status: ('A' for Active; 'I' for Inactive)
REMARK    1  A    between atoms: C_2  and  N_3 
REMARK    2  A    between atoms: C_2  and  C_10 
REMARK    3  A    between atoms: N_11  and  C_12 
REMARK    4  A    between atoms: C_19  and  S_20 
REMARK    5  A    between atoms: S_20  and  C_21 
REMARK    6  A    between atoms: C_21  and  C_22 
REMARK    7  A    between atoms: C_21  and  C_28 
REMARK       I    between atoms: C_22  and  N_23 
REMARK       I    between atoms: N_23  and  C_24 
REMARK       I    between atoms: C_24  and  N_25 
ROOT
HETATM    1  C   UNL     1      43.359 -15.742   5.566  1.00  0.00     0.166 A 
HETATM    2  N   UNL     1      42.213 -15.148   5.041  1.00  0.00    -0.274 N 
HETATM    3  C   UNL     1      41.492 -14.767   6.164  1.00  0.00     0.197 A 
HETATM    4  N   UNL     1      42.210 -14.988   7.239  1.00  0.00    -0.122 NA
HETATM    5  N   UNL     1      43.381 -15.569   6.871  1.00  0.00    -0.131 NA
ENDROOT
BRANCH   3   6
HETATM    6  S   UNL     1      39.926 -14.032   6.127  1.00  0.00    -0.070 SA
BRANCH   6   7
HETATM    7  C   UNL     1      40.230 -12.272   5.692  1.00  0.00     0.180 C 
BRANCH   7   8
HETATM    8  C   UNL     1      39.502 -11.320   6.660  1.00  0.00     0.244 C 
HETATM    9  N   UNL     1      40.208 -10.280   7.238  1.00  0.00    -0.278 N 
HETATM   10  C   UNL     1      41.563 -10.106   7.340  1.00  0.00     0.320 C 
HETATM   11  H   UNL     1      39.634  -9.698   7.826  1.00  0.00     0.173 HD
HETATM   12  N   UNL     1      41.906  -9.000   8.056  1.00  0.00    -0.352 N 
HETATM   13  O   UNL     1      42.428 -10.801   6.830  1.00  0.00    -0.247 OA
HETATM   14  H   UNL     1      41.344  -8.703   8.840  1.00  0.00     0.160 HD
HETATM   15  H   UNL     1      42.905  -8.891   8.187  1.00  0.00     0.160 HD
HETATM   16  O   UNL     1      38.316 -11.442   6.988  1.00  0.00    -0.271 OA
ENDBRANCH   7   8
BRANCH   7  17
HETATM   17  C   UNL     1      40.042 -11.976   4.210  1.00  0.00    -0.035 A 
HETATM   18  C   UNL     1      40.916 -11.080   3.569  1.00  0.00     0.009 A 
HETATM   19  C   UNL     1      40.770 -10.780   2.213  1.00  0.00     0.001 A 
HETATM   20  C   UNL     1      39.750 -11.371   1.473  1.00  0.00     0.000 A 
HETATM   21  C   UNL     1      38.874 -12.261   2.089  1.00  0.00     0.001 A 
HETATM   22  C   UNL     1      39.018 -12.561   3.445  1.00  0.00     0.009 A 
ENDBRANCH   7  17
ENDBRANCH   6   7
ENDBRANCH   3   6
BRANCH   2  23
HETATM   23  C   UNL     1      41.884 -15.024   3.666  1.00  0.00     0.043 A 
HETATM   24  C   UNL     1      42.630 -14.194   2.818  1.00  0.00     0.033 A 
HETATM   25  C   UNL     1      42.286 -14.092   1.467  1.00  0.00     0.044 A 
HETATM   26  C   UNL     1      41.207 -14.814   0.971  1.00  0.00     0.116 A 
HETATM   27  F   UNL     1      40.882 -14.714  -0.323  1.00  0.00    -0.206 F 
HETATM   28  C   UNL     1      40.463 -15.644   1.801  1.00  0.00     0.044 A 
HETATM   29  C   UNL     1      40.799 -15.754   3.152  1.00  0.00     0.033 A 
ENDBRANCH   2  23
BRANCH   1  30
HETATM   30  C   UNL     1      44.325 -16.612   4.824  1.00  0.00     0.255 C 
HETATM   31  C   UNL     1      45.496 -17.041   5.714  1.00  0.00     0.049 C 
BRANCH  30  32
HETATM   32  N   UNL     1      43.687 -17.879   4.197  1.00  0.00    -0.060 N 
HETATM   33  H   UNL     1      42.719 -17.892   4.537  1.00  0.00     0.280 HD
HETATM   34  C   UNL     1      43.610 -17.884   2.677  1.00  0.00     0.236 C 
HETATM   35  C   UNL     1      42.750 -19.063   2.235  1.00  0.00     0.028 C 
HETATM   36  C   UNL     1      43.313 -20.384   2.749  1.00  0.00     0.003 C 
HETATM   37  C   UNL     1      43.516 -20.351   4.259  1.00  0.00     0.028 C 
HETATM   38  C   UNL     1      44.345 -19.148   4.697  1.00  0.00     0.236 C 
ENDBRANCH  30  32
ENDBRANCH   1  30
TORSDOF 7
ENDMDL
MODEL 7
REMARK VINA RESULT:      -7.5      2.419      4.677
REMARK  7 active torsions:
REMARK  status: ('A' for Active; 'I' for Inactive)
REMARK    1  A    between atoms: C_2  and  N_3 
REMARK    2  A    between atoms: C_2  and  C_10 
REMARK    3  A    between atoms: N_11  and  C_12 
REMARK    4  A    between atoms: C_19  and  S_20 
REMARK    5  A    between atoms: S_20  and  C_21 
REMARK    6  A    between atoms: C_21  and  C_22 
REMARK    7  A    between atoms: C_21  and  C_28 
REMARK       I    between atoms: C_22  and  N_23 
REMARK       I    between atoms: N_23  and  C_24 
REMARK       I    between atoms: C_24  and  N_25 
ROOT
HETATM    1  C   UNL     1      42.313 -12.435   4.714  1.00  0.00     0.166 A 
HETATM    2  N   UNL     1      41.608 -13.163   3.758  1.00  0.00    -0.274 N 
HETATM    3  C   UNL     1      40.477 -12.393   3.521  1.00  0.00     0.197 A 
HETATM    4  N   UNL     1      40.579 -11.258   4.171  1.00  0.00    -0.122 NA
HETATM    5  N   UNL     1      41.730 -11.269   4.893  1.00  0.00    -0.131 NA
ENDROOT
BRANCH   3   6
HETATM    6  S   UNL     1      39.186 -12.839   2.460  1.00  0.00    -0.070 SA
BRANCH   6   7
HETATM    7  C   UNL     1      39.532 -11.959   0.884  1.00  0.00     0.180 C 
BRANCH   7   8
HETATM    8  C   UNL     1      38.983 -10.520   0.910  1.00  0.00     0.244 C 
HETATM    9  N   UNL     1      39.839  -9.469   0.638  1.00  0.00    -0.278 N 
HETATM   10  C   UNL     1      41.210  -9.447   0.637  1.00  0.00     0.320 C 
HETATM   11  H   UNL     1      39.376  -8.575   0.648  1.00  0.00     0.173 HD
HETATM   12  N   UNL     1      41.722  -8.207   0.409  1.00  0.00    -0.352 N 
HETATM   13  O   UNL     1      41.953 -10.406   0.772  1.00  0.00    -0.247 OA
HETATM   14  H   UNL     1      41.250  -7.385   0.757  1.00  0.00     0.160 HD
HETATM   15  H   UNL     1      42.734  -8.167   0.462  1.00  0.00     0.160 HD
HETATM   16  O   UNL     1      37.814 -10.231   1.194  1.00  0.00    -0.271 OA
ENDBRANCH   7   8
BRANCH   7  17
HETATM   17  C   UNL     1      39.181 -12.777  -0.352  1.00  0.00    -0.035 A 
HETATM   18  C   UNL     1      38.294 -12.242  -1.304  1.00  0.00     0.009 A 
HETATM   19  C   UNL     1      37.944 -12.965  -2.446  1.00  0.00     0.001 A 
HETATM   20  C   UNL     1      38.474 -14.234  -2.659  1.00  0.00     0.000 A 
HETATM   21  C   UNL     1      39.353 -14.782  -1.729  1.00  0.00     0.001 A 
HETATM   22  C   UNL     1      39.703 -14.061  -0.585  1.00  0.00     0.009 A 
ENDBRANCH   7  17
ENDBRANCH   6   7
ENDBRANCH   3   6
BRANCH   2  23
HETATM   23  C   UNL     1      41.980 -14.419   3.211  1.00  0.00     0.043 A 
HETATM   24  C   UNL     1      41.327 -15.597   3.601  1.00  0.00     0.033 A 
HETATM   25  C   UNL     1      41.712 -16.821   3.047  1.00  0.00     0.044 A 
HETATM   26  C   UNL     1      42.738 -16.864   2.110  1.00  0.00     0.116 A 
HETATM   27  F   UNL     1      43.102 -18.037   1.581  1.00  0.00    -0.206 F 
HETATM   28  C   UNL     1      43.389 -15.702   1.712  1.00  0.00     0.044 A 
HETATM   29  C   UNL     1      43.012 -14.475   2.260  1.00  0.00     0.033 A 
ENDBRANCH   2  23
BRANCH   1  30
HETATM   30  C   UNL     1      43.435 -12.945   5.564  1.00  0.00     0.255 C 
HETATM   31  C   UNL     1      43.562 -12.150   6.867  1.00  0.00     0.049 C 
BRANCH  30  32
HETATM   32  N   UNL     1      43.337 -14.453   5.909  1.00  0.00    -0.060 N 
HETATM   33  H   UNL     1      42.927 -14.896   5.079  1.00  0.00     0.280 HD
HETATM   34  C   UNL     1      44.667 -15.151   6.157  1.00  0.00     0.236 C 
HETATM   35  C   UNL     1      44.422 -16.655   6.239  1.00  0.00     0.028 C 
HETATM   36  C   UNL     1      43.423 -16.995   7.339  1.00  0.00     0.003 C 
HETATM   37  C   UNL     1      42.128 -16.206   7.177  1.00  0.00     0.028 C 
HETATM   38  C   UNL     1      42.385 -14.708   7.059  1.00  0.00     0.236 C 
ENDBRANCH  30  32
ENDBRANCH   1  30
TORSDOF 7
ENDMDL
MODEL 8
REMARK VINA RESULT:      -7.4      2.443      7.219
REMARK  7 active torsions:
REMARK  status: ('A' for Active; 'I' for Inactive)
REMARK    1  A    between atoms: C_2  and  N_3 
REMARK    2  A    between atoms: C_2  and  C_10 
REMARK    3  A    between atoms: N_11  and  C_12 
REMARK    4  A    between atoms: C_19  and  S_20 
REMARK    5  A    between atoms: S_20  and  C_21 
REMARK    6  A    between atoms: C_21  and  C_22 
REMARK    7  A    between atoms: C_21  and  C_28 
REMARK       I    between atoms: C_22  and  N_23 
REMARK       I    between atoms: N_23  and  C_24 
REMARK       I    between atoms: C_24  and  N_25 
ROOT
HETATM    1  C   UNL     1      39.999 -13.575   2.370  1.00  0.00     0.166 A 
HETATM    2  N   UNL     1      40.609 -13.670   3.620  1.00  0.00    -0.274 N 
HETATM    3  C   UNL     1      40.278 -12.475   4.243  1.00  0.00     0.197 A 
HETATM    4  N   UNL     1      39.440 -11.806   3.487  1.00  0.00    -0.122 NA
HETATM    5  N   UNL     1      39.244 -12.498   2.334  1.00  0.00    -0.131 NA
ENDROOT
BRANCH   3   6
HETATM    6  S   UNL     1      40.825 -11.998   5.813  1.00  0.00    -0.070 SA
BRANCH   6   7
HETATM    7  C   UNL     1      42.003 -10.619   5.514  1.00  0.00     0.180 C 
BRANCH   7   8
HETATM    8  C   UNL     1      42.289 -10.438   4.011  1.00  0.00     0.244 C 
HETATM    9  N   UNL     1      41.733  -9.361   3.346  1.00  0.00    -0.278 N 
HETATM   10  C   UNL     1      40.695  -8.551   3.727  1.00  0.00     0.320 C 
HETATM   11  H   UNL     1      42.007  -9.315   2.378  1.00  0.00     0.173 HD
HETATM   12  N   UNL     1      40.356  -7.637   2.777  1.00  0.00    -0.352 N 
HETATM   13  O   UNL     1      40.120  -8.561   4.804  1.00  0.00    -0.247 OA
HETATM   14  H   UNL     1      40.423  -7.868   1.796  1.00  0.00     0.160 HD
HETATM   15  H   UNL     1      39.552  -7.070   3.023  1.00  0.00     0.160 HD
HETATM   16  O   UNL     1      42.967 -11.223   3.337  1.00  0.00    -0.271 OA
ENDBRANCH   7   8
BRANCH   7  17
HETATM   17  C   UNL     1      43.230 -10.669   6.417  1.00  0.00    -0.035 A 
HETATM   18  C   UNL     1      43.283  -9.842   7.554  1.00  0.00     0.009 A 
HETATM   19  C   UNL     1      44.394  -9.857   8.400  1.00  0.00     0.001 A 
HETATM   20  C   UNL     1      45.469 -10.697   8.128  1.00  0.00     0.000 A 
HETATM   21  C   UNL     1      45.436 -11.522   7.007  1.00  0.00     0.001 A 
HETATM   22  C   UNL     1      44.327 -11.509   6.158  1.00  0.00     0.009 A 
ENDBRANCH   7  17
ENDBRANCH   6   7
ENDBRANCH   3   6
BRANCH   2  23
HETATM   23  C   UNL     1      41.409 -14.745   4.087  1.00  0.00     0.043 A 
HETATM   24  C   UNL     1      40.886 -15.706   4.964  1.00  0.00     0.033 A 
HETATM   25  C   UNL     1      41.695 -16.756   5.407  1.00  0.00     0.044 A 
HETATM   26  C   UNL     1      43.013 -16.844   4.974  1.00  0.00     0.116 A 
HETATM   27  F   UNL     1      43.783 -17.851   5.399  1.00  0.00    -0.206 F 
HETATM   28  C   UNL     1      43.542 -15.901   4.100  1.00  0.00     0.044 A 
HETATM   29  C   UNL     1      42.741 -14.848   3.652  1.00  0.00     0.033 A 
ENDBRANCH   2  23
BRANCH   1  30
HETATM   30  C   UNL     1      40.289 -14.430   1.176  1.00  0.00     0.255 C 
HETATM   31  C   UNL     1      39.764 -15.856   1.363  1.00  0.00     0.049 C 
BRANCH  30  32
HETATM   32  N   UNL     1      39.735 -13.867  -0.159  1.00  0.00    -0.060 N 
HETATM   33  H   UNL     1      38.841 -13.424   0.084  1.00  0.00     0.280 HD
HETATM   34  C   UNL     1      40.586 -12.788  -0.813  1.00  0.00     0.236 C 
HETATM   35  C   UNL     1      39.796 -12.174  -1.965  1.00  0.00     0.028 C 
HETATM   36  C   UNL     1      39.390 -13.232  -2.986  1.00  0.00     0.003 C 
HETATM   37  C   UNL     1      38.645 -14.385  -2.323  1.00  0.00     0.028 C 
HETATM   38  C   UNL     1      39.424 -14.969  -1.150  1.00  0.00     0.236 C 
ENDBRANCH  30  32
ENDBRANCH   1  30
TORSDOF 7
ENDMDL
MODEL 9
REMARK VINA RESULT:      -7.4      2.774      7.447
REMARK  7 active torsions:
REMARK  status: ('A' for Active; 'I' for Inactive)
REMARK    1  A    between atoms: C_2  and  N_3 
REMARK    2  A    between atoms: C_2  and  C_10 
REMARK    3  A    between atoms: N_11  and  C_12 
REMARK    4  A    between atoms: C_19  and  S_20 
REMARK    5  A    between atoms: S_20  and  C_21 
REMARK    6  A    between atoms: C_21  and  C_22 
REMARK    7  A    between atoms: C_21  and  C_28 
REMARK       I    between atoms: C_22  and  N_23 
REMARK       I    between atoms: N_23  and  C_24 
REMARK       I    between atoms: C_24  and  N_25 
ROOT
HETATM    1  C   UNL     1      39.579 -12.896   0.903  1.00  0.00     0.166 A 
HETATM    2  N   UNL     1      40.101 -13.452   2.069  1.00  0.00    -0.274 N 
HETATM    3  C   UNL     1      39.454 -12.761   3.085  1.00  0.00     0.197 A 
HETATM    4  N   UNL     1      38.540 -11.977   2.566  1.00  0.00    -0.122 NA
HETATM    5  N   UNL     1      38.596 -12.077   1.212  1.00  0.00    -0.131 NA
ENDROOT
BRANCH   3   6
HETATM    6  S   UNL     1      39.758 -12.980   4.774  1.00  0.00    -0.070 SA
BRANCH   6   7
HETATM    7  C   UNL     1      40.619 -11.448   5.311  1.00  0.00     0.180 C 
BRANCH   7   8
HETATM    8  C   UNL     1      40.515 -10.341   4.245  1.00  0.00     0.244 C 
HETATM    9  N   UNL     1      39.492  -9.415   4.335  1.00  0.00    -0.278 N 
HETATM   10  C   UNL     1      38.333  -9.475   5.064  1.00  0.00     0.320 C 
HETATM   11  H   UNL     1      39.533  -8.716   3.611  1.00  0.00     0.173 HD
HETATM   12  N   UNL     1      37.509  -8.415   4.842  1.00  0.00    -0.352 N 
HETATM   13  O   UNL     1      38.027 -10.333   5.877  1.00  0.00    -0.247 OA
HETATM   14  H   UNL     1      37.456  -7.988   3.928  1.00  0.00     0.160 HD
HETATM   15  H   UNL     1      36.623  -8.475   5.331  1.00  0.00     0.160 HD
HETATM   16  O   UNL     1      41.278 -10.239   3.277  1.00  0.00    -0.271 OA
ENDBRANCH   7   8
BRANCH   7  17
HETATM   17  C   UNL     1      42.017 -11.705   5.861  1.00  0.00    -0.035 A 
HETATM   18  C   UNL     1      42.552 -13.004   5.807  1.00  0.00     0.009 A 
HETATM   19  C   UNL     1      43.827 -13.277   6.306  1.00  0.00     0.001 A 
HETATM   20  C   UNL     1      44.591 -12.258   6.867  1.00  0.00     0.000 A 
HETATM   21  C   UNL     1      44.079 -10.965   6.931  1.00  0.00     0.001 A 
HETATM   22  C   UNL     1      42.803 -10.690   6.433  1.00  0.00     0.009 A 
ENDBRANCH   7  17
ENDBRANCH   6   7
ENDBRANCH   3   6
BRANCH   2  23
HETATM   23  C   UNL     1      41.096 -14.461   2.149  1.00  0.00     0.043 A 
HETATM   24  C   UNL     1      42.458 -14.137   2.093  1.00  0.00     0.033 A 
HETATM   25  C   UNL     1      43.418 -15.150   2.176  1.00  0.00     0.044 A 
HETATM   26  C   UNL     1      43.016 -16.473   2.317  1.00  0.00     0.116 A 
HETATM   27  F   UNL     1      43.938 -17.439   2.397  1.00  0.00    -0.206 F 
HETATM   28  C   UNL     1      41.668 -16.807   2.379  1.00  0.00     0.044 A 
HETATM   29  C   UNL     1      40.702 -15.801   2.297  1.00  0.00     0.033 A 
ENDBRANCH   2  23
BRANCH   1  30
HETATM   30  C   UNL     1      40.148 -13.032  -0.475  1.00  0.00     0.255 C 
HETATM   31  C   UNL     1      39.533 -14.217  -1.224  1.00  0.00     0.049 C 
BRANCH  30  32
HETATM   32  N   UNL     1      40.004 -11.761  -1.351  1.00  0.00    -0.060 N 
HETATM   33  H   UNL     1      39.597 -11.050  -0.733  1.00  0.00     0.280 HD
HETATM   34  C   UNL     1      41.309 -11.181  -1.876  1.00  0.00     0.236 C 
HETATM   35  C   UNL     1      41.023  -9.820  -2.501  1.00  0.00     0.028 C 
HETATM   36  C   UNL     1      39.994  -9.929  -3.622  1.00  0.00     0.003 C 
HETATM   37  C   UNL     1      38.725 -10.624  -3.144  1.00  0.00     0.028 C 
HETATM   38  C   UNL     1      39.023 -11.967  -2.487  1.00  0.00     0.236 C 
ENDBRANCH  30  32
ENDBRANCH   1  30
TORSDOF 7
ENDMDL
MODEL 10
REMARK VINA RESULT:      -7.3     18.018     20.384
REMARK  7 active torsions:
REMARK  status: ('A' for Active; 'I' for Inactive)
REMARK    1  A    between atoms: C_2  and  N_3 
REMARK    2  A    between atoms: C_2  and  C_10 
REMARK    3  A    between atoms: N_11  and  C_12 
REMARK    4  A    between atoms: C_19  and  S_20 
REMARK    5  A    between atoms: S_20  and  C_21 
REMARK    6  A    between atoms: C_21  and  C_22 
REMARK    7  A    between atoms: C_21  and  C_28 
REMARK       I    between atoms: C_22  and  N_23 
REMARK       I    between atoms: N_23  and  C_24 
REMARK       I    between atoms: C_24  and  N_25 
ROOT
HETATM    1  C   UNL     1      46.247 -30.132  -0.712  1.00  0.00     0.166 A 
HETATM    2  N   UNL     1      47.034 -30.855   0.183  1.00  0.00    -0.274 N 
HETATM    3  C   UNL     1      47.779 -31.695  -0.634  1.00  0.00     0.197 A 
HETATM    4  N   UNL     1      47.554 -31.394  -1.890  1.00  0.00    -0.122 NA
HETATM    5  N   UNL     1      46.622 -30.406  -1.943  1.00  0.00    -0.131 NA
ENDROOT
BRANCH   3   6
HETATM    6  S   UNL     1      48.895 -32.887  -0.064  1.00  0.00    -0.070 SA
BRANCH   6   7
HETATM    7  C   UNL     1      50.396 -31.947   0.426  1.00  0.00     0.180 C 
BRANCH   7   8
HETATM    8  C   UNL     1      51.662 -32.518  -0.244  1.00  0.00     0.244 C 
HETATM    9  N   UNL     1      52.270 -31.797  -1.255  1.00  0.00    -0.278 N 
HETATM   10  C   UNL     1      51.769 -30.764  -2.004  1.00  0.00     0.320 C 
HETATM   11  H   UNL     1      53.106 -32.240  -1.602  1.00  0.00     0.173 HD
HETATM   12  N   UNL     1      52.624 -30.349  -2.978  1.00  0.00    -0.352 N 
HETATM   13  O   UNL     1      50.700 -30.198  -1.840  1.00  0.00    -0.247 OA
HETATM   14  H   UNL     1      53.223 -31.011  -3.450  1.00  0.00     0.160 HD
HETATM   15  H   UNL     1      52.242 -29.624  -3.575  1.00  0.00     0.160 HD
HETATM   16  O   UNL     1      52.162 -33.612   0.043  1.00  0.00    -0.271 OA
ENDBRANCH   7   8
BRANCH   7  17
HETATM   17  C   UNL     1      50.495 -31.710   1.927  1.00  0.00    -0.035 A 
HETATM   18  C   UNL     1      50.063 -32.712   2.814  1.00  0.00     0.009 A 
HETATM   19  C   UNL     1      50.133 -32.527   4.196  1.00  0.00     0.001 A 
HETATM   20  C   UNL     1      50.637 -31.339   4.718  1.00  0.00     0.000 A 
HETATM   21  C   UNL     1      51.070 -30.335   3.857  1.00  0.00     0.001 A 
HETATM   22  C   UNL     1      50.999 -30.517   2.474  1.00  0.00     0.009 A 
ENDBRANCH   7  17
ENDBRANCH   6   7
ENDBRANCH   3   6
BRANCH   2  23
HETATM   23  C   UNL     1      47.012 -30.752   1.598  1.00  0.00     0.043 A 
HETATM   24  C   UNL     1      46.478 -31.780   2.388  1.00  0.00     0.033 A 
HETATM   25  C   UNL     1      46.470 -31.654   3.780  1.00  0.00     0.044 A 
HETATM   26  C   UNL     1      46.994 -30.511   4.374  1.00  0.00     0.116 A 
HETATM   27  F   UNL     1      46.986 -30.396   5.707  1.00  0.00    -0.206 F 
HETATM   28  C   UNL     1      47.531 -29.488   3.602  1.00  0.00     0.044 A 
HETATM   29  C   UNL     1      47.543 -29.605   2.210  1.00  0.00     0.033 A 
ENDBRANCH   2  23
BRANCH   1  30
HETATM   30  C   UNL     1      45.036 -29.322  -0.371  1.00  0.00     0.255 C 
HETATM   31  C   UNL     1      44.320 -28.820  -1.628  1.00  0.00     0.049 C 
BRANCH  30  32
HETATM   32  N   UNL     1      44.008 -30.061   0.524  1.00  0.00    -0.060 N 
HETATM   33  H   UNL     1      44.512 -30.284   1.390  1.00  0.00     0.280 HD
HETATM   34  C   UNL     1      42.792 -29.242   0.932  1.00  0.00     0.236 C 
HETATM   35  C   UNL     1      42.014 -30.015   1.992  1.00  0.00     0.028 C 
HETATM   36  C   UNL     1      41.590 -31.387   1.479  1.00  0.00     0.003 C 
HETATM   37  C   UNL     1      42.782 -32.174   0.948  1.00  0.00     0.028 C 
HETATM   38  C   UNL     1      43.576 -31.380  -0.083  1.00  0.00     0.236 C 
ENDBRANCH  30  32
ENDBRANCH   1  30
TORSDOF 7
ENDMDL
