MODEL 1
REMARK VINA RESULT:     -10.3      0.000      0.000
REMARK  10 active torsions:
REMARK  status: ('A' for Active; 'I' for Inactive)
REMARK    1  A    between atoms: C_8  and  C_9 
REMARK    2  A    between atoms: N_14  and  C_15 
REMARK    3  A    between atoms: C_15  and  C_16 
REMARK    4  A    between atoms: C_16  and  C_17 
REMARK    5  A    between atoms: C_20  and  O_21 
REMARK    6  A    between atoms: C_27  and  N_28 
REMARK    7  A    between atoms: N_28  and  C_29 
REMARK    8  A    between atoms: C_29  and  C_30 
REMARK    9  A    between atoms: C_30  and  O_31 
REMARK   10  A    between atoms: C_30  and  C_32 
ROOT
HETATM    1  C   UNL     1      39.821 -16.077   1.796  1.00  0.00     0.052 C 
HETATM    2  C   UNL     1      40.357 -14.715   1.484  1.00  0.00    -0.015 A 
HETATM    3  C   UNL     1      41.144 -14.012   2.556  1.00  0.00     0.144 A 
HETATM    4  N   UNL     1      41.230 -14.547   3.732  1.00  0.00    -0.217 NA
HETATM    5  N   UNL     1      41.746 -12.813   2.213  1.00  0.00    -0.272 N 
HETATM    6  C   UNL     1      42.544 -12.160   3.139  1.00  0.00     0.266 C 
HETATM    7  O   UNL     1      43.083 -11.068   2.941  1.00  0.00    -0.267 OA
HETATM    8  C   UNL     1      42.739 -12.850   4.447  1.00  0.00     0.074 C 
HETATM    9  C   UNL     1      42.003 -13.959   4.693  1.00  0.00     0.121 C 
HETATM   10  C   UNL     1      41.541 -12.236   0.966  1.00  0.00     0.102 A 
HETATM   11  C   UNL     1      40.792 -12.829   0.030  1.00  0.00     0.018 A 
HETATM   12  C   UNL     1      40.206 -14.116   0.292  1.00  0.00     0.012 A 
ENDROOT
BRANCH   8  13
HETATM   13  C   UNL     1      43.720 -12.288   5.371  1.00  0.00     0.045 C 
HETATM   14  C   UNL     1      43.480 -11.319   6.266  1.00  0.00     0.077 A 
HETATM   15  S   UNL     1      41.983 -10.534   6.586  1.00  0.00    -0.055 SA
HETATM   16  C   UNL     1      44.553 -10.724   7.103  1.00  0.00     0.266 A 
HETATM   17  C   UNL     1      42.731  -9.322   7.609  1.00  0.00     0.148 A 
HETATM   18  S   UNL     1      41.867  -8.038   8.234  1.00  0.00    -0.052 SA
HETATM   19  N   UNL     1      44.071  -9.613   7.773  1.00  0.00    -0.298 N 
HETATM   20  O   UNL     1      45.698 -11.154   7.143  1.00  0.00    -0.266 OA
BRANCH  19  21
HETATM   21  C   UNL     1      44.986  -8.828   8.604  1.00  0.00     0.138 C 
BRANCH  21  22
HETATM   22  C   UNL     1      45.398  -9.583   9.874  1.00  0.00     0.059 C 
BRANCH  22  23
HETATM   23  C   UNL     1      44.324  -9.545  10.932  1.00  0.00    -0.057 A 
HETATM   24  C   UNL     1      43.822  -8.319  11.388  1.00  0.00     0.010 A 
HETATM   25  C   UNL     1      42.827  -8.283  12.366  1.00  0.00     0.037 A 
HETATM   26  C   UNL     1      42.303  -9.466  12.892  1.00  0.00     0.068 A 
HETATM   27  C   UNL     1      42.801 -10.688  12.444  1.00  0.00     0.037 A 
HETATM   28  C   UNL     1      43.807 -10.728  11.471  1.00  0.00     0.010 A 
BRANCH  26  29
HETATM   29  O   UNL     1      41.326  -9.290  13.832  1.00  0.00    -0.356 OA
HETATM   30  C   UNL     1      41.677  -8.526  14.979  1.00  0.00     0.210 C 
ENDBRANCH  26  29
ENDBRANCH  22  23
ENDBRANCH  21  22
ENDBRANCH  19  21
ENDBRANCH   8  13
BRANCH   9  31
HETATM   31  N   UNL     1      42.024 -14.631   5.909  1.00  0.00    -0.274 NA
HETATM   32  H   UNL     1      42.501 -14.030   6.587  1.00  0.00     0.129 HD
BRANCH  31  33
HETATM   33  C   UNL     1      42.390 -16.045   6.064  1.00  0.00     0.130 C 
BRANCH  33  34
HETATM   34  C   UNL     1      43.681 -16.379   5.273  1.00  0.00     0.164 C 
BRANCH  34  35
HETATM   35  O   UNL     1      44.776 -16.572   6.182  1.00  0.00    -0.390 OA
HETATM   36  H   UNL     1      45.598 -16.590   5.661  1.00  0.00     0.210 HD
ENDBRANCH  34  35
BRANCH  34  37
HETATM   37  C   UNL     1      43.642 -17.566   4.329  1.00  0.00    -0.029 A 
HETATM   38  C   UNL     1      43.208 -17.489   2.998  1.00  0.00     0.010 A 
HETATM   39  C   UNL     1      43.207 -18.619   2.174  1.00  0.00     0.001 A 
HETATM   40  C   UNL     1      43.642 -19.847   2.669  1.00  0.00     0.000 A 
HETATM   41  C   UNL     1      44.074 -19.946   3.988  1.00  0.00     0.001 A 
HETATM   42  C   UNL     1      44.073 -18.817   4.809  1.00  0.00     0.010 A 
ENDBRANCH  34  37
ENDBRANCH  33  34
ENDBRANCH  31  33
ENDBRANCH   9  31
TORSDOF 10
ENDMDL
MODEL 2
REMARK VINA RESULT:      -9.5      1.821      2.260
REMARK  10 active torsions:
REMARK  status: ('A' for Active; 'I' for Inactive)
REMARK    1  A    between atoms: C_8  and  C_9 
REMARK    2  A    between atoms: N_14  and  C_15 
REMARK    3  A    between atoms: C_15  and  C_16 
REMARK    4  A    between atoms: C_16  and  C_17 
REMARK    5  A    between atoms: C_20  and  O_21 
REMARK    6  A    between atoms: C_27  and  N_28 
REMARK    7  A    between atoms: N_28  and  C_29 
REMARK    8  A    between atoms: C_29  and  C_30 
REMARK    9  A    between atoms: C_30  and  O_31 
REMARK   10  A    between atoms: C_30  and  C_32 
ROOT
HETATM    1  C   UNL     1      40.422 -16.168   1.751  1.00  0.00     0.052 C 
HETATM    2  C   UNL     1      40.228 -14.704   1.509  1.00  0.00    -0.015 A 
HETATM    3  C   UNL     1      40.190 -13.798   2.708  1.00  0.00     0.144 A 
HETATM    4  N   UNL     1      40.207 -14.316   3.895  1.00  0.00    -0.217 NA
HETATM    5  N   UNL     1      40.143 -12.434   2.468  1.00  0.00    -0.272 N 
HETATM    6  C   UNL     1      40.182 -11.550   3.535  1.00  0.00     0.266 C 
HETATM    7  O   UNL     1      40.100 -10.324   3.422  1.00  0.00    -0.267 OA
HETATM    8  C   UNL     1      40.331 -12.156   4.890  1.00  0.00     0.074 C 
HETATM    9  C   UNL     1      40.250 -13.503   4.992  1.00  0.00     0.121 C 
HETATM   10  C   UNL     1      40.028 -11.936   1.176  1.00  0.00     0.102 A 
HETATM   11  C   UNL     1      40.001 -12.741   0.110  1.00  0.00     0.018 A 
HETATM   12  C   UNL     1      40.129 -14.163   0.284  1.00  0.00     0.012 A 
ENDROOT
BRANCH   8  13
HETATM   13  C   UNL     1      40.565 -11.255   6.014  1.00  0.00     0.045 C 
HETATM   14  C   UNL     1      41.768 -10.897   6.487  1.00  0.00     0.077 A 
HETATM   15  S   UNL     1      43.311 -11.356   5.882  1.00  0.00    -0.055 SA
HETATM   16  C   UNL     1      41.929 -10.056   7.701  1.00  0.00     0.266 A 
HETATM   17  C   UNL     1      44.157 -10.677   7.261  1.00  0.00     0.148 A 
HETATM   18  S   UNL     1      45.803 -10.860   7.465  1.00  0.00    -0.052 SA
HETATM   19  N   UNL     1      43.259 -10.022   8.081  1.00  0.00    -0.298 N 
HETATM   20  O   UNL     1      40.996  -9.518   8.281  1.00  0.00    -0.266 OA
BRANCH  19  21
HETATM   21  C   UNL     1      43.635  -9.305   9.301  1.00  0.00     0.138 C 
BRANCH  21  22
HETATM   22  C   UNL     1      43.614 -10.220  10.532  1.00  0.00     0.059 C 
BRANCH  22  23
HETATM   23  C   UNL     1      43.119  -9.505  11.764  1.00  0.00    -0.057 A 
HETATM   24  C   UNL     1      43.698  -8.293  12.162  1.00  0.00     0.010 A 
HETATM   25  C   UNL     1      43.239  -7.631  13.301  1.00  0.00     0.037 A 
HETATM   26  C   UNL     1      42.185  -8.154  14.051  1.00  0.00     0.068 A 
HETATM   27  C   UNL     1      41.606  -9.361  13.662  1.00  0.00     0.037 A 
HETATM   28  C   UNL     1      42.072 -10.034  12.527  1.00  0.00     0.010 A 
BRANCH  26  29
HETATM   29  O   UNL     1      41.824  -7.401  15.134  1.00  0.00    -0.356 OA
HETATM   30  C   UNL     1      41.077  -8.062  16.148  1.00  0.00     0.210 C 
ENDBRANCH  26  29
ENDBRANCH  22  23
ENDBRANCH  21  22
ENDBRANCH  19  21
ENDBRANCH   8  13
BRANCH   9  31
HETATM   31  N   UNL     1      40.275 -14.176   6.208  1.00  0.00    -0.274 NA
HETATM   32  H   UNL     1      40.774 -13.585   6.879  1.00  0.00     0.129 HD
BRANCH  31  33
HETATM   33  C   UNL     1      40.616 -15.596   6.358  1.00  0.00     0.130 C 
BRANCH  33  34
HETATM   34  C   UNL     1      42.144 -15.791   6.530  1.00  0.00     0.164 C 
BRANCH  34  35
HETATM   35  O   UNL     1      42.446 -16.105   7.899  1.00  0.00    -0.390 OA
HETATM   36  H   UNL     1      42.107 -15.379   8.453  1.00  0.00     0.210 HD
ENDBRANCH  34  35
BRANCH  34  37
HETATM   37  C   UNL     1      42.827 -16.824   5.652  1.00  0.00    -0.029 A 
HETATM   38  C   UNL     1      43.328 -18.044   6.131  1.00  0.00     0.010 A 
HETATM   39  C   UNL     1      43.937 -18.959   5.266  1.00  0.00     0.001 A 
HETATM   40  C   UNL     1      44.055 -18.670   3.909  1.00  0.00     0.000 A 
HETATM   41  C   UNL     1      43.568 -17.464   3.415  1.00  0.00     0.001 A 
HETATM   42  C   UNL     1      42.961 -16.550   4.279  1.00  0.00     0.010 A 
ENDBRANCH  34  37
ENDBRANCH  33  34
ENDBRANCH  31  33
ENDBRANCH   9  31
TORSDOF 10
ENDMDL
MODEL 3
REMARK VINA RESULT:      -9.5      1.514      2.200
REMARK  10 active torsions:
REMARK  status: ('A' for Active; 'I' for Inactive)
REMARK    1  A    between atoms: C_8  and  C_9 
REMARK    2  A    between atoms: N_14  and  C_15 
REMARK    3  A    between atoms: C_15  and  C_16 
REMARK    4  A    between atoms: C_16  and  C_17 
REMARK    5  A    between atoms: C_20  and  O_21 
REMARK    6  A    between atoms: C_27  and  N_28 
REMARK    7  A    between atoms: N_28  and  C_29 
REMARK    8  A    between atoms: C_29  and  C_30 
REMARK    9  A    between atoms: C_30  and  O_31 
REMARK   10  A    between atoms: C_30  and  C_32 
ROOT
HETATM    1  C   UNL     1      39.355 -15.026  -1.272  1.00  0.00     0.052 C 
HETATM    2  C   UNL     1      39.724 -13.581  -1.147  1.00  0.00    -0.015 A 
HETATM    3  C   UNL     1      40.476 -13.156   0.084  1.00  0.00     0.144 A 
HETATM    4  N   UNL     1      40.672 -14.014   1.034  1.00  0.00    -0.217 NA
HETATM    5  N   UNL     1      40.927 -11.847   0.128  1.00  0.00    -0.272 N 
HETATM    6  C   UNL     1      41.688 -11.423   1.205  1.00  0.00     0.266 C 
HETATM    7  O   UNL     1      42.096 -10.268   1.353  1.00  0.00    -0.267 OA
HETATM    8  C   UNL     1      42.016 -12.456   2.231  1.00  0.00     0.074 C 
HETATM    9  C   UNL     1      41.417 -13.665   2.124  1.00  0.00     0.121 C 
HETATM   10  C   UNL     1      40.604 -10.942  -0.875  1.00  0.00     0.102 A 
HETATM   11  C   UNL     1      39.885 -11.300  -1.944  1.00  0.00     0.018 A 
HETATM   12  C   UNL     1      39.455 -12.665  -2.092  1.00  0.00     0.012 A 
ENDROOT
BRANCH   8  13
HETATM   13  C   UNL     1      42.970 -12.095   3.276  1.00  0.00     0.045 C 
HETATM   14  C   UNL     1      42.655 -11.562   4.465  1.00  0.00     0.077 A 
HETATM   15  S   UNL     1      41.085 -11.213   5.076  1.00  0.00    -0.055 SA
HETATM   16  C   UNL     1      43.687 -11.125   5.440  1.00  0.00     0.266 A 
HETATM   17  C   UNL     1      41.717 -10.330   6.454  1.00  0.00     0.148 A 
HETATM   18  S   UNL     1      40.717  -9.521   7.518  1.00  0.00    -0.052 SA
HETATM   19  N   UNL     1      43.094 -10.423   6.476  1.00  0.00    -0.298 N 
HETATM   20  O   UNL     1      44.884 -11.335   5.299  1.00  0.00    -0.266 OA
BRANCH  19  21
HETATM   21  C   UNL     1      43.941  -9.836   7.516  1.00  0.00     0.138 C 
BRANCH  21  22
HETATM   22  C   UNL     1      44.070 -10.757   8.737  1.00  0.00     0.059 C 
BRANCH  22  23
HETATM   23  C   UNL     1      43.707 -10.055  10.021  1.00  0.00    -0.057 A 
HETATM   24  C   UNL     1      43.511 -10.788  11.198  1.00  0.00     0.010 A 
HETATM   25  C   UNL     1      43.176 -10.138  12.387  1.00  0.00     0.037 A 
HETATM   26  C   UNL     1      43.049  -8.749  12.427  1.00  0.00     0.068 A 
HETATM   27  C   UNL     1      43.241  -8.014  11.258  1.00  0.00     0.037 A 
HETATM   28  C   UNL     1      43.566  -8.663  10.061  1.00  0.00     0.010 A 
BRANCH  26  29
HETATM   29  O   UNL     1      42.731  -8.238  13.655  1.00  0.00    -0.356 OA
HETATM   30  C   UNL     1      41.642  -8.850  14.335  1.00  0.00     0.210 C 
ENDBRANCH  26  29
ENDBRANCH  22  23
ENDBRANCH  21  22
ENDBRANCH  19  21
ENDBRANCH   8  13
BRANCH   9  31
HETATM   31  N   UNL     1      41.566 -14.672   3.069  1.00  0.00    -0.274 NA
HETATM   32  H   UNL     1      42.245 -14.349   3.764  1.00  0.00     0.129 HD
BRANCH  31  33
HETATM   33  C   UNL     1      41.741 -16.093   2.740  1.00  0.00     0.130 C 
BRANCH  33  34
HETATM   34  C   UNL     1      43.176 -16.574   3.078  1.00  0.00     0.164 C 
BRANCH  34  35
HETATM   35  O   UNL     1      43.621 -15.965   4.300  1.00  0.00    -0.390 OA
HETATM   36  H   UNL     1      42.836 -15.624   4.767  1.00  0.00     0.210 HD
ENDBRANCH  34  35
BRANCH  34  37
HETATM   37  C   UNL     1      43.411 -18.069   3.187  1.00  0.00    -0.029 A 
HETATM   38  C   UNL     1      43.140 -18.977   2.153  1.00  0.00     0.010 A 
HETATM   39  C   UNL     1      43.390 -20.344   2.314  1.00  0.00     0.001 A 
HETATM   40  C   UNL     1      43.916 -20.825   3.510  1.00  0.00     0.000 A 
HETATM   41  C   UNL     1      44.189 -19.941   4.549  1.00  0.00     0.001 A 
HETATM   42  C   UNL     1      43.938 -18.577   4.389  1.00  0.00     0.010 A 
ENDBRANCH  34  37
ENDBRANCH  33  34
ENDBRANCH  31  33
ENDBRANCH   9  31
TORSDOF 10
ENDMDL
MODEL 4
REMARK VINA RESULT:      -9.1      2.175      2.693
REMARK  10 active torsions:
REMARK  status: ('A' for Active; 'I' for Inactive)
REMARK    1  A    between atoms: C_8  and  C_9 
REMARK    2  A    between atoms: N_14  and  C_15 
REMARK    3  A    between atoms: C_15  and  C_16 
REMARK    4  A    between atoms: C_16  and  C_17 
REMARK    5  A    between atoms: C_20  and  O_21 
REMARK    6  A    between atoms: C_27  and  N_28 
REMARK    7  A    between atoms: N_28  and  C_29 
REMARK    8  A    between atoms: C_29  and  C_30 
REMARK    9  A    between atoms: C_30  and  O_31 
REMARK   10  A    between atoms: C_30  and  C_32 
ROOT
HETATM    1  C   UNL     1      40.032 -14.954   0.261  1.00  0.00     0.052 C 
HETATM    2  C   UNL     1      39.969 -13.459   0.293  1.00  0.00    -0.015 A 
HETATM    3  C   UNL     1      39.958 -12.790   1.640  1.00  0.00     0.144 A 
HETATM    4  N   UNL     1      39.885 -13.519   2.709  1.00  0.00    -0.217 NA
HETATM    5  N   UNL     1      40.034 -11.407   1.659  1.00  0.00    -0.272 N 
HETATM    6  C   UNL     1      40.102 -10.743   2.873  1.00  0.00     0.266 C 
HETATM    7  O   UNL     1      40.127  -9.515   2.990  1.00  0.00    -0.267 OA
HETATM    8  C   UNL     1      40.146 -11.599   4.094  1.00  0.00     0.074 C 
HETATM    9  C   UNL     1      39.950 -12.930   3.940  1.00  0.00     0.121 C 
HETATM   10  C   UNL     1      40.013 -10.671   0.481  1.00  0.00     0.102 A 
HETATM   11  C   UNL     1      39.962 -11.260  -0.718  1.00  0.00     0.018 A 
HETATM   12  C   UNL     1      39.965 -12.695  -0.811  1.00  0.00     0.012 A 
ENDROOT
BRANCH   8  13
HETATM   13  C   UNL     1      40.408 -10.946   5.372  1.00  0.00     0.045 C 
HETATM   14  C   UNL     1      41.621 -10.749   5.911  1.00  0.00     0.077 A 
HETATM   15  S   UNL     1      43.148 -11.161   5.235  1.00  0.00    -0.055 SA
HETATM   16  C   UNL     1      41.805 -10.168   7.266  1.00  0.00     0.266 A 
HETATM   17  C   UNL     1      44.006 -10.806   6.724  1.00  0.00     0.148 A 
HETATM   18  S   UNL     1      45.638 -11.109   6.897  1.00  0.00    -0.052 SA
HETATM   19  N   UNL     1      43.130 -10.276   7.651  1.00  0.00    -0.298 N 
HETATM   20  O   UNL     1      40.892  -9.705   7.934  1.00  0.00    -0.266 OA
BRANCH  19  21
HETATM   21  C   UNL     1      43.523  -9.828   8.989  1.00  0.00     0.138 C 
BRANCH  21  22
HETATM   22  C   UNL     1      43.635  -8.301   9.072  1.00  0.00     0.059 C 
BRANCH  22  23
HETATM   23  C   UNL     1      43.233  -7.773  10.426  1.00  0.00    -0.057 A 
HETATM   24  C   UNL     1      43.540  -8.495  11.587  1.00  0.00     0.010 A 
HETATM   25  C   UNL     1      43.170  -8.007  12.841  1.00  0.00     0.037 A 
HETATM   26  C   UNL     1      42.506  -6.785  12.961  1.00  0.00     0.068 A 
HETATM   27  C   UNL     1      42.196  -6.063  11.809  1.00  0.00     0.037 A 
HETATM   28  C   UNL     1      42.555  -6.556  10.549  1.00  0.00     0.010 A 
BRANCH  26  29
HETATM   29  O   UNL     1      42.213  -6.416  14.245  1.00  0.00    -0.356 OA
HETATM   30  C   UNL     1      42.043  -7.469  15.185  1.00  0.00     0.210 C 
ENDBRANCH  26  29
ENDBRANCH  22  23
ENDBRANCH  21  22
ENDBRANCH  19  21
ENDBRANCH   8  13
BRANCH   9  31
HETATM   31  N   UNL     1      39.871 -13.815   5.008  1.00  0.00    -0.274 NA
HETATM   32  H   UNL     1      39.154 -13.464   5.649  1.00  0.00     0.129 HD
BRANCH  31  33
HETATM   33  C   UNL     1      41.036 -14.356   5.719  1.00  0.00     0.130 C 
BRANCH  33  34
HETATM   34  C   UNL     1      41.038 -15.907   5.693  1.00  0.00     0.164 C 
BRANCH  34  35
HETATM   35  O   UNL     1      39.695 -16.395   5.551  1.00  0.00    -0.390 OA
HETATM   36  H   UNL     1      39.507 -16.478   4.598  1.00  0.00     0.210 HD
ENDBRANCH  34  35
BRANCH  34  37
HETATM   37  C   UNL     1      41.899 -16.594   4.650  1.00  0.00    -0.029 A 
HETATM   38  C   UNL     1      41.639 -16.549   3.273  1.00  0.00     0.010 A 
HETATM   39  C   UNL     1      42.479 -17.195   2.360  1.00  0.00     0.001 A 
HETATM   40  C   UNL     1      43.594 -17.897   2.811  1.00  0.00     0.000 A 
HETATM   41  C   UNL     1      43.869 -17.957   4.173  1.00  0.00     0.001 A 
HETATM   42  C   UNL     1      43.029 -17.313   5.083  1.00  0.00     0.010 A 
ENDBRANCH  34  37
ENDBRANCH  33  34
ENDBRANCH  31  33
ENDBRANCH   9  31
TORSDOF 10
ENDMDL
MODEL 5
REMARK VINA RESULT:      -9.1      1.881      4.757
REMARK  10 active torsions:
REMARK  status: ('A' for Active; 'I' for Inactive)
REMARK    1  A    between atoms: C_8  and  C_9 
REMARK    2  A    between atoms: N_14  and  C_15 
REMARK    3  A    between atoms: C_15  and  C_16 
REMARK    4  A    between atoms: C_16  and  C_17 
REMARK    5  A    between atoms: C_20  and  O_21 
REMARK    6  A    between atoms: C_27  and  N_28 
REMARK    7  A    between atoms: N_28  and  C_29 
REMARK    8  A    between atoms: C_29  and  C_30 
REMARK    9  A    between atoms: C_30  and  O_31 
REMARK   10  A    between atoms: C_30  and  C_32 
ROOT
HETATM    1  C   UNL     1      43.163 -18.003   2.262  1.00  0.00     0.052 C 
HETATM    2  C   UNL     1      43.392 -17.837   3.732  1.00  0.00    -0.015 A 
HETATM    3  C   UNL     1      43.220 -16.461   4.313  1.00  0.00     0.144 A 
HETATM    4  N   UNL     1      43.001 -15.460   3.520  1.00  0.00    -0.217 NA
HETATM    5  N   UNL     1      43.303 -16.342   5.691  1.00  0.00    -0.272 N 
HETATM    6  C   UNL     1      43.080 -15.111   6.286  1.00  0.00     0.266 C 
HETATM    7  O   UNL     1      43.176 -14.900   7.498  1.00  0.00    -0.267 OA
HETATM    8  C   UNL     1      42.703 -13.994   5.373  1.00  0.00     0.074 C 
HETATM    9  C   UNL     1      42.769 -14.218   4.039  1.00  0.00     0.121 C 
HETATM   10  C   UNL     1      43.637 -17.432   6.486  1.00  0.00     0.102 A 
HETATM   11  C   UNL     1      43.849 -18.645   5.967  1.00  0.00     0.018 A 
HETATM   12  C   UNL     1      43.698 -18.855   4.552  1.00  0.00     0.012 A 
ENDROOT
BRANCH   8  13
HETATM   13  C   UNL     1      42.276 -12.736   5.979  1.00  0.00     0.045 C 
HETATM   14  C   UNL     1      43.094 -11.768   6.416  1.00  0.00     0.077 A 
HETATM   15  S   UNL     1      44.812 -11.730   6.338  1.00  0.00    -0.055 SA
HETATM   16  C   UNL     1      42.592 -10.558   7.117  1.00  0.00     0.266 A 
HETATM   17  C   UNL     1      44.920 -10.312   7.365  1.00  0.00     0.148 A 
HETATM   18  S   UNL     1      46.386  -9.708   7.885  1.00  0.00    -0.052 SA
HETATM   19  N   UNL     1      43.652  -9.839   7.641  1.00  0.00    -0.298 N 
HETATM   20  O   UNL     1      41.405 -10.285   7.231  1.00  0.00    -0.266 OA
BRANCH  19  21
HETATM   21  C   UNL     1      43.378  -8.641   8.438  1.00  0.00     0.138 C 
BRANCH  21  22
HETATM   22  C   UNL     1      44.134  -8.656   9.773  1.00  0.00     0.059 C 
BRANCH  22  23
HETATM   23  C   UNL     1      43.205  -8.802  10.951  1.00  0.00    -0.057 A 
HETATM   24  C   UNL     1      43.553  -8.267  12.198  1.00  0.00     0.010 A 
HETATM   25  C   UNL     1      42.693  -8.401  13.289  1.00  0.00     0.037 A 
HETATM   26  C   UNL     1      41.466  -9.052  13.152  1.00  0.00     0.068 A 
HETATM   27  C   UNL     1      41.115  -9.588  11.913  1.00  0.00     0.037 A 
HETATM   28  C   UNL     1      41.981  -9.466  10.820  1.00  0.00     0.010 A 
BRANCH  26  29
HETATM   29  O   UNL     1      40.713  -9.102  14.293  1.00  0.00    -0.356 OA
HETATM   30  C   UNL     1      41.185  -8.344  15.399  1.00  0.00     0.210 C 
ENDBRANCH  26  29
ENDBRANCH  22  23
ENDBRANCH  21  22
ENDBRANCH  19  21
ENDBRANCH   8  13
BRANCH   9  31
HETATM   31  N   UNL     1      42.537 -13.230   3.090  1.00  0.00    -0.274 NA
HETATM   32  H   UNL     1      43.154 -12.442   3.306  1.00  0.00     0.129 HD
BRANCH  31  33
HETATM   33  C   UNL     1      41.202 -12.791   2.666  1.00  0.00     0.130 C 
BRANCH  33  34
HETATM   34  C   UNL     1      40.490 -13.887   1.832  1.00  0.00     0.164 C 
BRANCH  34  35
HETATM   35  O   UNL     1      39.176 -14.128   2.361  1.00  0.00    -0.390 OA
HETATM   36  H   UNL     1      38.747 -13.264   2.501  1.00  0.00     0.210 HD
ENDBRANCH  34  35
BRANCH  34  37
HETATM   37  C   UNL     1      40.358 -13.661   0.337  1.00  0.00    -0.029 A 
HETATM   38  C   UNL     1      40.864 -12.535  -0.328  1.00  0.00     0.010 A 
HETATM   39  C   UNL     1      40.719 -12.393  -1.712  1.00  0.00     0.001 A 
HETATM   40  C   UNL     1      40.065 -13.374  -2.453  1.00  0.00     0.000 A 
HETATM   41  C   UNL     1      39.552 -14.497  -1.812  1.00  0.00     0.001 A 
HETATM   42  C   UNL     1      39.697 -14.638  -0.430  1.00  0.00     0.010 A 
ENDBRANCH  34  37
ENDBRANCH  33  34
ENDBRANCH  31  33
ENDBRANCH   9  31
TORSDOF 10
ENDMDL
MODEL 6
REMARK VINA RESULT:      -8.9      3.135      9.534
REMARK  10 active torsions:
REMARK  status: ('A' for Active; 'I' for Inactive)
REMARK    1  A    between atoms: C_8  and  C_9 
REMARK    2  A    between atoms: N_14  and  C_15 
REMARK    3  A    between atoms: C_15  and  C_16 
REMARK    4  A    between atoms: C_16  and  C_17 
REMARK    5  A    between atoms: C_20  and  O_21 
REMARK    6  A    between atoms: C_27  and  N_28 
REMARK    7  A    between atoms: N_28  and  C_29 
REMARK    8  A    between atoms: C_29  and  C_30 
REMARK    9  A    between atoms: C_30  and  O_31 
REMARK   10  A    between atoms: C_30  and  C_32 
ROOT
HETATM    1  C   UNL     1      43.921 -17.875   6.453  1.00  0.00     0.052 C 
HETATM    2  C   UNL     1      43.643 -17.848   4.982  1.00  0.00    -0.015 A 
HETATM    3  C   UNL     1      43.246 -16.532   4.372  1.00  0.00     0.144 A 
HETATM    4  N   UNL     1      43.044 -15.511   5.143  1.00  0.00    -0.217 NA
HETATM    5  N   UNL     1      43.121 -16.487   2.993  1.00  0.00    -0.272 N 
HETATM    6  C   UNL     1      42.829 -15.284   2.372  1.00  0.00     0.266 C 
HETATM    7  O   UNL     1      42.655 -15.156   1.157  1.00  0.00    -0.267 OA
HETATM    8  C   UNL     1      42.726 -14.089   3.260  1.00  0.00     0.074 C 
HETATM    9  C   UNL     1      42.756 -14.292   4.598  1.00  0.00     0.121 C 
HETATM   10  C   UNL     1      43.253 -17.636   2.223  1.00  0.00     0.102 A 
HETATM   11  C   UNL     1      43.548 -18.821   2.768  1.00  0.00     0.018 A 
HETATM   12  C   UNL     1      43.772 -18.920   4.185  1.00  0.00     0.012 A 
ENDROOT
BRANCH   8  13
HETATM   13  C   UNL     1      42.609 -12.780   2.625  1.00  0.00     0.045 C 
HETATM   14  C   UNL     1      41.457 -12.157   2.334  1.00  0.00     0.077 A 
HETATM   15  S   UNL     1      39.859 -12.700   2.663  1.00  0.00    -0.055 SA
HETATM   16  C   UNL     1      41.414 -10.870   1.593  1.00  0.00     0.266 A 
HETATM   17  C   UNL     1      39.130 -11.432   1.694  1.00  0.00     0.148 A 
HETATM   18  S   UNL     1      37.487 -11.373   1.407  1.00  0.00    -0.052 SA
HETATM   19  N   UNL     1      40.109 -10.567   1.245  1.00  0.00    -0.298 N 
HETATM   20  O   UNL     1      42.409 -10.216   1.312  1.00  0.00    -0.266 OA
BRANCH  19  21
HETATM   21  C   UNL     1      39.843  -9.371   0.443  1.00  0.00     0.138 C 
BRANCH  21  22
HETATM   22  C   UNL     1      40.455  -9.475  -0.960  1.00  0.00     0.059 C 
BRANCH  22  23
HETATM   23  C   UNL     1      40.001 -10.715  -1.689  1.00  0.00    -0.057 A 
HETATM   24  C   UNL     1      40.918 -11.723  -2.011  1.00  0.00     0.010 A 
HETATM   25  C   UNL     1      40.498 -12.871  -2.684  1.00  0.00     0.037 A 
HETATM   26  C   UNL     1      39.156 -13.042  -3.030  1.00  0.00     0.068 A 
HETATM   27  C   UNL     1      38.240 -12.040  -2.715  1.00  0.00     0.037 A 
HETATM   28  C   UNL     1      38.660 -10.882  -2.050  1.00  0.00     0.010 A 
BRANCH  26  29
HETATM   29  O   UNL     1      38.876 -14.215  -3.674  1.00  0.00    -0.356 OA
HETATM   30  C   UNL     1      38.610 -15.344  -2.852  1.00  0.00     0.210 C 
ENDBRANCH  26  29
ENDBRANCH  22  23
ENDBRANCH  21  22
ENDBRANCH  19  21
ENDBRANCH   8  13
BRANCH   9  31
HETATM   31  N   UNL     1      42.571 -13.274   5.525  1.00  0.00    -0.274 NA
HETATM   32  H   UNL     1      42.431 -12.403   5.005  1.00  0.00     0.129 HD
BRANCH  31  33
HETATM   33  C   UNL     1      43.408 -13.082   6.717  1.00  0.00     0.130 C 
BRANCH  33  34
HETATM   34  C   UNL     1      44.539 -12.056   6.449  1.00  0.00     0.164 C 
BRANCH  34  35
HETATM   35  O   UNL     1      44.259 -11.321   5.247  1.00  0.00    -0.390 OA
HETATM   36  H   UNL     1      44.143 -10.385   5.490  1.00  0.00     0.210 HD
ENDBRANCH  34  35
BRANCH  34  37
HETATM   37  C   UNL     1      44.860 -11.057   7.545  1.00  0.00    -0.029 A 
HETATM   38  C   UNL     1      44.082 -10.893   8.701  1.00  0.00     0.010 A 
HETATM   39  C   UNL     1      44.439  -9.961   9.680  1.00  0.00     0.001 A 
HETATM   40  C   UNL     1      45.579  -9.176   9.520  1.00  0.00     0.000 A 
HETATM   41  C   UNL     1      46.362  -9.321   8.379  1.00  0.00     0.001 A 
HETATM   42  C   UNL     1      46.004 -10.251   7.401  1.00  0.00     0.010 A 
ENDBRANCH  34  37
ENDBRANCH  33  34
ENDBRANCH  31  33
ENDBRANCH   9  31
TORSDOF 10
ENDMDL
MODEL 7
REMARK VINA RESULT:      -8.9      2.596     10.056
REMARK  10 active torsions:
REMARK  status: ('A' for Active; 'I' for Inactive)
REMARK    1  A    between atoms: C_8  and  C_9 
REMARK    2  A    between atoms: N_14  and  C_15 
REMARK    3  A    between atoms: C_15  and  C_16 
REMARK    4  A    between atoms: C_16  and  C_17 
REMARK    5  A    between atoms: C_20  and  O_21 
REMARK    6  A    between atoms: C_27  and  N_28 
REMARK    7  A    between atoms: N_28  and  C_29 
REMARK    8  A    between atoms: C_29  and  C_30 
REMARK    9  A    between atoms: C_30  and  O_31 
REMARK   10  A    between atoms: C_30  and  C_32 
ROOT
HETATM    1  C   UNL     1      42.837  -7.281  10.069  1.00  0.00     0.052 C 
HETATM    2  C   UNL     1      43.671  -8.502   9.833  1.00  0.00    -0.015 A 
HETATM    3  C   UNL     1      43.371  -9.325   8.611  1.00  0.00     0.144 A 
HETATM    4  N   UNL     1      42.344  -9.024   7.880  1.00  0.00    -0.217 NA
HETATM    5  N   UNL     1      44.230 -10.375   8.329  1.00  0.00    -0.272 N 
HETATM    6  C   UNL     1      44.044 -11.120   7.177  1.00  0.00     0.266 C 
HETATM    7  O   UNL     1      44.729 -12.098   6.866  1.00  0.00    -0.267 OA
HETATM    8  C   UNL     1      42.936 -10.683   6.278  1.00  0.00     0.074 C 
HETATM    9  C   UNL     1      42.103  -9.716   6.727  1.00  0.00     0.121 C 
HETATM   10  C   UNL     1      45.259 -10.713   9.200  1.00  0.00     0.102 A 
HETATM   11  C   UNL     1      45.492 -10.020  10.319  1.00  0.00     0.018 A 
HETATM   12  C   UNL     1      44.688  -8.868  10.628  1.00  0.00     0.012 A 
ENDROOT
BRANCH   8  13
HETATM   13  C   UNL     1      42.831 -11.322   4.970  1.00  0.00     0.045 C 
HETATM   14  C   UNL     1      42.207 -12.482   4.719  1.00  0.00     0.077 A 
HETATM   15  S   UNL     1      41.348 -13.474   5.831  1.00  0.00    -0.055 SA
HETATM   16  C   UNL     1      42.229 -13.125   3.379  1.00  0.00     0.266 A 
HETATM   17  C   UNL     1      41.197 -14.791   4.683  1.00  0.00     0.148 A 
HETATM   18  S   UNL     1      40.540 -16.264   5.111  1.00  0.00    -0.052 SA
HETATM   19  N   UNL     1      41.696 -14.400   3.456  1.00  0.00    -0.298 N 
HETATM   20  O   UNL     1      42.694 -12.593   2.381  1.00  0.00    -0.266 OA
BRANCH  19  21
HETATM   21  C   UNL     1      41.686 -15.243   2.259  1.00  0.00     0.138 C 
BRANCH  21  22
HETATM   22  C   UNL     1      43.091 -15.742   1.899  1.00  0.00     0.059 C 
BRANCH  22  23
HETATM   23  C   UNL     1      43.409 -17.066   2.547  1.00  0.00    -0.057 A 
HETATM   24  C   UNL     1      43.937 -17.111   3.844  1.00  0.00     0.010 A 
HETATM   25  C   UNL     1      44.230 -18.335   4.445  1.00  0.00     0.037 A 
HETATM   26  C   UNL     1      43.984 -19.534   3.773  1.00  0.00     0.068 A 
HETATM   27  C   UNL     1      43.461 -19.495   2.481  1.00  0.00     0.037 A 
HETATM   28  C   UNL     1      43.177 -18.268   1.871  1.00  0.00     0.010 A 
BRANCH  26  29
HETATM   29  O   UNL     1      44.303 -20.662   4.479  1.00  0.00    -0.356 OA
HETATM   30  C   UNL     1      43.825 -20.731   5.816  1.00  0.00     0.210 C 
ENDBRANCH  26  29
ENDBRANCH  22  23
ENDBRANCH  21  22
ENDBRANCH  19  21
ENDBRANCH   8  13
BRANCH   9  31
HETATM   31  N   UNL     1      40.980  -9.294   6.025  1.00  0.00    -0.274 NA
HETATM   32  H   UNL     1      41.227  -9.267   5.032  1.00  0.00     0.129 HD
BRANCH  31  33
HETATM   33  C   UNL     1      40.139  -8.158   6.421  1.00  0.00     0.130 C 
BRANCH  33  34
HETATM   34  C   UNL     1      38.986  -8.611   7.353  1.00  0.00     0.164 C 
BRANCH  34  35
HETATM   35  O   UNL     1      38.671  -9.991   7.107  1.00  0.00    -0.390 OA
HETATM   36  H   UNL     1      39.011 -10.513   7.856  1.00  0.00     0.210 HD
ENDBRANCH  34  35
BRANCH  34  37
HETATM   37  C   UNL     1      39.176  -8.434   8.848  1.00  0.00    -0.029 A 
HETATM   38  C   UNL     1      39.063  -7.201   9.507  1.00  0.00     0.010 A 
HETATM   39  C   UNL     1      39.239  -7.107  10.892  1.00  0.00     0.001 A 
HETATM   40  C   UNL     1      39.532  -8.245  11.640  1.00  0.00     0.000 A 
HETATM   41  C   UNL     1      39.652  -9.477  11.005  1.00  0.00     0.001 A 
HETATM   42  C   UNL     1      39.477  -9.570   9.623  1.00  0.00     0.010 A 
ENDBRANCH  34  37
ENDBRANCH  33  34
ENDBRANCH  31  33
ENDBRANCH   9  31
TORSDOF 10
ENDMDL
MODEL 8
REMARK VINA RESULT:      -8.7      2.529      3.224
REMARK  10 active torsions:
REMARK  status: ('A' for Active; 'I' for Inactive)
REMARK    1  A    between atoms: C_8  and  C_9 
REMARK    2  A    between atoms: N_14  and  C_15 
REMARK    3  A    between atoms: C_15  and  C_16 
REMARK    4  A    between atoms: C_16  and  C_17 
REMARK    5  A    between atoms: C_20  and  O_21 
REMARK    6  A    between atoms: C_27  and  N_28 
REMARK    7  A    between atoms: N_28  and  C_29 
REMARK    8  A    between atoms: C_29  and  C_30 
REMARK    9  A    between atoms: C_30  and  O_31 
REMARK   10  A    between atoms: C_30  and  C_32 
ROOT
HETATM    1  C   UNL     1      39.719 -14.130   1.982  1.00  0.00     0.052 C 
HETATM    2  C   UNL     1      39.222 -12.722   2.087  1.00  0.00    -0.015 A 
HETATM    3  C   UNL     1      39.275 -12.063   3.437  1.00  0.00     0.144 A 
HETATM    4  N   UNL     1      39.630 -12.760   4.469  1.00  0.00    -0.217 NA
HETATM    5  N   UNL     1      38.937 -10.721   3.498  1.00  0.00    -0.272 N 
HETATM    6  C   UNL     1      39.039 -10.045   4.703  1.00  0.00     0.266 C 
HETATM    7  O   UNL     1      38.719  -8.864   4.864  1.00  0.00    -0.267 OA
HETATM    8  C   UNL     1      39.572 -10.826   5.857  1.00  0.00     0.074 C 
HETATM    9  C   UNL     1      39.754 -12.157   5.689  1.00  0.00     0.121 C 
HETATM   10  C   UNL     1      38.469 -10.046   2.377  1.00  0.00     0.102 A 
HETATM   11  C   UNL     1      38.365 -10.645   1.187  1.00  0.00     0.018 A 
HETATM   12  C   UNL     1      38.776 -12.015   1.036  1.00  0.00     0.012 A 
ENDROOT
BRANCH   8  13
HETATM   13  C   UNL     1      39.871 -10.101   7.088  1.00  0.00     0.045 C 
HETATM   14  C   UNL     1      41.093  -9.730   7.495  1.00  0.00     0.077 A 
HETATM   15  S   UNL     1      42.587  -9.963   6.675  1.00  0.00    -0.055 SA
HETATM   16  C   UNL     1      41.333  -9.084   8.811  1.00  0.00     0.266 A 
HETATM   17  C   UNL     1      43.534  -9.449   8.060  1.00  0.00     0.148 A 
HETATM   18  S   UNL     1      45.201  -9.533   8.070  1.00  0.00    -0.052 SA
HETATM   19  N   UNL     1      42.692  -9.006   9.061  1.00  0.00    -0.298 N 
HETATM   20  O   UNL     1      40.437  -8.721   9.560  1.00  0.00    -0.266 OA
BRANCH  19  21
HETATM   21  C   UNL     1      43.153  -8.466  10.341  1.00  0.00     0.138 C 
BRANCH  21  22
HETATM   22  C   UNL     1      43.058  -9.504  11.468  1.00  0.00     0.059 C 
BRANCH  22  23
HETATM   23  C   UNL     1      42.645  -8.884  12.779  1.00  0.00    -0.057 A 
HETATM   24  C   UNL     1      41.582  -9.424  13.515  1.00  0.00     0.010 A 
HETATM   25  C   UNL     1      41.201  -8.851  14.728  1.00  0.00     0.037 A 
HETATM   26  C   UNL     1      41.882  -7.745  15.239  1.00  0.00     0.068 A 
HETATM   27  C   UNL     1      42.939  -7.202  14.510  1.00  0.00     0.037 A 
HETATM   28  C   UNL     1      43.317  -7.766  13.286  1.00  0.00     0.010 A 
BRANCH  26  29
HETATM   29  O   UNL     1      41.416  -7.290  16.442  1.00  0.00    -0.356 OA
HETATM   30  C   UNL     1      40.311  -6.397  16.399  1.00  0.00     0.210 C 
ENDBRANCH  26  29
ENDBRANCH  22  23
ENDBRANCH  21  22
ENDBRANCH  19  21
ENDBRANCH   8  13
BRANCH   9  31
HETATM   31  N   UNL     1      40.151 -13.005   6.715  1.00  0.00    -0.274 NA
HETATM   32  H   UNL     1      40.776 -12.477   7.330  1.00  0.00     0.129 HD
BRANCH  31  33
HETATM   33  C   UNL     1      40.606 -14.387   6.514  1.00  0.00     0.130 C 
BRANCH  33  34
HETATM   34  C   UNL     1      42.137 -14.444   6.276  1.00  0.00     0.164 C 
BRANCH  34  35
HETATM   35  O   UNL     1      42.827 -14.460   7.535  1.00  0.00    -0.390 OA
HETATM   36  H   UNL     1      42.686 -13.596   7.964  1.00  0.00     0.210 HD
ENDBRANCH  34  35
BRANCH  34  37
HETATM   37  C   UNL     1      42.678 -15.584   5.432  1.00  0.00    -0.029 A 
HETATM   38  C   UNL     1      42.252 -15.854   4.124  1.00  0.00     0.010 A 
HETATM   39  C   UNL     1      42.799 -16.914   3.394  1.00  0.00     0.001 A 
HETATM   40  C   UNL     1      43.782 -17.722   3.961  1.00  0.00     0.000 A 
HETATM   41  C   UNL     1      44.216 -17.473   5.259  1.00  0.00     0.001 A 
HETATM   42  C   UNL     1      43.668 -16.415   5.987  1.00  0.00     0.010 A 
ENDBRANCH  34  37
ENDBRANCH  33  34
ENDBRANCH  31  33
ENDBRANCH   9  31
TORSDOF 10
ENDMDL
MODEL 9
REMARK VINA RESULT:      -8.7      2.558      3.821
REMARK  10 active torsions:
REMARK  status: ('A' for Active; 'I' for Inactive)
REMARK    1  A    between atoms: C_8  and  C_9 
REMARK    2  A    between atoms: N_14  and  C_15 
REMARK    3  A    between atoms: C_15  and  C_16 
REMARK    4  A    between atoms: C_16  and  C_17 
REMARK    5  A    between atoms: C_20  and  O_21 
REMARK    6  A    between atoms: C_27  and  N_28 
REMARK    7  A    between atoms: N_28  and  C_29 
REMARK    8  A    between atoms: C_29  and  C_30 
REMARK    9  A    between atoms: C_30  and  O_31 
REMARK   10  A    between atoms: C_30  and  C_32 
ROOT
HETATM    1  C   UNL     1      38.519 -15.027  -3.001  1.00  0.00     0.052 C 
HETATM    2  C   UNL     1      38.281 -13.662  -2.434  1.00  0.00    -0.015 A 
HETATM    3  C   UNL     1      39.070 -13.265  -1.217  1.00  0.00     0.144 A 
HETATM    4  N   UNL     1      39.828 -14.142  -0.639  1.00  0.00    -0.217 NA
HETATM    5  N   UNL     1      38.941 -11.956  -0.780  1.00  0.00    -0.272 N 
HETATM    6  C   UNL     1      39.701 -11.515   0.291  1.00  0.00     0.266 C 
HETATM    7  O   UNL     1      39.622 -10.385   0.778  1.00  0.00    -0.267 OA
HETATM    8  C   UNL     1      40.664 -12.498   0.867  1.00  0.00     0.074 C 
HETATM    9  C   UNL     1      40.607 -13.775   0.421  1.00  0.00     0.121 C 
HETATM   10  C   UNL     1      38.040 -11.085  -1.379  1.00  0.00     0.102 A 
HETATM   11  C   UNL     1      37.292 -11.452  -2.424  1.00  0.00     0.018 A 
HETATM   12  C   UNL     1      37.437 -12.771  -2.980  1.00  0.00     0.012 A 
ENDROOT
BRANCH   8  13
HETATM   13  C   UNL     1      41.611 -12.014   1.867  1.00  0.00     0.045 C 
HETATM   14  C   UNL     1      41.349 -11.853   3.172  1.00  0.00     0.077 A 
HETATM   15  S   UNL     1      39.884 -12.208   4.000  1.00  0.00    -0.055 SA
HETATM   16  C   UNL     1      42.332 -11.258   4.114  1.00  0.00     0.266 A 
HETATM   17  C   UNL     1      40.417 -11.421   5.474  1.00  0.00     0.148 A 
HETATM   18  S   UNL     1      39.407 -11.231   6.789  1.00  0.00    -0.052 SA
HETATM   19  N   UNL     1      41.730 -11.015   5.337  1.00  0.00    -0.298 N 
HETATM   20  O   UNL     1      43.487 -10.995   3.811  1.00  0.00    -0.266 OA
BRANCH  19  21
HETATM   21  C   UNL     1      42.502 -10.361   6.395  1.00  0.00     0.138 C 
BRANCH  21  22
HETATM   22  C   UNL     1      42.062  -8.907   6.609  1.00  0.00     0.059 C 
BRANCH  22  23
HETATM   23  C   UNL     1      42.192  -8.479   8.050  1.00  0.00    -0.057 A 
HETATM   24  C   UNL     1      43.079  -7.455   8.407  1.00  0.00     0.010 A 
HETATM   25  C   UNL     1      43.199  -7.058   9.739  1.00  0.00     0.037 A 
HETATM   26  C   UNL     1      42.425  -7.660  10.733  1.00  0.00     0.068 A 
HETATM   27  C   UNL     1      41.543  -8.681  10.384  1.00  0.00     0.037 A 
HETATM   28  C   UNL     1      41.428  -9.089   9.050  1.00  0.00     0.010 A 
BRANCH  26  29
HETATM   29  O   UNL     1      42.630  -7.169  11.994  1.00  0.00    -0.356 OA
HETATM   30  C   UNL     1      41.978  -7.854  13.056  1.00  0.00     0.210 C 
ENDBRANCH  26  29
ENDBRANCH  22  23
ENDBRANCH  21  22
ENDBRANCH  19  21
ENDBRANCH   8  13
BRANCH   9  31
HETATM   31  N   UNL     1      41.383 -14.800   0.949  1.00  0.00    -0.274 NA
HETATM   32  H   UNL     1      42.038 -15.099   0.221  1.00  0.00     0.129 HD
BRANCH  31  33
HETATM   33  C   UNL     1      40.845 -15.932   1.713  1.00  0.00     0.130 C 
BRANCH  33  34
HETATM   34  C   UNL     1      41.321 -15.891   3.188  1.00  0.00     0.164 C 
BRANCH  34  35
HETATM   35  O   UNL     1      40.202 -16.080   4.068  1.00  0.00    -0.390 OA
HETATM   36  H   UNL     1      40.526 -16.522   4.873  1.00  0.00     0.210 HD
ENDBRANCH  34  35
BRANCH  34  37
HETATM   37  C   UNL     1      42.412 -16.860   3.604  1.00  0.00    -0.029 A 
HETATM   38  C   UNL     1      42.954 -16.914   4.896  1.00  0.00     0.010 A 
HETATM   39  C   UNL     1      43.951 -17.839   5.220  1.00  0.00     0.001 A 
HETATM   40  C   UNL     1      44.422 -18.728   4.256  1.00  0.00     0.000 A 
HETATM   41  C   UNL     1      43.900 -18.689   2.967  1.00  0.00     0.001 A 
HETATM   42  C   UNL     1      42.905 -17.764   2.645  1.00  0.00     0.010 A 
ENDBRANCH  34  37
ENDBRANCH  33  34
ENDBRANCH  31  33
ENDBRANCH   9  31
TORSDOF 10
ENDMDL
MODEL 10
REMARK VINA RESULT:      -8.6      2.433      3.209
REMARK  10 active torsions:
REMARK  status: ('A' for Active; 'I' for Inactive)
REMARK    1  A    between atoms: C_8  and  C_9 
REMARK    2  A    between atoms: N_14  and  C_15 
REMARK    3  A    between atoms: C_15  and  C_16 
REMARK    4  A    between atoms: C_16  and  C_17 
REMARK    5  A    between atoms: C_20  and  O_21 
REMARK    6  A    between atoms: C_27  and  N_28 
REMARK    7  A    between atoms: N_28  and  C_29 
REMARK    8  A    between atoms: C_29  and  C_30 
REMARK    9  A    between atoms: C_30  and  O_31 
REMARK   10  A    between atoms: C_30  and  C_32 
ROOT
HETATM    1  C   UNL     1      39.082 -13.054   1.901  1.00  0.00     0.052 C 
HETATM    2  C   UNL     1      39.389 -11.597   2.056  1.00  0.00    -0.015 A 
HETATM    3  C   UNL     1      40.101 -11.164   3.308  1.00  0.00     0.144 A 
HETATM    4  N   UNL     1      40.315 -12.030   4.246  1.00  0.00    -0.217 NA
HETATM    5  N   UNL     1      40.498  -9.839   3.382  1.00  0.00    -0.272 N 
HETATM    6  C   UNL     1      41.223  -9.403   4.480  1.00  0.00     0.266 C 
HETATM    7  O   UNL     1      41.580  -8.235   4.654  1.00  0.00    -0.267 OA
HETATM    8  C   UNL     1      41.574 -10.439   5.494  1.00  0.00     0.074 C 
HETATM    9  C   UNL     1      41.027 -11.669   5.356  1.00  0.00     0.121 C 
HETATM   10  C   UNL     1      40.157  -8.930   2.388  1.00  0.00     0.102 A 
HETATM   11  C   UNL     1      39.471  -9.298   1.301  1.00  0.00     0.018 A 
HETATM   12  C   UNL     1      39.100 -10.677   1.122  1.00  0.00     0.012 A 
ENDROOT
BRANCH   8  13
HETATM   13  C   UNL     1      42.493 -10.059   6.562  1.00  0.00     0.045 C 
HETATM   14  C   UNL     1      42.137  -9.539   7.746  1.00  0.00     0.077 A 
HETATM   15  S   UNL     1      40.545  -9.233   8.321  1.00  0.00    -0.055 SA
HETATM   16  C   UNL     1      43.135  -9.079   8.746  1.00  0.00     0.266 A 
HETATM   17  C   UNL     1      41.122  -8.339   9.717  1.00  0.00     0.148 A 
HETATM   18  S   UNL     1      40.077  -7.560  10.760  1.00  0.00    -0.052 SA
HETATM   19  N   UNL     1      42.501  -8.397   9.770  1.00  0.00    -0.298 N 
HETATM   20  O   UNL     1      44.340  -9.259   8.633  1.00  0.00    -0.266 OA
BRANCH  19  21
HETATM   21  C   UNL     1      43.307  -7.793  10.832  1.00  0.00     0.138 C 
BRANCH  21  22
HETATM   22  C   UNL     1      43.581  -8.779  11.975  1.00  0.00     0.059 C 
BRANCH  22  23
HETATM   23  C   UNL     1      42.908  -8.363  13.259  1.00  0.00    -0.057 A 
HETATM   24  C   UNL     1      43.324  -7.207  13.934  1.00  0.00     0.010 A 
HETATM   25  C   UNL     1      42.700  -6.821  15.121  1.00  0.00     0.037 A 
HETATM   26  C   UNL     1      41.643  -7.567  15.645  1.00  0.00     0.068 A 
HETATM   27  C   UNL     1      41.227  -8.719  14.979  1.00  0.00     0.037 A 
HETATM   28  C   UNL     1      41.857  -9.115  13.794  1.00  0.00     0.010 A 
BRANCH  26  29
HETATM   29  O   UNL     1      41.113  -7.072  16.805  1.00  0.00    -0.356 OA
HETATM   30  C   UNL     1      41.556  -5.782  17.207  1.00  0.00     0.210 C 
ENDBRANCH  26  29
ENDBRANCH  22  23
ENDBRANCH  21  22
ENDBRANCH  19  21
ENDBRANCH   8  13
BRANCH   9  31
HETATM   31  N   UNL     1      41.199 -12.687   6.287  1.00  0.00    -0.274 NA
HETATM   32  H   UNL     1      41.182 -12.261   7.218  1.00  0.00     0.129 HD
BRANCH  31  33
HETATM   33  C   UNL     1      42.214 -13.742   6.176  1.00  0.00     0.130 C 
BRANCH  33  34
HETATM   34  C   UNL     1      41.652 -14.987   5.443  1.00  0.00     0.164 C 
BRANCH  34  35
HETATM   35  O   UNL     1      40.227 -14.871   5.305  1.00  0.00    -0.390 OA
HETATM   36  H   UNL     1      39.815 -15.542   5.879  1.00  0.00     0.210 HD
ENDBRANCH  34  35
BRANCH  34  37
HETATM   37  C   UNL     1      42.228 -15.323   4.080  1.00  0.00    -0.029 A 
HETATM   38  C   UNL     1      42.736 -14.364   3.192  1.00  0.00     0.010 A 
HETATM   39  C   UNL     1      43.265 -14.740   1.953  1.00  0.00     0.001 A 
HETATM   40  C   UNL     1      43.294 -16.082   1.582  1.00  0.00     0.000 A 
HETATM   41  C   UNL     1      42.791 -17.049   2.446  1.00  0.00     0.001 A 
HETATM   42  C   UNL     1      42.263 -16.672   3.683  1.00  0.00     0.010 A 
ENDBRANCH  34  37
ENDBRANCH  33  34
ENDBRANCH  31  33
ENDBRANCH   9  31
TORSDOF 10
ENDMDL
