MODEL 1
REMARK VINA RESULT:      -9.0      0.000      0.000
REMARK  6 active torsions:
REMARK  status: ('A' for Active; 'I' for Inactive)
REMARK    1  A    between atoms: O_2  and  C_3 
REMARK    2  A    between atoms: C_5  and  C_6 
REMARK    3  A    between atoms: C_12  and  C_13 
REMARK       I    between atoms: C_13  and  N_14 
REMARK    4  A    between atoms: N_14  and  C_15 
REMARK    5  A    between atoms: C_17  and  O_18 
REMARK    6  A    between atoms: C_23  and  C_24 
ROOT
HETATM    1  C   UNL     1      43.328 -15.052   2.520  1.00  0.00     0.118 C 
HETATM    2  N   UNL     1      43.393 -14.182   3.697  1.00  0.00    -0.365 N 
HETATM    3  C   UNL     1      42.261 -13.671   4.251  1.00  0.00     0.138 A 
HETATM    4  N   UNL     1      41.045 -13.773   3.624  1.00  0.00    -0.240 N 
HETATM    5  N   UNL     1      40.040 -13.194   4.300  1.00  0.00    -0.181 NA
HETATM    6  C   UNL     1      40.623 -12.787   5.432  1.00  0.00     0.160 A 
HETATM    7  C   UNL     1      42.018 -13.025   5.450  1.00  0.00     0.096 A 
HETATM    8  C   UNL     1      40.818 -14.429   2.351  1.00  0.00     0.221 C 
HETATM    9  C   UNL     1      42.149 -14.662   1.614  1.00  0.00     0.066 C 
HETATM   10  H   UNL     1      44.176 -14.424   4.307  1.00  0.00     0.161 HD
ENDROOT
BRANCH   7  11
HETATM   11  C   UNL     1      42.955 -12.689   6.507  1.00  0.00     0.261 C 
HETATM   12  N   UNL     1      43.122 -11.326   6.664  1.00  0.00    -0.323 N 
HETATM   13  H   UNL     1      42.451 -10.750   6.168  1.00  0.00     0.169 HD
HETATM   14  O   UNL     1      43.492 -13.563   7.177  1.00  0.00    -0.267 OA
BRANCH  12  15
HETATM   15  C   UNL     1      44.065 -10.655   7.465  1.00  0.00     0.037 A 
HETATM   16  C   UNL     1      45.407 -10.497   7.111  1.00  0.00     0.066 A 
HETATM   17  C   UNL     1      46.260  -9.776   7.945  1.00  0.00     0.067 A 
HETATM   18  C   UNL     1      45.803  -9.218   9.132  1.00  0.00     0.036 A 
HETATM   19  C   UNL     1      44.468  -9.376   9.493  1.00  0.00     0.005 A 
HETATM   20  C   UNL     1      43.601 -10.087   8.660  1.00  0.00     0.029 A 
BRANCH  17  21
HETATM   21  O   UNL     1      47.573  -9.587   7.622  1.00  0.00    -0.361 OA
HETATM   22  H   UNL     1      48.113  -9.776   8.408  1.00  0.00     0.217 HD
ENDBRANCH  17  21
ENDBRANCH  12  15
ENDBRANCH   7  11
BRANCH   1  23
HETATM   23  C   UNL     1      43.433 -16.523   2.874  1.00  0.00    -0.033 A 
HETATM   24  C   UNL     1      43.686 -16.884   4.210  1.00  0.00     0.046 A 
HETATM   25  C   UNL     1      43.745 -18.223   4.612  1.00  0.00     0.068 A 
HETATM   26  C   UNL     1      43.571 -19.228   3.665  1.00  0.00     0.037 A 
HETATM   27  C   UNL     1      43.327 -18.895   2.333  1.00  0.00     0.003 A 
HETATM   28  C   UNL     1      43.251 -17.557   1.942  1.00  0.00     0.009 A 
BRANCH  25  29
HETATM   29  O   UNL     1      43.975 -18.408   5.947  1.00  0.00    -0.356 OA
HETATM   30  C   UNL     1      43.335 -17.502   6.838  1.00  0.00     0.210 C 
ENDBRANCH  25  29
ENDBRANCH   1  23
BRANCH   8  31
HETATM   31  C   UNL     1      39.996 -15.687   2.536  1.00  0.00     0.409 C 
HETATM   32  F   UNL     1      40.308 -16.382   3.645  1.00  0.00    -0.169 F 
HETATM   33  F   UNL     1      38.669 -15.430   2.578  1.00  0.00    -0.169 F 
HETATM   34  F   UNL     1      40.182 -16.521   1.479  1.00  0.00    -0.169 F 
ENDBRANCH   8  31
TORSDOF 6
ENDMDL
MODEL 2
REMARK VINA RESULT:      -8.9      3.958      7.034
REMARK  6 active torsions:
REMARK  status: ('A' for Active; 'I' for Inactive)
REMARK    1  A    between atoms: O_2  and  C_3 
REMARK    2  A    between atoms: C_5  and  C_6 
REMARK    3  A    between atoms: C_12  and  C_13 
REMARK       I    between atoms: C_13  and  N_14 
REMARK    4  A    between atoms: N_14  and  C_15 
REMARK    5  A    between atoms: C_17  and  O_18 
REMARK    6  A    between atoms: C_23  and  C_24 
ROOT
HETATM    1  C   UNL     1      40.740 -15.673   4.903  1.00  0.00     0.118 C 
HETATM    2  N   UNL     1      40.053 -14.756   3.991  1.00  0.00    -0.365 N 
HETATM    3  C   UNL     1      40.374 -13.434   3.956  1.00  0.00     0.138 A 
HETATM    4  N   UNL     1      41.195 -12.869   4.899  1.00  0.00    -0.240 N 
HETATM    5  N   UNL     1      41.388 -11.552   4.726  1.00  0.00    -0.181 NA
HETATM    6  C   UNL     1      40.738 -11.292   3.587  1.00  0.00     0.160 A 
HETATM    7  C   UNL     1      40.055 -12.419   3.071  1.00  0.00     0.096 A 
HETATM    8  C   UNL     1      41.812 -13.583   5.999  1.00  0.00     0.221 C 
HETATM    9  C   UNL     1      41.144 -14.956   6.201  1.00  0.00     0.066 C 
HETATM   10  H   UNL     1      39.771 -15.219   3.125  1.00  0.00     0.161 HD
ENDROOT
BRANCH   7  11
HETATM   11  C   UNL     1      39.238 -12.482   1.872  1.00  0.00     0.261 C 
HETATM   12  N   UNL     1      39.850 -13.170   0.841  1.00  0.00    -0.323 N 
HETATM   13  H   UNL     1      40.682 -13.688   1.102  1.00  0.00     0.169 HD
HETATM   14  O   UNL     1      38.120 -11.985   1.844  1.00  0.00    -0.267 OA
BRANCH  12  15
HETATM   15  C   UNL     1      39.428 -13.279  -0.497  1.00  0.00     0.037 A 
HETATM   16  C   UNL     1      39.064 -12.185  -1.285  1.00  0.00     0.066 A 
HETATM   17  C   UNL     1      38.703 -12.383  -2.617  1.00  0.00     0.067 A 
HETATM   18  C   UNL     1      38.690 -13.655  -3.177  1.00  0.00     0.036 A 
HETATM   19  C   UNL     1      39.047 -14.750  -2.395  1.00  0.00     0.005 A 
HETATM   20  C   UNL     1      39.421 -14.562  -1.063  1.00  0.00     0.029 A 
BRANCH  17  21
HETATM   21  O   UNL     1      38.359 -11.335  -3.420  1.00  0.00    -0.361 OA
HETATM   22  H   UNL     1      39.131 -10.749  -3.509  1.00  0.00     0.217 HD
ENDBRANCH  17  21
ENDBRANCH  12  15
ENDBRANCH   7  11
BRANCH   1  23
HETATM   23  C   UNL     1      41.834 -16.469   4.218  1.00  0.00    -0.033 A 
HETATM   24  C   UNL     1      42.622 -17.343   4.988  1.00  0.00     0.046 A 
HETATM   25  C   UNL     1      43.615 -18.143   4.410  1.00  0.00     0.068 A 
HETATM   26  C   UNL     1      43.847 -18.057   3.040  1.00  0.00     0.037 A 
HETATM   27  C   UNL     1      43.083 -17.192   2.257  1.00  0.00     0.003 A 
HETATM   28  C   UNL     1      42.083 -16.411   2.838  1.00  0.00     0.009 A 
BRANCH  25  29
HETATM   29  O   UNL     1      44.276 -18.956   5.288  1.00  0.00    -0.356 OA
HETATM   30  C   UNL     1      44.257 -20.350   5.006  1.00  0.00     0.210 C 
ENDBRANCH  25  29
ENDBRANCH   1  23
BRANCH   8  31
HETATM   31  C   UNL     1      43.313 -13.659   5.813  1.00  0.00     0.409 C 
HETATM   32  F   UNL     1      43.973 -12.582   6.274  1.00  0.00    -0.169 F 
HETATM   33  F   UNL     1      43.848 -14.750   6.409  1.00  0.00    -0.169 F 
HETATM   34  F   UNL     1      43.611 -13.772   4.492  1.00  0.00    -0.169 F 
ENDBRANCH   8  31
TORSDOF 6
ENDMDL
MODEL 3
REMARK VINA RESULT:      -8.8      1.467      2.012
REMARK  6 active torsions:
REMARK  status: ('A' for Active; 'I' for Inactive)
REMARK    1  A    between atoms: O_2  and  C_3 
REMARK    2  A    between atoms: C_5  and  C_6 
REMARK    3  A    between atoms: C_12  and  C_13 
REMARK       I    between atoms: C_13  and  N_14 
REMARK    4  A    between atoms: N_14  and  C_15 
REMARK    5  A    between atoms: C_17  and  O_18 
REMARK    6  A    between atoms: C_23  and  C_24 
ROOT
HETATM    1  C   UNL     1      43.411 -15.206   2.209  1.00  0.00     0.118 C 
HETATM    2  N   UNL     1      43.368 -13.879   2.829  1.00  0.00    -0.365 N 
HETATM    3  C   UNL     1      42.182 -13.247   3.044  1.00  0.00     0.138 A 
HETATM    4  N   UNL     1      41.009 -13.720   2.514  1.00  0.00    -0.240 N 
HETATM    5  N   UNL     1      39.941 -12.962   2.807  1.00  0.00    -0.181 NA
HETATM    6  C   UNL     1      40.440 -12.027   3.621  1.00  0.00     0.160 A 
HETATM    7  C   UNL     1      41.842 -12.128   3.784  1.00  0.00     0.096 A 
HETATM    8  C   UNL     1      40.885 -14.916   1.703  1.00  0.00     0.221 C 
HETATM    9  C   UNL     1      42.265 -15.377   1.199  1.00  0.00     0.066 C 
HETATM   10  H   UNL     1      44.128 -13.746   3.499  1.00  0.00     0.161 HD
ENDROOT
BRANCH   7  11
HETATM   11  C   UNL     1      42.703 -11.265   4.574  1.00  0.00     0.261 C 
HETATM   12  N   UNL     1      43.453 -11.960   5.503  1.00  0.00    -0.323 N 
HETATM   13  H   UNL     1      43.450 -12.969   5.393  1.00  0.00     0.169 HD
HETATM   14  O   UNL     1      42.740 -10.058   4.374  1.00  0.00    -0.267 OA
BRANCH  12  15
HETATM   15  C   UNL     1      44.254 -11.438   6.536  1.00  0.00     0.037 A 
HETATM   16  C   UNL     1      45.628 -11.221   6.414  1.00  0.00     0.066 A 
HETATM   17  C   UNL     1      46.334 -10.656   7.475  1.00  0.00     0.067 A 
HETATM   18  C   UNL     1      45.697 -10.310   8.660  1.00  0.00     0.036 A 
HETATM   19  C   UNL     1      44.328 -10.527   8.789  1.00  0.00     0.005 A 
HETATM   20  C   UNL     1      43.608 -11.083   7.729  1.00  0.00     0.029 A 
BRANCH  17  21
HETATM   21  O   UNL     1      47.674 -10.415   7.384  1.00  0.00    -0.361 OA
HETATM   22  H   UNL     1      48.151 -11.213   7.671  1.00  0.00     0.217 HD
ENDBRANCH  17  21
ENDBRANCH  12  15
ENDBRANCH   7  11
BRANCH   1  23
HETATM   23  C   UNL     1      43.570 -16.321   3.225  1.00  0.00    -0.033 A 
HETATM   24  C   UNL     1      43.697 -17.645   2.766  1.00  0.00     0.046 A 
HETATM   25  C   UNL     1      43.897 -18.714   3.647  1.00  0.00     0.068 A 
HETATM   26  C   UNL     1      43.951 -18.467   5.016  1.00  0.00     0.037 A 
HETATM   27  C   UNL     1      43.821 -17.164   5.495  1.00  0.00     0.003 A 
HETATM   28  C   UNL     1      43.640 -16.101   4.609  1.00  0.00     0.009 A 
BRANCH  25  29
HETATM   29  O   UNL     1      44.024 -19.934   3.045  1.00  0.00    -0.356 OA
HETATM   30  C   UNL     1      43.169 -20.192   1.937  1.00  0.00     0.210 C 
ENDBRANCH  25  29
ENDBRANCH   1  23
BRANCH   8  31
HETATM   31  C   UNL     1      40.119 -15.990   2.447  1.00  0.00     0.409 C 
HETATM   32  F   UNL     1      40.337 -15.992   3.774  1.00  0.00    -0.169 F 
HETATM   33  F   UNL     1      38.784 -15.892   2.255  1.00  0.00    -0.169 F 
HETATM   34  F   UNL     1      40.475 -17.217   1.984  1.00  0.00    -0.169 F 
ENDBRANCH   8  31
TORSDOF 6
ENDMDL
MODEL 4
REMARK VINA RESULT:      -8.8      4.188      7.655
REMARK  6 active torsions:
REMARK  status: ('A' for Active; 'I' for Inactive)
REMARK    1  A    between atoms: O_2  and  C_3 
REMARK    2  A    between atoms: C_5  and  C_6 
REMARK    3  A    between atoms: C_12  and  C_13 
REMARK       I    between atoms: C_13  and  N_14 
REMARK    4  A    between atoms: N_14  and  C_15 
REMARK    5  A    between atoms: C_17  and  O_18 
REMARK    6  A    between atoms: C_23  and  C_24 
ROOT
HETATM    1  C   UNL     1      40.623 -15.368   5.550  1.00  0.00     0.118 C 
HETATM    2  N   UNL     1      40.186 -15.050   4.188  1.00  0.00    -0.365 N 
HETATM    3  C   UNL     1      40.552 -13.883   3.591  1.00  0.00     0.138 A 
HETATM    4  N   UNL     1      41.162 -12.877   4.296  1.00  0.00    -0.240 N 
HETATM    5  N   UNL     1      41.433 -11.790   3.557  1.00  0.00    -0.181 NA
HETATM    6  C   UNL     1      41.061 -12.152   2.326  1.00  0.00     0.160 A 
HETATM    7  C   UNL     1      40.471 -13.438   2.284  1.00  0.00     0.096 A 
HETATM    8  C   UNL     1      41.496 -12.932   5.705  1.00  0.00     0.221 C 
HETATM    9  C   UNL     1      40.754 -14.092   6.395  1.00  0.00     0.066 C 
HETATM   10  H   UNL     1      40.087 -15.889   3.613  1.00  0.00     0.161 HD
ENDROOT
BRANCH   7  11
HETATM   11  C   UNL     1      39.938 -14.126   1.121  1.00  0.00     0.261 C 
HETATM   12  N   UNL     1      39.620 -13.266   0.087  1.00  0.00    -0.323 N 
HETATM   13  H   UNL     1      39.964 -12.318   0.194  1.00  0.00     0.169 HD
HETATM   14  O   UNL     1      39.829 -15.346   1.104  1.00  0.00    -0.267 OA
BRANCH  12  15
HETATM   15  C   UNL     1      38.935 -13.562  -1.106  1.00  0.00     0.037 A 
HETATM   16  C   UNL     1      37.886 -12.787  -1.608  1.00  0.00     0.066 A 
HETATM   17  C   UNL     1      37.295 -13.131  -2.823  1.00  0.00     0.067 A 
HETATM   18  C   UNL     1      37.724 -14.238  -3.544  1.00  0.00     0.036 A 
HETATM   19  C   UNL     1      38.766 -15.016  -3.047  1.00  0.00     0.005 A 
HETATM   20  C   UNL     1      39.372 -14.676  -1.836  1.00  0.00     0.029 A 
BRANCH  17  21
HETATM   21  O   UNL     1      36.280 -12.386  -3.351  1.00  0.00    -0.361 OA
HETATM   22  H   UNL     1      36.616 -11.491  -3.528  1.00  0.00     0.217 HD
ENDBRANCH  17  21
ENDBRANCH  12  15
ENDBRANCH   7  11
BRANCH   1  23
HETATM   23  C   UNL     1      41.814 -16.306   5.577  1.00  0.00    -0.033 A 
HETATM   24  C   UNL     1      42.335 -16.780   4.359  1.00  0.00     0.046 A 
HETATM   25  C   UNL     1      43.462 -17.608   4.312  1.00  0.00     0.068 A 
HETATM   26  C   UNL     1      44.075 -17.993   5.501  1.00  0.00     0.037 A 
HETATM   27  C   UNL     1      43.573 -17.543   6.721  1.00  0.00     0.003 A 
HETATM   28  C   UNL     1      42.459 -16.702   6.759  1.00  0.00     0.009 A 
BRANCH  25  29
HETATM   29  O   UNL     1      43.857 -17.963   3.052  1.00  0.00    -0.356 OA
HETATM   30  C   UNL     1      43.983 -19.355   2.790  1.00  0.00     0.210 C 
ENDBRANCH  25  29
ENDBRANCH   1  23
BRANCH   8  31
HETATM   31  C   UNL     1      42.998 -12.972   5.898  1.00  0.00     0.409 C 
HETATM   32  F   UNL     1      43.577 -11.758   5.898  1.00  0.00    -0.169 F 
HETATM   33  F   UNL     1      43.350 -13.589   7.049  1.00  0.00    -0.169 F 
HETATM   34  F   UNL     1      43.575 -13.688   4.898  1.00  0.00    -0.169 F 
ENDBRANCH   8  31
TORSDOF 6
ENDMDL
MODEL 5
REMARK VINA RESULT:      -8.7      3.477      7.174
REMARK  6 active torsions:
REMARK  status: ('A' for Active; 'I' for Inactive)
REMARK    1  A    between atoms: O_2  and  C_3 
REMARK    2  A    between atoms: C_5  and  C_6 
REMARK    3  A    between atoms: C_12  and  C_13 
REMARK       I    between atoms: C_13  and  N_14 
REMARK    4  A    between atoms: N_14  and  C_15 
REMARK    5  A    between atoms: C_17  and  O_18 
REMARK    6  A    between atoms: C_23  and  C_24 
ROOT
HETATM    1  C   UNL     1      42.432 -12.749   1.985  1.00  0.00     0.118 C 
HETATM    2  N   UNL     1      42.965 -13.775   2.885  1.00  0.00    -0.365 N 
HETATM    3  C   UNL     1      42.494 -13.902   4.155  1.00  0.00     0.138 A 
HETATM    4  N   UNL     1      41.662 -12.963   4.710  1.00  0.00    -0.240 N 
HETATM    5  N   UNL     1      41.313 -13.235   5.977  1.00  0.00    -0.181 NA
HETATM    6  C   UNL     1      41.871 -14.428   6.203  1.00  0.00     0.160 A 
HETATM    7  C   UNL     1      42.652 -14.886   5.115  1.00  0.00     0.096 A 
HETATM    8  C   UNL     1      41.184 -11.772   4.035  1.00  0.00     0.221 C 
HETATM    9  C   UNL     1      42.013 -11.496   2.768  1.00  0.00     0.066 C 
HETATM   10  H   UNL     1      43.255 -14.614   2.379  1.00  0.00     0.161 HD
ENDROOT
BRANCH   7  11
HETATM   11  C   UNL     1      43.411 -16.121   5.033  1.00  0.00     0.261 C 
HETATM   12  N   UNL     1      42.979 -16.951   4.016  1.00  0.00    -0.323 N 
HETATM   13  H   UNL     1      42.334 -16.527   3.358  1.00  0.00     0.169 HD
HETATM   14  O   UNL     1      44.345 -16.340   5.794  1.00  0.00    -0.267 OA
BRANCH  12  15
HETATM   15  C   UNL     1      43.366 -18.279   3.757  1.00  0.00     0.037 A 
HETATM   16  C   UNL     1      43.860 -19.145   4.736  1.00  0.00     0.066 A 
HETATM   17  C   UNL     1      44.176 -20.460   4.397  1.00  0.00     0.067 A 
HETATM   18  C   UNL     1      44.017 -20.926   3.098  1.00  0.00     0.036 A 
HETATM   19  C   UNL     1      43.529 -20.067   2.118  1.00  0.00     0.005 A 
HETATM   20  C   UNL     1      43.200 -18.751   2.447  1.00  0.00     0.029 A 
BRANCH  17  21
HETATM   21  O   UNL     1      44.644 -21.338   5.332  1.00  0.00    -0.361 OA
HETATM   22  H   UNL     1      44.358 -22.233   5.083  1.00  0.00     0.217 HD
ENDBRANCH  17  21
ENDBRANCH  12  15
ENDBRANCH   7  11
BRANCH   1  23
HETATM   23  C   UNL     1      41.403 -13.300   1.016  1.00  0.00    -0.033 A 
HETATM   24  C   UNL     1      41.016 -12.513  -0.085  1.00  0.00     0.046 A 
HETATM   25  C   UNL     1      40.109 -12.981  -1.042  1.00  0.00     0.068 A 
HETATM   26  C   UNL     1      39.555 -14.250  -0.894  1.00  0.00     0.037 A 
HETATM   27  C   UNL     1      39.917 -15.045   0.193  1.00  0.00     0.003 A 
HETATM   28  C   UNL     1      40.837 -14.579   1.134  1.00  0.00     0.009 A 
BRANCH  25  29
HETATM   29  O   UNL     1      39.855 -12.107  -2.063  1.00  0.00    -0.356 OA
HETATM   30  C   UNL     1      40.896 -11.915  -3.013  1.00  0.00     0.210 C 
ENDBRANCH  25  29
ENDBRANCH   1  23
BRANCH   8  31
HETATM   31  C   UNL     1      39.694 -11.863   3.780  1.00  0.00     0.409 C 
HETATM   32  F   UNL     1      39.293 -11.214   2.672  1.00  0.00    -0.169 F 
HETATM   33  F   UNL     1      39.270 -13.143   3.677  1.00  0.00    -0.169 F 
HETATM   34  F   UNL     1      39.011 -11.325   4.825  1.00  0.00    -0.169 F 
ENDBRANCH   8  31
TORSDOF 6
ENDMDL
MODEL 6
REMARK VINA RESULT:      -8.5      2.950      7.495
REMARK  6 active torsions:
REMARK  status: ('A' for Active; 'I' for Inactive)
REMARK    1  A    between atoms: O_2  and  C_3 
REMARK    2  A    between atoms: C_5  and  C_6 
REMARK    3  A    between atoms: C_12  and  C_13 
REMARK       I    between atoms: C_13  and  N_14 
REMARK    4  A    between atoms: N_14  and  C_15 
REMARK    5  A    between atoms: C_17  and  O_18 
REMARK    6  A    between atoms: C_23  and  C_24 
ROOT
HETATM    1  C   UNL     1      42.256 -12.747   6.268  1.00  0.00     0.118 C 
HETATM    2  N   UNL     1      42.379 -13.711   5.172  1.00  0.00    -0.365 N 
HETATM    3  C   UNL     1      41.995 -13.386   3.908  1.00  0.00     0.138 A 
HETATM    4  N   UNL     1      41.295 -12.236   3.644  1.00  0.00    -0.240 N 
HETATM    5  N   UNL     1      40.978 -12.084   2.349  1.00  0.00    -0.181 NA
HETATM    6  C   UNL     1      41.571 -13.127   1.761  1.00  0.00     0.160 A 
HETATM    7  C   UNL     1      42.196 -13.999   2.685  1.00  0.00     0.096 A 
HETATM    8  C   UNL     1      40.906 -11.253   4.636  1.00  0.00     0.221 C 
HETATM    9  C   UNL     1      41.041 -11.830   6.057  1.00  0.00     0.066 C 
HETATM   10  H   UNL     1      43.179 -14.334   5.300  1.00  0.00     0.161 HD
ENDROOT
BRANCH   7  11
HETATM   11  C   UNL     1      42.906 -15.231   2.392  1.00  0.00     0.261 C 
HETATM   12  N   UNL     1      42.394 -16.321   3.070  1.00  0.00    -0.323 N 
HETATM   13  H   UNL     1      41.500 -16.165   3.525  1.00  0.00     0.169 HD
HETATM   14  O   UNL     1      43.836 -15.250   1.596  1.00  0.00    -0.267 OA
BRANCH  12  15
HETATM   15  C   UNL     1      42.931 -17.619   3.157  1.00  0.00     0.037 A 
HETATM   16  C   UNL     1      42.788 -18.583   2.156  1.00  0.00     0.066 A 
HETATM   17  C   UNL     1      43.394 -19.829   2.308  1.00  0.00     0.067 A 
HETATM   18  C   UNL     1      44.134 -20.136   3.444  1.00  0.00     0.036 A 
HETATM   19  C   UNL     1      44.276 -19.181   4.446  1.00  0.00     0.005 A 
HETATM   20  C   UNL     1      43.682 -17.925   4.300  1.00  0.00     0.029 A 
BRANCH  17  21
HETATM   21  O   UNL     1      43.290 -20.789   1.343  1.00  0.00    -0.361 OA
HETATM   22  H   UNL     1      42.957 -21.604   1.755  1.00  0.00     0.217 HD
ENDBRANCH  17  21
ENDBRANCH  12  15
ENDBRANCH   7  11
BRANCH   1  23
HETATM   23  C   UNL     1      43.565 -12.050   6.584  1.00  0.00    -0.033 A 
HETATM   24  C   UNL     1      43.757 -11.516   7.871  1.00  0.00     0.046 A 
HETATM   25  C   UNL     1      44.960 -10.904   8.243  1.00  0.00     0.068 A 
HETATM   26  C   UNL     1      45.989 -10.801   7.310  1.00  0.00     0.037 A 
HETATM   27  C   UNL     1      45.819 -11.316   6.026  1.00  0.00     0.003 A 
HETATM   28  C   UNL     1      44.623 -11.941   5.668  1.00  0.00     0.009 A 
BRANCH  25  29
HETATM   29  O   UNL     1      44.998 -10.458   9.534  1.00  0.00    -0.356 OA
HETATM   30  C   UNL     1      43.800 -10.587  10.290  1.00  0.00     0.210 C 
ENDBRANCH  25  29
ENDBRANCH   1  23
BRANCH   8  31
HETATM   31  C   UNL     1      41.664  -9.957   4.432  1.00  0.00     0.409 C 
HETATM   32  F   UNL     1      42.865 -10.117   3.847  1.00  0.00    -0.169 F 
HETATM   33  F   UNL     1      40.966  -9.068   3.689  1.00  0.00    -0.169 F 
HETATM   34  F   UNL     1      41.883  -9.355   5.630  1.00  0.00    -0.169 F 
ENDBRANCH   8  31
TORSDOF 6
ENDMDL
MODEL 7
REMARK VINA RESULT:      -8.4      0.967      1.263
REMARK  6 active torsions:
REMARK  status: ('A' for Active; 'I' for Inactive)
REMARK    1  A    between atoms: O_2  and  C_3 
REMARK    2  A    between atoms: C_5  and  C_6 
REMARK    3  A    between atoms: C_12  and  C_13 
REMARK       I    between atoms: C_13  and  N_14 
REMARK    4  A    between atoms: N_14  and  C_15 
REMARK    5  A    between atoms: C_17  and  O_18 
REMARK    6  A    between atoms: C_23  and  C_24 
ROOT
HETATM    1  C   UNL     1      43.342 -14.880   2.680  1.00  0.00     0.118 C 
HETATM    2  N   UNL     1      43.249 -13.878   3.743  1.00  0.00    -0.365 N 
HETATM    3  C   UNL     1      42.040 -13.404   4.152  1.00  0.00     0.138 A 
HETATM    4  N   UNL     1      40.889 -13.683   3.462  1.00  0.00    -0.240 N 
HETATM    5  N   UNL     1      39.793 -13.118   3.993  1.00  0.00    -0.181 NA
HETATM    6  C   UNL     1      40.253 -12.534   5.103  1.00  0.00     0.160 A 
HETATM    7  C   UNL     1      41.656 -12.647   5.245  1.00  0.00     0.096 A 
HETATM    8  C   UNL     1      40.812 -14.499   2.266  1.00  0.00     0.221 C 
HETATM    9  C   UNL     1      42.211 -14.701   1.655  1.00  0.00     0.066 C 
HETATM   10  H   UNL     1      43.999 -13.978   4.430  1.00  0.00     0.161 HD
ENDROOT
BRANCH   7  11
HETATM   11  C   UNL     1      42.480 -12.111   6.314  1.00  0.00     0.261 C 
HETATM   12  N   UNL     1      42.038 -10.884   6.770  1.00  0.00    -0.323 N 
HETATM   13  H   UNL     1      41.118 -10.608   6.443  1.00  0.00     0.169 HD
HETATM   14  O   UNL     1      43.438 -12.739   6.748  1.00  0.00    -0.267 OA
BRANCH  12  15
HETATM   15  C   UNL     1      42.681 -10.009   7.665  1.00  0.00     0.037 A 
HETATM   16  C   UNL     1      44.004  -9.585   7.516  1.00  0.00     0.066 A 
HETATM   17  C   UNL     1      44.544  -8.679   8.428  1.00  0.00     0.067 A 
HETATM   18  C   UNL     1      43.794  -8.194   9.492  1.00  0.00     0.036 A 
HETATM   19  C   UNL     1      42.476  -8.616   9.648  1.00  0.00     0.005 A 
HETATM   20  C   UNL     1      41.921  -9.515   8.734  1.00  0.00     0.029 A 
BRANCH  17  21
HETATM   21  O   UNL     1      45.827  -8.231   8.303  1.00  0.00    -0.361 OA
HETATM   22  H   UNL     1      46.016  -8.098   7.358  1.00  0.00     0.217 HD
ENDBRANCH  17  21
ENDBRANCH  12  15
ENDBRANCH   7  11
BRANCH   1  23
HETATM   23  C   UNL     1      43.533 -16.286   3.217  1.00  0.00    -0.033 A 
HETATM   24  C   UNL     1      43.555 -16.484   4.609  1.00  0.00     0.046 A 
HETATM   25  C   UNL     1      43.678 -17.761   5.170  1.00  0.00     0.068 A 
HETATM   26  C   UNL     1      43.802 -18.864   4.331  1.00  0.00     0.037 A 
HETATM   27  C   UNL     1      43.790 -18.692   2.947  1.00  0.00     0.003 A 
HETATM   28  C   UNL     1      43.649 -17.418   2.395  1.00  0.00     0.009 A 
BRANCH  25  29
HETATM   29  O   UNL     1      43.660 -17.788   6.537  1.00  0.00    -0.356 OA
HETATM   30  C   UNL     1      44.195 -16.652   7.205  1.00  0.00     0.210 C 
ENDBRANCH  25  29
ENDBRANCH   1  23
BRANCH   8  31
HETATM   31  C   UNL     1      40.078 -15.793   2.547  1.00  0.00     0.409 C 
HETATM   32  F   UNL     1      40.427 -16.803   1.730  1.00  0.00    -0.169 F 
HETATM   33  F   UNL     1      40.259 -16.218   3.818  1.00  0.00    -0.169 F 
HETATM   34  F   UNL     1      38.740 -15.608   2.401  1.00  0.00    -0.169 F 
ENDBRANCH   8  31
TORSDOF 6
ENDMDL
MODEL 8
REMARK VINA RESULT:      -8.3      3.678      7.600
REMARK  6 active torsions:
REMARK  status: ('A' for Active; 'I' for Inactive)
REMARK    1  A    between atoms: O_2  and  C_3 
REMARK    2  A    between atoms: C_5  and  C_6 
REMARK    3  A    between atoms: C_12  and  C_13 
REMARK       I    between atoms: C_13  and  N_14 
REMARK    4  A    between atoms: N_14  and  C_15 
REMARK    5  A    between atoms: C_17  and  O_18 
REMARK    6  A    between atoms: C_23  and  C_24 
ROOT
HETATM    1  C   UNL     1      38.714 -11.835   3.100  1.00  0.00     0.118 C 
HETATM    2  N   UNL     1      39.240 -13.202   3.081  1.00  0.00    -0.365 N 
HETATM    3  C   UNL     1      39.704 -13.756   1.928  1.00  0.00     0.138 A 
HETATM    4  N   UNL     1      39.514 -13.149   0.713  1.00  0.00    -0.240 N 
HETATM    5  N   UNL     1      40.016 -13.844  -0.320  1.00  0.00    -0.181 NA
HETATM    6  C   UNL     1      40.618 -14.881   0.269  1.00  0.00     0.160 A 
HETATM    7  C   UNL     1      40.432 -14.904   1.671  1.00  0.00     0.096 A 
HETATM    8  C   UNL     1      38.838 -11.883   0.512  1.00  0.00     0.221 C 
HETATM    9  C   UNL     1      38.036 -11.489   1.766  1.00  0.00     0.066 C 
HETATM   10  H   UNL     1      39.689 -13.451   3.965  1.00  0.00     0.161 HD
ENDROOT
BRANCH   7  11
HETATM   11  C   UNL     1      40.927 -15.895   2.610  1.00  0.00     0.261 C 
HETATM   12  N   UNL     1      42.172 -16.386   2.268  1.00  0.00    -0.323 N 
HETATM   13  H   UNL     1      42.651 -15.873   1.535  1.00  0.00     0.169 HD
HETATM   14  O   UNL     1      40.277 -16.205   3.601  1.00  0.00    -0.267 OA
BRANCH  12  15
HETATM   15  C   UNL     1      42.868 -17.463   2.847  1.00  0.00     0.037 A 
HETATM   16  C   UNL     1      42.938 -18.736   2.275  1.00  0.00     0.066 A 
HETATM   17  C   UNL     1      43.690 -19.731   2.897  1.00  0.00     0.067 A 
HETATM   18  C   UNL     1      44.368 -19.485   4.084  1.00  0.00     0.036 A 
HETATM   19  C   UNL     1      44.299 -18.220   4.662  1.00  0.00     0.005 A 
HETATM   20  C   UNL     1      43.557 -17.212   4.042  1.00  0.00     0.029 A 
BRANCH  17  21
HETATM   21  O   UNL     1      43.794 -20.981   2.357  1.00  0.00    -0.361 OA
HETATM   22  H   UNL     1      44.047 -20.891   1.422  1.00  0.00     0.217 HD
ENDBRANCH  17  21
ENDBRANCH  12  15
ENDBRANCH   7  11
BRANCH   1  23
HETATM   23  C   UNL     1      39.727 -10.826   3.609  1.00  0.00    -0.033 A 
HETATM   24  C   UNL     1      41.058 -11.238   3.802  1.00  0.00     0.046 A 
HETATM   25  C   UNL     1      42.051 -10.346   4.222  1.00  0.00     0.068 A 
HETATM   26  C   UNL     1      41.714  -9.020   4.476  1.00  0.00     0.037 A 
HETATM   27  C   UNL     1      40.399  -8.590   4.299  1.00  0.00     0.003 A 
HETATM   28  C   UNL     1      39.417  -9.481   3.863  1.00  0.00     0.009 A 
BRANCH  25  29
HETATM   29  O   UNL     1      43.298 -10.895   4.340  1.00  0.00    -0.356 OA
HETATM   30  C   UNL     1      43.650 -11.892   3.388  1.00  0.00     0.210 C 
ENDBRANCH  25  29
ENDBRANCH   1  23
BRANCH   8  31
HETATM   31  C   UNL     1      39.815 -10.820   0.057  1.00  0.00     0.409 C 
HETATM   32  F   UNL     1      39.474  -9.573   0.430  1.00  0.00    -0.169 F 
HETATM   33  F   UNL     1      41.069 -11.050   0.510  1.00  0.00    -0.169 F 
HETATM   34  F   UNL     1      39.902 -10.819  -1.299  1.00  0.00    -0.169 F 
ENDBRANCH   8  31
TORSDOF 6
ENDMDL
MODEL 9
REMARK VINA RESULT:      -8.2      4.312      9.043
REMARK  6 active torsions:
REMARK  status: ('A' for Active; 'I' for Inactive)
REMARK    1  A    between atoms: O_2  and  C_3 
REMARK    2  A    between atoms: C_5  and  C_6 
REMARK    3  A    between atoms: C_12  and  C_13 
REMARK       I    between atoms: C_13  and  N_14 
REMARK    4  A    between atoms: N_14  and  C_15 
REMARK    5  A    between atoms: C_17  and  O_18 
REMARK    6  A    between atoms: C_23  and  C_24 
ROOT
HETATM    1  C   UNL     1      42.853  -8.034   8.186  1.00  0.00     0.118 C 
HETATM    2  N   UNL     1      42.935  -8.961   7.054  1.00  0.00    -0.365 N 
HETATM    3  C   UNL     1      43.779 -10.027   7.083  1.00  0.00     0.138 A 
HETATM    4  N   UNL     1      44.725 -10.167   8.066  1.00  0.00    -0.240 N 
HETATM    5  N   UNL     1      45.486 -11.265   7.929  1.00  0.00    -0.181 NA
HETATM    6  C   UNL     1      44.947 -11.884   6.874  1.00  0.00     0.160 A 
HETATM    7  C   UNL     1      43.897 -11.146   6.278  1.00  0.00     0.096 A 
HETATM    8  C   UNL     1      44.927  -9.243   9.165  1.00  0.00     0.221 C 
HETATM    9  C   UNL     1      44.213  -7.907   8.889  1.00  0.00     0.066 C 
HETATM   10  H   UNL     1      42.039  -9.052   6.570  1.00  0.00     0.161 HD
ENDROOT
BRANCH   7  11
HETATM   11  C   UNL     1      43.116 -11.512   5.110  1.00  0.00     0.261 C 
HETATM   12  N   UNL     1      42.875 -12.870   5.028  1.00  0.00    -0.323 N 
HETATM   13  H   UNL     1      43.104 -13.400   5.862  1.00  0.00     0.169 HD
HETATM   14  O   UNL     1      42.713 -10.660   4.328  1.00  0.00    -0.267 OA
BRANCH  12  15
HETATM   15  C   UNL     1      42.307 -13.586   3.958  1.00  0.00     0.037 A 
HETATM   16  C   UNL     1      40.941 -13.855   3.846  1.00  0.00     0.066 A 
HETATM   17  C   UNL     1      40.461 -14.533   2.726  1.00  0.00     0.067 A 
HETATM   18  C   UNL     1      41.318 -14.956   1.719  1.00  0.00     0.036 A 
HETATM   19  C   UNL     1      42.682 -14.695   1.827  1.00  0.00     0.005 A 
HETATM   20  C   UNL     1      43.173 -14.008   2.939  1.00  0.00     0.029 A 
BRANCH  17  21
HETATM   21  O   UNL     1      39.130 -14.796   2.576  1.00  0.00    -0.361 OA
HETATM   22  H   UNL     1      38.625 -14.054   2.952  1.00  0.00     0.217 HD
ENDBRANCH  17  21
ENDBRANCH  12  15
ENDBRANCH   7  11
BRANCH   1  23
HETATM   23  C   UNL     1      41.666  -8.316   9.087  1.00  0.00    -0.033 A 
HETATM   24  C   UNL     1      40.660  -9.189   8.633  1.00  0.00     0.046 A 
HETATM   25  C   UNL     1      39.564  -9.529   9.434  1.00  0.00     0.068 A 
HETATM   26  C   UNL     1      39.450  -8.975  10.705  1.00  0.00     0.037 A 
HETATM   27  C   UNL     1      40.431  -8.101  11.175  1.00  0.00     0.003 A 
HETATM   28  C   UNL     1      41.531  -7.780  10.377  1.00  0.00     0.009 A 
BRANCH  25  29
HETATM   29  O   UNL     1      38.688 -10.407   8.858  1.00  0.00    -0.356 OA
HETATM   30  C   UNL     1      38.925 -10.747   7.497  1.00  0.00     0.210 C 
ENDBRANCH  25  29
ENDBRANCH   1  23
BRANCH   8  31
HETATM   31  C   UNL     1      44.535  -9.881  10.481  1.00  0.00     0.409 C 
HETATM   32  F   UNL     1      44.261  -8.994  11.454  1.00  0.00    -0.169 F 
HETATM   33  F   UNL     1      43.459 -10.692  10.356  1.00  0.00    -0.169 F 
HETATM   34  F   UNL     1      45.546 -10.668  10.934  1.00  0.00    -0.169 F 
ENDBRANCH   8  31
TORSDOF 6
ENDMDL
MODEL 10
REMARK VINA RESULT:      -8.0      2.909      3.759
REMARK  6 active torsions:
REMARK  status: ('A' for Active; 'I' for Inactive)
REMARK    1  A    between atoms: O_2  and  C_3 
REMARK    2  A    between atoms: C_5  and  C_6 
REMARK    3  A    between atoms: C_12  and  C_13 
REMARK       I    between atoms: C_13  and  N_14 
REMARK    4  A    between atoms: N_14  and  C_15 
REMARK    5  A    between atoms: C_17  and  O_18 
REMARK    6  A    between atoms: C_23  and  C_24 
ROOT
HETATM    1  C   UNL     1      43.321 -14.650   3.828  1.00  0.00     0.118 C 
HETATM    2  N   UNL     1      42.695 -13.479   4.447  1.00  0.00    -0.365 N 
HETATM    3  C   UNL     1      41.425 -13.113   4.124  1.00  0.00     0.138 A 
HETATM    4  N   UNL     1      40.758 -13.687   3.072  1.00  0.00    -0.240 N 
HETATM    5  N   UNL     1      39.525 -13.192   2.881  1.00  0.00    -0.181 NA
HETATM    6  C   UNL     1      39.375 -12.338   3.897  1.00  0.00     0.160 A 
HETATM    7  C   UNL     1      40.539 -12.217   4.693  1.00  0.00     0.096 A 
HETATM    8  C   UNL     1      41.294 -14.728   2.216  1.00  0.00     0.221 C 
HETATM    9  C   UNL     1      42.819 -14.844   2.389  1.00  0.00     0.066 C 
HETATM   10  H   UNL     1      43.024 -13.331   5.404  1.00  0.00     0.161 HD
ENDROOT
BRANCH   7  11
HETATM   11  C   UNL     1      40.728 -11.365   5.854  1.00  0.00     0.261 C 
HETATM   12  N   UNL     1      39.555 -10.774   6.284  1.00  0.00    -0.323 N 
HETATM   13  H   UNL     1      38.707 -11.144   5.867  1.00  0.00     0.169 HD
HETATM   14  O   UNL     1      41.830 -11.242   6.374  1.00  0.00    -0.267 OA
BRANCH  12  15
HETATM   15  C   UNL     1      39.396  -9.772   7.259  1.00  0.00     0.037 A 
HETATM   16  C   UNL     1      39.358  -8.407   6.967  1.00  0.00     0.066 A 
HETATM   17  C   UNL     1      39.151  -7.487   7.994  1.00  0.00     0.067 A 
HETATM   18  C   UNL     1      38.989  -7.902   9.310  1.00  0.00     0.036 A 
HETATM   19  C   UNL     1      39.030  -9.261   9.608  1.00  0.00     0.005 A 
HETATM   20  C   UNL     1      39.227 -10.192   8.586  1.00  0.00     0.029 A 
BRANCH  17  21
HETATM   21  O   UNL     1      39.091  -6.147   7.741  1.00  0.00    -0.361 OA
HETATM   22  H   UNL     1      38.505  -6.004   6.978  1.00  0.00     0.217 HD
ENDBRANCH  17  21
ENDBRANCH  12  15
ENDBRANCH   7  11
BRANCH   1  23
HETATM   23  C   UNL     1      43.273 -15.877   4.718  1.00  0.00    -0.033 A 
HETATM   24  C   UNL     1      43.824 -17.082   4.245  1.00  0.00     0.046 A 
HETATM   25  C   UNL     1      43.857 -18.237   5.034  1.00  0.00     0.068 A 
HETATM   26  C   UNL     1      43.310 -18.204   6.314  1.00  0.00     0.037 A 
HETATM   27  C   UNL     1      42.751 -17.024   6.802  1.00  0.00     0.003 A 
HETATM   28  C   UNL     1      42.739 -15.870   6.016  1.00  0.00     0.009 A 
BRANCH  25  29
HETATM   29  O   UNL     1      44.447 -19.318   4.439  1.00  0.00    -0.356 OA
HETATM   30  C   UNL     1      44.297 -20.570   5.097  1.00  0.00     0.210 C 
ENDBRANCH  25  29
ENDBRANCH   1  23
BRANCH   8  31
HETATM   31  C   UNL     1      40.556 -16.032   2.434  1.00  0.00     0.409 C 
HETATM   32  F   UNL     1      39.445 -16.159   1.687  1.00  0.00    -0.169 F 
HETATM   33  F   UNL     1      41.337 -17.109   2.186  1.00  0.00    -0.169 F 
HETATM   34  F   UNL     1      40.176 -16.138   3.734  1.00  0.00    -0.169 F 
ENDBRANCH   8  31
TORSDOF 6
ENDMDL
