MODEL 1
REMARK VINA RESULT:      -7.5      0.000      0.000
REMARK  8 active torsions:
REMARK  status: ('A' for Active; 'I' for Inactive)
REMARK    1  A    between atoms: C_2  and  C_3 
REMARK    2  A    between atoms: C_3  and  N_4 
REMARK    3  A    between atoms: C_7  and  C_8 
REMARK       I    between atoms: C_8  and  N_9 
REMARK    4  A    between atoms: N_9  and  N_10 
REMARK       I    between atoms: N_10  and  C_11 
REMARK    5  A    between atoms: C_11  and  C_12 
REMARK    6  A    between atoms: C_15  and  O_16 
REMARK    7  A    between atoms: O_16  and  C_17 
REMARK    8  A    between atoms: C_23  and  C_24 
ROOT
HETATM    1  C   UNL     1      40.294 -14.033   0.407  1.00  0.00     0.273 C 
HETATM    2  N   UNL     1      41.599 -13.709   0.707  1.00  0.00    -0.263 N 
HETATM    3  O   UNL     1      39.838 -15.151   0.646  1.00  0.00    -0.266 OA
HETATM    4  H   UNL     1      42.045 -12.837   0.442  1.00  0.00     0.190 HD
ENDROOT
BRANCH   2   5
HETATM    5  N   UNL     1      42.398 -14.725   1.259  1.00  0.00    -0.263 N 
HETATM    6  C   UNL     1      42.642 -14.704   2.620  1.00  0.00     0.270 C 
HETATM    7  O   UNL     1      42.446 -13.729   3.336  1.00  0.00    -0.266 OA
HETATM    8  H   UNL     1      42.273 -15.628   0.798  1.00  0.00     0.190 HD
BRANCH   6   9
HETATM    9  C   UNL     1      43.123 -15.999   3.184  1.00  0.00     0.033 A 
HETATM   10  C   UNL     1      43.518 -16.111   4.523  1.00  0.00     0.020 A 
HETATM   11  C   UNL     1      44.065 -17.307   4.990  1.00  0.00     0.038 A 
HETATM   12  C   UNL     1      44.220 -18.401   4.136  1.00  0.00     0.068 A 
HETATM   13  C   UNL     1      43.766 -18.312   2.819  1.00  0.00     0.038 A 
HETATM   14  C   UNL     1      43.218 -17.113   2.343  1.00  0.00     0.020 A 
BRANCH  12  15
HETATM   15  O   UNL     1      44.820 -19.485   4.710  1.00  0.00    -0.352 OA
BRANCH  15  16
HETATM   16  C   UNL     1      44.021 -20.278   5.587  1.00  0.00     0.171 C 
HETATM   17  C   UNL     1      43.593 -21.522   4.826  1.00  0.00     0.034 C 
ENDBRANCH  15  16
ENDBRANCH  12  15
ENDBRANCH   6   9
ENDBRANCH   2   5
BRANCH   1  18
HETATM   18  C   UNL     1      39.543 -13.039  -0.320  1.00  0.00     0.077 A 
HETATM   19  C   UNL     1      39.234 -11.771   0.222  1.00  0.00     0.158 A 
HETATM   20  N   UNL     1      38.608 -10.976  -0.638  1.00  0.00    -0.183 NA
HETATM   21  N   UNL     1      38.532 -11.713  -1.763  1.00  0.00    -0.268 N 
HETATM   22  C   UNL     1      39.097 -12.972  -1.634  1.00  0.00     0.052 A 
BRANCH  21  23
HETATM   23  C   UNL     1      38.002 -11.089  -2.977  1.00  0.00     0.106 C 
HETATM   24  C   UNL     1      38.638  -9.709  -3.165  1.00  0.00     0.034 C 
BRANCH  23  25
HETATM   25  C   UNL     1      36.463 -10.971  -3.008  1.00  0.00     0.022 C 
HETATM   26  C   UNL     1      35.964  -9.558  -2.735  1.00  0.00     0.007 C 
ENDBRANCH  23  25
ENDBRANCH  21  23
BRANCH  22  27
HETATM   27  C   UNL     1      39.260 -13.951  -2.799  1.00  0.00     0.038 A 
HETATM   28  C   UNL     1      38.771 -15.376  -2.660  1.00  0.00     0.011 A 
HETATM   29  C   UNL     1      38.084 -14.447  -3.604  1.00  0.00     0.011 A 
ENDBRANCH  22  27
ENDBRANCH   1  18
TORSDOF 8
ENDMDL
MODEL 2
REMARK VINA RESULT:      -7.3      6.705      9.386
REMARK  8 active torsions:
REMARK  status: ('A' for Active; 'I' for Inactive)
REMARK    1  A    between atoms: C_2  and  C_3 
REMARK    2  A    between atoms: C_3  and  N_4 
REMARK    3  A    between atoms: C_7  and  C_8 
REMARK       I    between atoms: C_8  and  N_9 
REMARK    4  A    between atoms: N_9  and  N_10 
REMARK       I    between atoms: N_10  and  C_11 
REMARK    5  A    between atoms: C_11  and  C_12 
REMARK    6  A    between atoms: C_15  and  O_16 
REMARK    7  A    between atoms: O_16  and  C_17 
REMARK    8  A    between atoms: C_23  and  C_24 
ROOT
HETATM    1  C   UNL     1      42.291 -10.564   6.465  1.00  0.00     0.273 C 
HETATM    2  N   UNL     1      42.076 -11.896   6.746  1.00  0.00    -0.263 N 
HETATM    3  O   UNL     1      42.600 -10.188   5.334  1.00  0.00    -0.266 OA
HETATM    4  H   UNL     1      41.915 -12.263   7.678  1.00  0.00     0.190 HD
ENDROOT
BRANCH   2   5
HETATM    5  N   UNL     1      42.264 -12.808   5.694  1.00  0.00    -0.263 N 
HETATM    6  C   UNL     1      43.230 -13.788   5.837  1.00  0.00     0.270 C 
HETATM    7  O   UNL     1      44.113 -13.760   6.685  1.00  0.00    -0.266 OA
HETATM    8  H   UNL     1      41.397 -13.043   5.207  1.00  0.00     0.190 HD
BRANCH   6   9
HETATM    9  C   UNL     1      43.088 -14.941   4.899  1.00  0.00     0.033 A 
HETATM   10  C   UNL     1      43.267 -16.260   5.332  1.00  0.00     0.020 A 
HETATM   11  C   UNL     1      43.236 -17.306   4.408  1.00  0.00     0.038 A 
HETATM   12  C   UNL     1      43.023 -17.052   3.051  1.00  0.00     0.068 A 
HETATM   13  C   UNL     1      42.779 -15.744   2.629  1.00  0.00     0.038 A 
HETATM   14  C   UNL     1      42.811 -14.690   3.551  1.00  0.00     0.020 A 
BRANCH  12  15
HETATM   15  O   UNL     1      43.074 -18.160   2.254  1.00  0.00    -0.352 OA
BRANCH  15  16
HETATM   16  C   UNL     1      43.858 -19.257   2.719  1.00  0.00     0.171 C 
HETATM   17  C   UNL     1      43.538 -20.459   1.846  1.00  0.00     0.034 C 
ENDBRANCH  15  16
ENDBRANCH  12  15
ENDBRANCH   6   9
ENDBRANCH   2   5
BRANCH   1  18
HETATM   18  C   UNL     1      42.269  -9.665   7.593  1.00  0.00     0.077 A 
HETATM   19  C   UNL     1      41.072  -9.289   8.243  1.00  0.00     0.158 A 
HETATM   20  N   UNL     1      41.277  -8.520   9.306  1.00  0.00    -0.183 NA
HETATM   21  N   UNL     1      42.618  -8.414   9.375  1.00  0.00    -0.268 N 
HETATM   22  C   UNL     1      43.275  -9.102   8.367  1.00  0.00     0.052 A 
BRANCH  21  23
HETATM   23  C   UNL     1      43.210  -7.726  10.524  1.00  0.00     0.106 C 
HETATM   24  C   UNL     1      43.229  -8.665  11.733  1.00  0.00     0.034 C 
BRANCH  23  25
HETATM   25  C   UNL     1      42.512  -6.399  10.896  1.00  0.00     0.022 C 
HETATM   26  C   UNL     1      41.957  -6.391  12.313  1.00  0.00     0.007 C 
ENDBRANCH  23  25
ENDBRANCH  21  23
BRANCH  22  27
HETATM   27  C   UNL     1      44.797  -9.252   8.297  1.00  0.00     0.038 A 
HETATM   28  C   UNL     1      45.503 -10.221   9.220  1.00  0.00     0.011 A 
HETATM   29  C   UNL     1      45.460 -10.493   7.754  1.00  0.00     0.011 A 
ENDBRANCH  22  27
ENDBRANCH   1  18
TORSDOF 8
ENDMDL
MODEL 3
REMARK VINA RESULT:      -7.1      6.827      9.717
REMARK  8 active torsions:
REMARK  status: ('A' for Active; 'I' for Inactive)
REMARK    1  A    between atoms: C_2  and  C_3 
REMARK    2  A    between atoms: C_3  and  N_4 
REMARK    3  A    between atoms: C_7  and  C_8 
REMARK       I    between atoms: C_8  and  N_9 
REMARK    4  A    between atoms: N_9  and  N_10 
REMARK       I    between atoms: N_10  and  C_11 
REMARK    5  A    between atoms: C_11  and  C_12 
REMARK    6  A    between atoms: C_15  and  O_16 
REMARK    7  A    between atoms: O_16  and  C_17 
REMARK    8  A    between atoms: C_23  and  C_24 
ROOT
HETATM    1  C   UNL     1      42.587 -12.248   5.968  1.00  0.00     0.273 C 
HETATM    2  N   UNL     1      43.680 -12.338   6.802  1.00  0.00    -0.263 N 
HETATM    3  O   UNL     1      41.617 -11.546   6.253  1.00  0.00    -0.266 OA
HETATM    4  H   UNL     1      44.457 -12.973   6.657  1.00  0.00     0.190 HD
ENDROOT
BRANCH   2   5
HETATM    5  N   UNL     1      43.620 -11.624   8.011  1.00  0.00    -0.263 N 
HETATM    6  C   UNL     1      44.506 -10.581   8.205  1.00  0.00     0.270 C 
HETATM    7  O   UNL     1      45.511 -10.400   7.527  1.00  0.00    -0.266 OA
HETATM    8  H   UNL     1      42.670 -11.534   8.376  1.00  0.00     0.190 HD
BRANCH   6   9
HETATM    9  C   UNL     1      44.117  -9.630   9.288  1.00  0.00     0.033 A 
HETATM   10  C   UNL     1      44.245  -9.971  10.640  1.00  0.00     0.020 A 
HETATM   11  C   UNL     1      43.771  -9.103  11.625  1.00  0.00     0.038 A 
HETATM   12  C   UNL     1      43.171  -7.891  11.278  1.00  0.00     0.068 A 
HETATM   13  C   UNL     1      43.103  -7.520   9.933  1.00  0.00     0.038 A 
HETATM   14  C   UNL     1      43.575  -8.388   8.940  1.00  0.00     0.020 A 
BRANCH  12  15
HETATM   15  O   UNL     1      42.703  -7.168  12.337  1.00  0.00    -0.352 OA
BRANCH  15  16
HETATM   16  C   UNL     1      42.365  -7.894  13.518  1.00  0.00     0.171 C 
HETATM   17  C   UNL     1      42.868  -7.098  14.711  1.00  0.00     0.034 C 
ENDBRANCH  15  16
ENDBRANCH  12  15
ENDBRANCH   6   9
ENDBRANCH   2   5
BRANCH   1  18
HETATM   18  C   UNL     1      42.590 -13.123   4.821  1.00  0.00     0.077 A 
HETATM   19  C   UNL     1      43.206 -12.774   3.598  1.00  0.00     0.158 A 
HETATM   20  N   UNL     1      43.166 -13.749   2.698  1.00  0.00    -0.183 NA
HETATM   21  N   UNL     1      42.548 -14.758   3.342  1.00  0.00    -0.268 N 
HETATM   22  C   UNL     1      42.186 -14.440   4.641  1.00  0.00     0.052 A 
BRANCH  21  23
HETATM   23  C   UNL     1      42.444 -16.058   2.676  1.00  0.00     0.106 C 
HETATM   24  C   UNL     1      43.350 -16.077   1.441  1.00  0.00     0.034 C 
BRANCH  23  25
HETATM   25  C   UNL     1      41.004 -16.454   2.281  1.00  0.00     0.022 C 
HETATM   26  C   UNL     1      40.288 -15.381   1.473  1.00  0.00     0.007 C 
ENDBRANCH  23  25
ENDBRANCH  21  23
BRANCH  22  27
HETATM   27  C   UNL     1      41.592 -15.450   5.627  1.00  0.00     0.038 A 
HETATM   28  C   UNL     1      42.441 -16.594   6.137  1.00  0.00     0.011 A 
HETATM   29  C   UNL     1      42.021 -15.512   7.072  1.00  0.00     0.011 A 
ENDBRANCH  22  27
ENDBRANCH   1  18
TORSDOF 8
ENDMDL
MODEL 4
REMARK VINA RESULT:      -6.9      7.169      9.921
REMARK  8 active torsions:
REMARK  status: ('A' for Active; 'I' for Inactive)
REMARK    1  A    between atoms: C_2  and  C_3 
REMARK    2  A    between atoms: C_3  and  N_4 
REMARK    3  A    between atoms: C_7  and  C_8 
REMARK       I    between atoms: C_8  and  N_9 
REMARK    4  A    between atoms: N_9  and  N_10 
REMARK       I    between atoms: N_10  and  C_11 
REMARK    5  A    between atoms: C_11  and  C_12 
REMARK    6  A    between atoms: C_15  and  O_16 
REMARK    7  A    between atoms: O_16  and  C_17 
REMARK    8  A    between atoms: C_23  and  C_24 
ROOT
HETATM    1  C   UNL     1      43.601 -12.477   6.274  1.00  0.00     0.273 C 
HETATM    2  N   UNL     1      42.764 -11.512   6.791  1.00  0.00    -0.263 N 
HETATM    3  O   UNL     1      44.696 -12.717   6.781  1.00  0.00    -0.266 OA
HETATM    4  H   UNL     1      41.899 -11.213   6.354  1.00  0.00     0.190 HD
ENDROOT
BRANCH   2   5
HETATM    5  N   UNL     1      43.235 -10.787   7.899  1.00  0.00    -0.263 N 
HETATM    6  C   UNL     1      42.589  -9.614   8.242  1.00  0.00     0.270 C 
HETATM    7  O   UNL     1      41.815  -9.017   7.502  1.00  0.00    -0.266 OA
HETATM    8  H   UNL     1      43.592 -11.386   8.647  1.00  0.00     0.190 HD
BRANCH   6   9
HETATM    9  C   UNL     1      42.861  -9.137   9.630  1.00  0.00     0.033 A 
HETATM   10  C   UNL     1      43.266 -10.020  10.638  1.00  0.00     0.020 A 
HETATM   11  C   UNL     1      43.405  -9.562  11.950  1.00  0.00     0.038 A 
HETATM   12  C   UNL     1      43.148  -8.227  12.269  1.00  0.00     0.068 A 
HETATM   13  C   UNL     1      42.809  -7.332  11.253  1.00  0.00     0.038 A 
HETATM   14  C   UNL     1      42.665  -7.786   9.935  1.00  0.00     0.020 A 
BRANCH  12  15
HETATM   15  O   UNL     1      43.268  -7.930  13.596  1.00  0.00    -0.352 OA
BRANCH  15  16
HETATM   16  C   UNL     1      42.580  -6.771  14.066  1.00  0.00     0.171 C 
HETATM   17  C   UNL     1      41.228  -7.219  14.595  1.00  0.00     0.034 C 
ENDBRANCH  15  16
ENDBRANCH  12  15
ENDBRANCH   6   9
ENDBRANCH   2   5
BRANCH   1  18
HETATM   18  C   UNL     1      43.180 -13.084   5.035  1.00  0.00     0.077 A 
HETATM   19  C   UNL     1      43.252 -12.413   3.794  1.00  0.00     0.158 A 
HETATM   20  N   UNL     1      42.893 -13.174   2.768  1.00  0.00    -0.183 NA
HETATM   21  N   UNL     1      42.611 -14.364   3.332  1.00  0.00    -0.268 N 
HETATM   22  C   UNL     1      42.781 -14.374   4.707  1.00  0.00     0.052 A 
BRANCH  21  23
HETATM   23  C   UNL     1      42.295 -15.498   2.460  1.00  0.00     0.106 C 
HETATM   24  C   UNL     1      43.503 -15.819   1.575  1.00  0.00     0.034 C 
BRANCH  23  25
HETATM   25  C   UNL     1      41.039 -15.294   1.586  1.00  0.00     0.022 C 
HETATM   26  C   UNL     1      39.743 -15.635   2.309  1.00  0.00     0.007 C 
ENDBRANCH  23  25
ENDBRANCH  21  23
BRANCH  22  27
HETATM   27  C   UNL     1      42.656 -15.634   5.568  1.00  0.00     0.038 A 
HETATM   28  C   UNL     1      41.820 -15.606   6.828  1.00  0.00     0.011 A 
HETATM   29  C   UNL     1      41.372 -16.420   5.662  1.00  0.00     0.011 A 
ENDBRANCH  22  27
ENDBRANCH   1  18
TORSDOF 8
ENDMDL
MODEL 5
REMARK VINA RESULT:      -6.8      5.905     10.221
REMARK  8 active torsions:
REMARK  status: ('A' for Active; 'I' for Inactive)
REMARK    1  A    between atoms: C_2  and  C_3 
REMARK    2  A    between atoms: C_3  and  N_4 
REMARK    3  A    between atoms: C_7  and  C_8 
REMARK       I    between atoms: C_8  and  N_9 
REMARK    4  A    between atoms: N_9  and  N_10 
REMARK       I    between atoms: N_10  and  C_11 
REMARK    5  A    between atoms: C_11  and  C_12 
REMARK    6  A    between atoms: C_15  and  O_16 
REMARK    7  A    between atoms: O_16  and  C_17 
REMARK    8  A    between atoms: C_23  and  C_24 
ROOT
HETATM    1  C   UNL     1      42.527 -13.544   5.276  1.00  0.00     0.273 C 
HETATM    2  N   UNL     1      43.545 -13.170   6.127  1.00  0.00    -0.263 N 
HETATM    3  O   UNL     1      41.462 -12.928   5.238  1.00  0.00    -0.266 OA
HETATM    4  H   UNL     1      44.398 -13.701   6.262  1.00  0.00     0.190 HD
ENDROOT
BRANCH   2   5
HETATM    5  N   UNL     1      43.296 -12.081   6.979  1.00  0.00    -0.263 N 
HETATM    6  C   UNL     1      44.273 -11.112   7.112  1.00  0.00     0.270 C 
HETATM    7  O   UNL     1      45.438 -11.262   6.761  1.00  0.00    -0.266 OA
HETATM    8  H   UNL     1      42.315 -11.791   6.983  1.00  0.00     0.190 HD
BRANCH   6   9
HETATM    9  C   UNL     1      43.791  -9.817   7.675  1.00  0.00     0.033 A 
HETATM   10  C   UNL     1      42.520  -9.315   7.369  1.00  0.00     0.020 A 
HETATM   11  C   UNL     1      42.143  -8.050   7.823  1.00  0.00     0.038 A 
HETATM   12  C   UNL     1      43.020  -7.277   8.586  1.00  0.00     0.068 A 
HETATM   13  C   UNL     1      44.262  -7.803   8.947  1.00  0.00     0.038 A 
HETATM   14  C   UNL     1      44.648  -9.070   8.492  1.00  0.00     0.020 A 
BRANCH  12  15
HETATM   15  O   UNL     1      42.544  -6.039   8.914  1.00  0.00    -0.352 OA
BRANCH  15  16
HETATM   16  C   UNL     1      41.224  -5.717   8.477  1.00  0.00     0.171 C 
HETATM   17  C   UNL     1      40.870  -4.352   9.043  1.00  0.00     0.034 C 
ENDBRANCH  15  16
ENDBRANCH  12  15
ENDBRANCH   6   9
ENDBRANCH   2   5
BRANCH   1  18
HETATM   18  C   UNL     1      42.732 -14.768   4.540  1.00  0.00     0.077 A 
HETATM   19  C   UNL     1      43.184 -14.785   3.202  1.00  0.00     0.158 A 
HETATM   20  N   UNL     1      43.384 -16.012   2.736  1.00  0.00    -0.183 NA
HETATM   21  N   UNL     1      43.092 -16.807   3.783  1.00  0.00    -0.268 N 
HETATM   22  C   UNL     1      42.703 -16.106   4.913  1.00  0.00     0.052 A 
BRANCH  21  23
HETATM   23  C   UNL     1      43.329 -18.247   3.660  1.00  0.00     0.106 C 
HETATM   24  C   UNL     1      44.720 -18.588   4.203  1.00  0.00     0.034 C 
BRANCH  23  25
HETATM   25  C   UNL     1      43.173 -18.794   2.224  1.00  0.00     0.022 C 
HETATM   26  C   UNL     1      43.434 -20.290   2.120  1.00  0.00     0.007 C 
ENDBRANCH  23  25
ENDBRANCH  21  23
BRANCH  22  27
HETATM   27  C   UNL     1      42.446 -16.763   6.272  1.00  0.00     0.038 A 
HETATM   28  C   UNL     1      43.573 -16.888   7.273  1.00  0.00     0.011 A 
HETATM   29  C   UNL     1      42.430 -15.973   7.557  1.00  0.00     0.011 A 
ENDBRANCH  22  27
ENDBRANCH   1  18
TORSDOF 8
ENDMDL
MODEL 6
REMARK VINA RESULT:      -6.6      2.709      9.800
REMARK  8 active torsions:
REMARK  status: ('A' for Active; 'I' for Inactive)
REMARK    1  A    between atoms: C_2  and  C_3 
REMARK    2  A    between atoms: C_3  and  N_4 
REMARK    3  A    between atoms: C_7  and  C_8 
REMARK       I    between atoms: C_8  and  N_9 
REMARK    4  A    between atoms: N_9  and  N_10 
REMARK       I    between atoms: N_10  and  C_11 
REMARK    5  A    between atoms: C_11  and  C_12 
REMARK    6  A    between atoms: C_15  and  O_16 
REMARK    7  A    between atoms: O_16  and  C_17 
REMARK    8  A    between atoms: C_23  and  C_24 
ROOT
HETATM    1  C   UNL     1      40.153 -15.079   3.137  1.00  0.00     0.273 C 
HETATM    2  N   UNL     1      39.653 -13.830   3.435  1.00  0.00    -0.263 N 
HETATM    3  O   UNL     1      39.826 -15.674   2.110  1.00  0.00    -0.266 OA
HETATM    4  H   UNL     1      39.818 -13.345   4.311  1.00  0.00     0.190 HD
ENDROOT
BRANCH   2   5
HETATM    5  N   UNL     1      38.722 -13.284   2.535  1.00  0.00    -0.263 N 
HETATM    6  C   UNL     1      38.849 -11.953   2.184  1.00  0.00     0.270 C 
HETATM    7  O   UNL     1      39.539 -11.145   2.796  1.00  0.00    -0.266 OA
HETATM    8  H   UNL     1      38.413 -13.951   1.825  1.00  0.00     0.190 HD
BRANCH   6   9
HETATM    9  C   UNL     1      38.115 -11.565   0.943  1.00  0.00     0.033 A 
HETATM   10  C   UNL     1      38.440 -12.120  -0.301  1.00  0.00     0.020 A 
HETATM   11  C   UNL     1      37.808 -11.655  -1.456  1.00  0.00     0.038 A 
HETATM   12  C   UNL     1      36.850 -10.642  -1.386  1.00  0.00     0.068 A 
HETATM   13  C   UNL     1      36.479 -10.135  -0.139  1.00  0.00     0.038 A 
HETATM   14  C   UNL     1      37.110 -10.595   1.024  1.00  0.00     0.020 A 
BRANCH  12  15
HETATM   15  O   UNL     1      36.356 -10.247  -2.596  1.00  0.00    -0.352 OA
BRANCH  15  16
HETATM   16  C   UNL     1      36.783  -8.976  -3.086  1.00  0.00     0.171 C 
HETATM   17  C   UNL     1      37.782  -9.222  -4.204  1.00  0.00     0.034 C 
ENDBRANCH  15  16
ENDBRANCH  12  15
ENDBRANCH   6   9
ENDBRANCH   2   5
BRANCH   1  18
HETATM   18  C   UNL     1      40.965 -15.698   4.155  1.00  0.00     0.077 A 
HETATM   19  C   UNL     1      40.430 -16.171   5.374  1.00  0.00     0.158 A 
HETATM   20  N   UNL     1      41.330 -16.778   6.138  1.00  0.00    -0.183 NA
HETATM   21  N   UNL     1      42.459 -16.734   5.405  1.00  0.00    -0.268 N 
HETATM   22  C   UNL     1      42.295 -16.100   4.183  1.00  0.00     0.052 A 
BRANCH  21  23
HETATM   23  C   UNL     1      43.645 -17.436   5.898  1.00  0.00     0.106 C 
HETATM   24  C   UNL     1      44.722 -16.417   6.284  1.00  0.00     0.034 C 
BRANCH  23  25
HETATM   25  C   UNL     1      44.226 -18.469   4.908  1.00  0.00     0.022 C 
HETATM   26  C   UNL     1      43.983 -19.910   5.335  1.00  0.00     0.007 C 
ENDBRANCH  23  25
ENDBRANCH  21  23
BRANCH  22  27
HETATM   27  C   UNL     1      43.385 -16.034   3.110  1.00  0.00     0.038 A 
HETATM   28  C   UNL     1      43.178 -16.727   1.781  1.00  0.00     0.011 A 
HETATM   29  C   UNL     1      43.217 -15.238   1.840  1.00  0.00     0.011 A 
ENDBRANCH  22  27
ENDBRANCH   1  18
TORSDOF 8
ENDMDL
MODEL 7
REMARK VINA RESULT:      -6.6      8.584     10.956
REMARK  8 active torsions:
REMARK  status: ('A' for Active; 'I' for Inactive)
REMARK    1  A    between atoms: C_2  and  C_3 
REMARK    2  A    between atoms: C_3  and  N_4 
REMARK    3  A    between atoms: C_7  and  C_8 
REMARK       I    between atoms: C_8  and  N_9 
REMARK    4  A    between atoms: N_9  and  N_10 
REMARK       I    between atoms: N_10  and  C_11 
REMARK    5  A    between atoms: C_11  and  C_12 
REMARK    6  A    between atoms: C_15  and  O_16 
REMARK    7  A    between atoms: O_16  and  C_17 
REMARK    8  A    between atoms: C_23  and  C_24 
ROOT
HETATM    1  C   UNL     1      41.773  -9.375   8.626  1.00  0.00     0.273 C 
HETATM    2  N   UNL     1      42.838 -10.227   8.425  1.00  0.00    -0.263 N 
HETATM    3  O   UNL     1      40.776  -9.413   7.905  1.00  0.00    -0.266 OA
HETATM    4  H   UNL     1      43.716 -10.169   8.930  1.00  0.00     0.190 HD
ENDROOT
BRANCH   2   5
HETATM    5  N   UNL     1      42.751 -11.111   7.337  1.00  0.00    -0.263 N 
HETATM    6  C   UNL     1      43.802 -11.980   7.109  1.00  0.00     0.270 C 
HETATM    7  O   UNL     1      44.913 -11.858   7.612  1.00  0.00    -0.266 OA
HETATM    8  H   UNL     1      41.799 -11.437   7.160  1.00  0.00     0.190 HD
BRANCH   6   9
HETATM    9  C   UNL     1      43.470 -13.139   6.229  1.00  0.00     0.033 A 
HETATM   10  C   UNL     1      43.683 -14.458   6.648  1.00  0.00     0.020 A 
HETATM   11  C   UNL     1      43.465 -15.514   5.761  1.00  0.00     0.038 A 
HETATM   12  C   UNL     1      43.031 -15.270   4.456  1.00  0.00     0.068 A 
HETATM   13  C   UNL     1      42.755 -13.960   4.059  1.00  0.00     0.038 A 
HETATM   14  C   UNL     1      42.974 -12.896   4.944  1.00  0.00     0.020 A 
BRANCH  12  15
HETATM   15  O   UNL     1      42.914 -16.388   3.681  1.00  0.00    -0.352 OA
BRANCH  15  16
HETATM   16  C   UNL     1      43.591 -17.561   4.130  1.00  0.00     0.171 C 
HETATM   17  C   UNL     1      43.804 -18.463   2.925  1.00  0.00     0.034 C 
ENDBRANCH  15  16
ENDBRANCH  12  15
ENDBRANCH   6   9
ENDBRANCH   2   5
BRANCH   1  18
HETATM   18  C   UNL     1      41.954  -8.358   9.632  1.00  0.00     0.077 A 
HETATM   19  C   UNL     1      42.940  -7.352   9.530  1.00  0.00     0.158 A 
HETATM   20  N   UNL     1      42.887  -6.468  10.519  1.00  0.00    -0.183 NA
HETATM   21  N   UNL     1      41.840  -6.875  11.261  1.00  0.00    -0.268 N 
HETATM   22  C   UNL     1      41.224  -8.012  10.763  1.00  0.00     0.052 A 
BRANCH  21  23
HETATM   23  C   UNL     1      41.408  -6.042  12.385  1.00  0.00     0.106 C 
HETATM   24  C   UNL     1      41.058  -4.639  11.880  1.00  0.00     0.034 C 
BRANCH  23  25
HETATM   25  C   UNL     1      42.435  -5.949  13.535  1.00  0.00     0.022 C 
HETATM   26  C   UNL     1      43.003  -7.301  13.942  1.00  0.00     0.007 C 
ENDBRANCH  23  25
ENDBRANCH  21  23
BRANCH  22  27
HETATM   27  C   UNL     1      39.934  -8.600  11.342  1.00  0.00     0.038 A 
HETATM   28  C   UNL     1      39.864 -10.072  11.684  1.00  0.00     0.011 A 
HETATM   29  C   UNL     1      39.831  -9.057  12.776  1.00  0.00     0.011 A 
ENDBRANCH  22  27
ENDBRANCH   1  18
TORSDOF 8
ENDMDL
MODEL 8
REMARK VINA RESULT:      -6.6      1.698      2.938
REMARK  8 active torsions:
REMARK  status: ('A' for Active; 'I' for Inactive)
REMARK    1  A    between atoms: C_2  and  C_3 
REMARK    2  A    between atoms: C_3  and  N_4 
REMARK    3  A    between atoms: C_7  and  C_8 
REMARK       I    between atoms: C_8  and  N_9 
REMARK    4  A    between atoms: N_9  and  N_10 
REMARK       I    between atoms: N_10  and  C_11 
REMARK    5  A    between atoms: C_11  and  C_12 
REMARK    6  A    between atoms: C_15  and  O_16 
REMARK    7  A    between atoms: O_16  and  C_17 
REMARK    8  A    between atoms: C_23  and  C_24 
ROOT
HETATM    1  C   UNL     1      40.924 -12.317  -0.014  1.00  0.00     0.273 C 
HETATM    2  N   UNL     1      41.230 -13.652  -0.163  1.00  0.00    -0.263 N 
HETATM    3  O   UNL     1      41.311 -11.674   0.962  1.00  0.00    -0.266 OA
HETATM    4  H   UNL     1      40.856 -14.244  -0.896  1.00  0.00     0.190 HD
ENDROOT
BRANCH   2   5
HETATM    5  N   UNL     1      41.968 -14.256   0.869  1.00  0.00    -0.263 N 
HETATM    6  C   UNL     1      41.335 -15.183   1.676  1.00  0.00     0.270 C 
HETATM    7  O   UNL     1      40.119 -15.321   1.737  1.00  0.00    -0.266 OA
HETATM    8  H   UNL     1      42.949 -14.408   0.624  1.00  0.00     0.190 HD
BRANCH   6   9
HETATM    9  C   UNL     1      42.258 -16.067   2.448  1.00  0.00     0.033 A 
HETATM   10  C   UNL     1      42.633 -17.328   1.969  1.00  0.00     0.020 A 
HETATM   11  C   UNL     1      43.407 -18.173   2.765  1.00  0.00     0.038 A 
HETATM   12  C   UNL     1      43.818 -17.774   4.038  1.00  0.00     0.068 A 
HETATM   13  C   UNL     1      43.500 -16.492   4.490  1.00  0.00     0.038 A 
HETATM   14  C   UNL     1      42.721 -15.639   3.697  1.00  0.00     0.020 A 
BRANCH  12  15
HETATM   15  O   UNL     1      44.521 -18.720   4.728  1.00  0.00    -0.352 OA
BRANCH  15  16
HETATM   16  C   UNL     1      43.790 -19.526   5.651  1.00  0.00     0.171 C 
HETATM   17  C   UNL     1      43.969 -20.978   5.241  1.00  0.00     0.034 C 
ENDBRANCH  15  16
ENDBRANCH  12  15
ENDBRANCH   6   9
ENDBRANCH   2   5
BRANCH   1  18
HETATM   18  C   UNL     1      40.019 -11.760  -0.989  1.00  0.00     0.077 A 
HETATM   19  C   UNL     1      38.908 -12.473  -1.492  1.00  0.00     0.158 A 
HETATM   20  N   UNL     1      38.157 -11.754  -2.317  1.00  0.00    -0.183 NA
HETATM   21  N   UNL     1      38.759 -10.549  -2.335  1.00  0.00    -0.268 N 
HETATM   22  C   UNL     1      39.889 -10.489  -1.535  1.00  0.00     0.052 A 
BRANCH  21  23
HETATM   23  C   UNL     1      38.115  -9.452  -3.060  1.00  0.00     0.106 C 
HETATM   24  C   UNL     1      36.594  -9.619  -3.000  1.00  0.00     0.034 C 
BRANCH  23  25
HETATM   25  C   UNL     1      38.574  -9.308  -4.528  1.00  0.00     0.022 C 
HETATM   26  C   UNL     1      37.493  -8.751  -5.442  1.00  0.00     0.007 C 
ENDBRANCH  23  25
ENDBRANCH  21  23
BRANCH  22  27
HETATM   27  C   UNL     1      40.677  -9.202  -1.276  1.00  0.00     0.038 A 
HETATM   28  C   UNL     1      42.187  -9.213  -1.354  1.00  0.00     0.011 A 
HETATM   29  C   UNL     1      41.400  -8.466  -2.376  1.00  0.00     0.011 A 
ENDBRANCH  22  27
ENDBRANCH   1  18
TORSDOF 8
ENDMDL
MODEL 9
REMARK VINA RESULT:      -6.5      6.932     10.309
REMARK  8 active torsions:
REMARK  status: ('A' for Active; 'I' for Inactive)
REMARK    1  A    between atoms: C_2  and  C_3 
REMARK    2  A    between atoms: C_3  and  N_4 
REMARK    3  A    between atoms: C_7  and  C_8 
REMARK       I    between atoms: C_8  and  N_9 
REMARK    4  A    between atoms: N_9  and  N_10 
REMARK       I    between atoms: N_10  and  C_11 
REMARK    5  A    between atoms: C_11  and  C_12 
REMARK    6  A    between atoms: C_15  and  O_16 
REMARK    7  A    between atoms: O_16  and  C_17 
REMARK    8  A    between atoms: C_23  and  C_24 
ROOT
HETATM    1  C   UNL     1      41.880 -10.275   6.716  1.00  0.00     0.273 C 
HETATM    2  N   UNL     1      41.363 -11.550   6.786  1.00  0.00    -0.263 N 
HETATM    3  O   UNL     1      42.373  -9.837   5.676  1.00  0.00    -0.266 OA
HETATM    4  H   UNL     1      41.037 -11.986   7.641  1.00  0.00     0.190 HD
ENDROOT
BRANCH   2   5
HETATM    5  N   UNL     1      41.461 -12.342   5.629  1.00  0.00    -0.263 N 
HETATM    6  C   UNL     1      40.535 -13.352   5.442  1.00  0.00     0.270 C 
HETATM    7  O   UNL     1      39.806 -13.785   6.327  1.00  0.00    -0.266 OA
HETATM    8  H   UNL     1      41.789 -11.821   4.813  1.00  0.00     0.190 HD
BRANCH   6   9
HETATM    9  C   UNL     1      40.441 -13.856   4.040  1.00  0.00     0.033 A 
HETATM   10  C   UNL     1      40.080 -13.011   2.984  1.00  0.00     0.020 A 
HETATM   11  C   UNL     1      39.894 -13.538   1.704  1.00  0.00     0.038 A 
HETATM   12  C   UNL     1      40.068 -14.902   1.463  1.00  0.00     0.068 A 
HETATM   13  C   UNL     1      40.491 -15.733   2.502  1.00  0.00     0.038 A 
HETATM   14  C   UNL     1      40.677 -15.212   3.789  1.00  0.00     0.020 A 
BRANCH  12  15
HETATM   15  O   UNL     1      39.798 -15.289   0.181  1.00  0.00    -0.352 OA
BRANCH  15  16
HETATM   16  C   UNL     1      39.681 -14.255  -0.796  1.00  0.00     0.171 C 
HETATM   17  C   UNL     1      39.052 -14.862  -2.039  1.00  0.00     0.034 C 
ENDBRANCH  15  16
ENDBRANCH  12  15
ENDBRANCH   6   9
ENDBRANCH   2   5
BRANCH   1  18
HETATM   18  C   UNL     1      41.933  -9.542   7.957  1.00  0.00     0.077 A 
HETATM   19  C   UNL     1      40.789  -9.303   8.750  1.00  0.00     0.158 A 
HETATM   20  N   UNL     1      41.066  -8.682   9.890  1.00  0.00    -0.183 NA
HETATM   21  N   UNL     1      42.404  -8.538   9.864  1.00  0.00    -0.268 N 
HETATM   22  C   UNL     1      42.989  -9.055   8.718  1.00  0.00     0.052 A 
BRANCH  21  23
HETATM   23  C   UNL     1      43.077  -7.994  11.045  1.00  0.00     0.106 C 
HETATM   24  C   UNL     1      43.275  -9.105  12.081  1.00  0.00     0.034 C 
BRANCH  23  25
HETATM   25  C   UNL     1      42.352  -6.793  11.690  1.00  0.00     0.022 C 
HETATM   26  C   UNL     1      42.678  -6.617  13.166  1.00  0.00     0.007 C 
ENDBRANCH  23  25
ENDBRANCH  21  23
BRANCH  22  27
HETATM   27  C   UNL     1      44.502  -9.139   8.503  1.00  0.00     0.038 A 
HETATM   28  C   UNL     1      45.326 -10.117   9.311  1.00  0.00     0.011 A 
HETATM   29  C   UNL     1      45.157 -10.328   7.845  1.00  0.00     0.011 A 
ENDBRANCH  22  27
ENDBRANCH   1  18
TORSDOF 8
ENDMDL
MODEL 10
REMARK VINA RESULT:      -6.5      4.871      9.944
REMARK  8 active torsions:
REMARK  status: ('A' for Active; 'I' for Inactive)
REMARK    1  A    between atoms: C_2  and  C_3 
REMARK    2  A    between atoms: C_3  and  N_4 
REMARK    3  A    between atoms: C_7  and  C_8 
REMARK       I    between atoms: C_8  and  N_9 
REMARK    4  A    between atoms: N_9  and  N_10 
REMARK       I    between atoms: N_10  and  C_11 
REMARK    5  A    between atoms: C_11  and  C_12 
REMARK    6  A    between atoms: C_15  and  O_16 
REMARK    7  A    between atoms: O_16  and  C_17 
REMARK    8  A    between atoms: C_23  and  C_24 
ROOT
HETATM    1  C   UNL     1      41.665 -14.698   3.908  1.00  0.00     0.273 C 
HETATM    2  N   UNL     1      40.305 -14.686   4.133  1.00  0.00    -0.263 N 
HETATM    3  O   UNL     1      42.323 -13.659   3.893  1.00  0.00    -0.266 OA
HETATM    4  H   UNL     1      39.708 -15.502   4.059  1.00  0.00     0.190 HD
ENDROOT
BRANCH   2   5
HETATM    5  N   UNL     1      39.699 -13.430   4.304  1.00  0.00    -0.263 N 
HETATM    6  C   UNL     1      39.544 -12.943   5.589  1.00  0.00     0.270 C 
HETATM    7  O   UNL     1      39.645 -13.630   6.598  1.00  0.00    -0.266 OA
HETATM    8  H   UNL     1      39.921 -12.772   3.554  1.00  0.00     0.190 HD
BRANCH   6   9
HETATM    9  C   UNL     1      39.292 -11.474   5.670  1.00  0.00     0.033 A 
HETATM   10  C   UNL     1      39.001 -10.719   4.527  1.00  0.00     0.020 A 
HETATM   11  C   UNL     1      38.880  -9.331   4.622  1.00  0.00     0.038 A 
HETATM   12  C   UNL     1      39.043  -8.684   5.848  1.00  0.00     0.068 A 
HETATM   13  C   UNL     1      39.269  -9.442   6.999  1.00  0.00     0.038 A 
HETATM   14  C   UNL     1      39.393 -10.835   6.910  1.00  0.00     0.020 A 
BRANCH  12  15
HETATM   15  O   UNL     1      38.955  -7.323   5.785  1.00  0.00    -0.352 OA
BRANCH  15  16
HETATM   16  C   UNL     1      38.848  -6.622   7.024  1.00  0.00     0.171 C 
HETATM   17  C   UNL     1      40.103  -5.782   7.191  1.00  0.00     0.034 C 
ENDBRANCH  15  16
ENDBRANCH  12  15
ENDBRANCH   6   9
ENDBRANCH   2   5
BRANCH   1  18
HETATM   18  C   UNL     1      42.239 -15.975   3.558  1.00  0.00     0.077 A 
HETATM   19  C   UNL     1      42.351 -16.419   2.222  1.00  0.00     0.158 A 
HETATM   20  N   UNL     1      42.980 -17.583   2.111  1.00  0.00    -0.183 NA
HETATM   21  N   UNL     1      43.313 -17.892   3.379  1.00  0.00    -0.268 N 
HETATM   22  C   UNL     1      42.900 -16.944   4.301  1.00  0.00     0.052 A 
BRANCH  21  23
HETATM   23  C   UNL     1      44.145 -19.073   3.619  1.00  0.00     0.106 C 
HETATM   24  C   UNL     1      43.765 -20.179   2.630  1.00  0.00     0.034 C 
BRANCH  23  25
HETATM   25  C   UNL     1      44.077 -19.611   5.065  1.00  0.00     0.022 C 
HETATM   26  C   UNL     1      43.824 -21.111   5.136  1.00  0.00     0.007 C 
ENDBRANCH  23  25
ENDBRANCH  21  23
BRANCH  22  27
HETATM   27  C   UNL     1      43.268 -16.991   5.787  1.00  0.00     0.038 A 
HETATM   28  C   UNL     1      44.351 -16.082   6.324  1.00  0.00     0.011 A 
HETATM   29  C   UNL     1      42.934 -15.866   6.735  1.00  0.00     0.011 A 
ENDBRANCH  22  27
ENDBRANCH   1  18
TORSDOF 8
ENDMDL
