MODEL 1
REMARK VINA RESULT:      -8.2      0.000      0.000
REMARK  7 active torsions:
REMARK  status: ('A' for Active; 'I' for Inactive)
REMARK    1  A    between atoms: C_6  and  N_7 
REMARK    2  A    between atoms: N_7  and  C_8 
REMARK    3  A    between atoms: C_13  and  C_14 
REMARK       I    between atoms: C_14  and  N_15 
REMARK    4  A    between atoms: N_15  and  C_16 
REMARK    5  A    between atoms: C_16  and  C_17 
REMARK    6  A    between atoms: C_17  and  N_18 
REMARK       I    between atoms: N_18  and  C_19 
REMARK    7  A    between atoms: C_19  and  C_20 
ROOT
HETATM    1  C   UNL     1      42.166 -12.058   5.201  1.00  0.00     0.255 C 
HETATM    2  N   UNL     1      42.530 -12.296   6.508  1.00  0.00    -0.355 N 
HETATM    3  O   UNL     1      42.801 -12.467   4.233  1.00  0.00    -0.268 OA
HETATM    4  H   UNL     1      41.913 -12.034   7.267  1.00  0.00     0.162 HD
ENDROOT
BRANCH   1   5
HETATM    5  C   UNL     1      40.935 -11.258   4.998  1.00  0.00     0.077 A 
HETATM    6  C   UNL     1      39.823 -11.819   4.343  1.00  0.00     0.143 A 
HETATM    7  N   UNL     1      38.707 -11.076   4.136  1.00  0.00    -0.242 NA
HETATM    8  C   UNL     1      38.693  -9.786   4.542  1.00  0.00     0.119 A 
HETATM    9  C   UNL     1      39.754  -9.166   5.173  1.00  0.00     0.020 A 
HETATM   10  C   UNL     1      40.898  -9.917   5.404  1.00  0.00     0.022 A 
BRANCH   6  11
HETATM   11  N   UNL     1      39.849 -13.184   3.969  1.00  0.00    -0.340 N 
HETATM   12  H   UNL     1      40.288 -13.734   4.712  1.00  0.00     0.167 HD
BRANCH  11  13
HETATM   13  C   UNL     1      39.927 -13.799   2.705  1.00  0.00     0.036 A 
HETATM   14  C   UNL     1      40.320 -13.025   1.604  1.00  0.00     0.071 A 
HETATM   15  C   UNL     1      40.468 -13.602   0.344  1.00  0.00     0.118 A 
HETATM   16  C   UNL     1      40.250 -14.957   0.146  1.00  0.00     0.042 A 
HETATM   17  F   UNL     1      40.833 -12.835  -0.692  1.00  0.00    -0.206 F 
HETATM   18  C   UNL     1      39.890 -15.749   1.230  1.00  0.00     0.005 A 
HETATM   19  C   UNL     1      39.741 -15.174   2.499  1.00  0.00     0.029 A 
ENDBRANCH  11  13
ENDBRANCH   6  11
ENDBRANCH   1   5
BRANCH   2  20
HETATM   20  C   UNL     1      43.721 -13.057   6.842  1.00  0.00     0.142 C 
BRANCH  20  21
HETATM   21  C   UNL     1      43.386 -14.463   7.353  1.00  0.00     0.142 C 
BRANCH  21  22
HETATM   22  N   UNL     1      43.645 -15.501   6.372  1.00  0.00    -0.355 N 
HETATM   23  C   UNL     1      42.672 -15.895   5.477  1.00  0.00     0.251 C 
HETATM   24  O   UNL     1      41.559 -15.385   5.428  1.00  0.00    -0.268 OA
HETATM   25  H   UNL     1      44.486 -16.048   6.487  1.00  0.00     0.162 HD
BRANCH  23  26
HETATM   26  C   UNL     1      43.018 -17.017   4.562  1.00  0.00     0.033 A 
HETATM   27  C   UNL     1      43.571 -18.177   5.119  1.00  0.00     0.042 A 
HETATM   28  C   UNL     1      43.911 -19.260   4.302  1.00  0.00     0.056 A 
HETATM   29 CL   UNL     1      44.600 -20.652   5.057  1.00  0.00    -0.083 Cl
HETATM   30  C   UNL     1      43.688 -19.190   2.922  1.00  0.00     0.055 A 
HETATM   31 CL   UNL     1      44.083 -20.486   1.851  1.00  0.00    -0.083 Cl
HETATM   32  C   UNL     1      43.120 -18.038   2.368  1.00  0.00     0.026 A 
HETATM   33  C   UNL     1      42.780 -16.955   3.183  1.00  0.00     0.019 A 
ENDBRANCH  23  26
ENDBRANCH  21  22
ENDBRANCH  20  21
ENDBRANCH   2  20
TORSDOF 7
ENDMDL
MODEL 2
REMARK VINA RESULT:      -8.2      5.460      8.384
REMARK  7 active torsions:
REMARK  status: ('A' for Active; 'I' for Inactive)
REMARK    1  A    between atoms: C_6  and  N_7 
REMARK    2  A    between atoms: N_7  and  C_8 
REMARK    3  A    between atoms: C_13  and  C_14 
REMARK       I    between atoms: C_14  and  N_15 
REMARK    4  A    between atoms: N_15  and  C_16 
REMARK    5  A    between atoms: C_16  and  C_17 
REMARK    6  A    between atoms: C_17  and  N_18 
REMARK       I    between atoms: N_18  and  C_19 
REMARK    7  A    between atoms: C_19  and  C_20 
ROOT
HETATM    1  C   UNL     1      42.400 -14.979   5.322  1.00  0.00     0.255 C 
HETATM    2  N   UNL     1      42.936 -13.736   5.574  1.00  0.00    -0.355 N 
HETATM    3  O   UNL     1      42.501 -15.932   6.089  1.00  0.00    -0.268 OA
HETATM    4  H   UNL     1      42.728 -12.956   4.964  1.00  0.00     0.162 HD
ENDROOT
BRANCH   1   5
HETATM    5  C   UNL     1      41.669 -15.132   4.041  1.00  0.00     0.077 A 
HETATM    6  C   UNL     1      42.178 -15.963   3.027  1.00  0.00     0.143 A 
HETATM    7  N   UNL     1      41.520 -16.080   1.847  1.00  0.00    -0.242 NA
HETATM    8  C   UNL     1      40.388 -15.366   1.653  1.00  0.00     0.119 A 
HETATM    9  C   UNL     1      39.843 -14.518   2.596  1.00  0.00     0.020 A 
HETATM   10  C   UNL     1      40.497 -14.397   3.814  1.00  0.00     0.022 A 
BRANCH   6  11
HETATM   11  N   UNL     1      43.339 -16.734   3.273  1.00  0.00    -0.340 N 
HETATM   12  H   UNL     1      44.168 -16.208   2.984  1.00  0.00     0.167 HD
BRANCH  11  13
HETATM   13  C   UNL     1      43.545 -18.127   3.282  1.00  0.00     0.036 A 
HETATM   14  C   UNL     1      43.970 -18.735   4.472  1.00  0.00     0.071 A 
HETATM   15  C   UNL     1      44.131 -20.118   4.547  1.00  0.00     0.118 A 
HETATM   16  C   UNL     1      43.859 -20.931   3.457  1.00  0.00     0.042 A 
HETATM   17  F   UNL     1      44.550 -20.670   5.693  1.00  0.00    -0.206 F 
HETATM   18  C   UNL     1      43.407 -20.352   2.277  1.00  0.00     0.005 A 
HETATM   19  C   UNL     1      43.242 -18.962   2.198  1.00  0.00     0.029 A 
ENDBRANCH  11  13
ENDBRANCH   6  11
ENDBRANCH   1   5
BRANCH   2  20
HETATM   20  C   UNL     1      43.684 -13.460   6.788  1.00  0.00     0.142 C 
BRANCH  20  21
HETATM   21  C   UNL     1      44.101 -11.989   6.889  1.00  0.00     0.142 C 
BRANCH  21  22
HETATM   22  N   UNL     1      43.604 -11.338   8.088  1.00  0.00    -0.355 N 
HETATM   23  C   UNL     1      44.469 -10.796   9.016  1.00  0.00     0.251 C 
HETATM   24  O   UNL     1      45.686 -10.797   8.879  1.00  0.00    -0.268 OA
HETATM   25  H   UNL     1      42.626 -11.460   8.310  1.00  0.00     0.162 HD
BRANCH  23  26
HETATM   26  C   UNL     1      43.857 -10.218  10.243  1.00  0.00     0.033 A 
HETATM   27  C   UNL     1      43.471  -8.872  10.218  1.00  0.00     0.042 A 
HETATM   28  C   UNL     1      42.888  -8.283  11.346  1.00  0.00     0.056 A 
HETATM   29 CL   UNL     1      42.450  -6.615  11.246  1.00  0.00    -0.083 Cl
HETATM   30  C   UNL     1      42.680  -9.044  12.501  1.00  0.00     0.055 A 
HETATM   31 CL   UNL     1      41.969  -8.386  13.931  1.00  0.00    -0.083 Cl
HETATM   32  C   UNL     1      43.049 -10.393  12.521  1.00  0.00     0.026 A 
HETATM   33  C   UNL     1      43.632 -10.983  11.395  1.00  0.00     0.019 A 
ENDBRANCH  23  26
ENDBRANCH  21  22
ENDBRANCH  20  21
ENDBRANCH   2  20
TORSDOF 7
ENDMDL
MODEL 3
REMARK VINA RESULT:      -8.1      3.229      5.842
REMARK  7 active torsions:
REMARK  status: ('A' for Active; 'I' for Inactive)
REMARK    1  A    between atoms: C_6  and  N_7 
REMARK    2  A    between atoms: N_7  and  C_8 
REMARK    3  A    between atoms: C_13  and  C_14 
REMARK       I    between atoms: C_14  and  N_15 
REMARK    4  A    between atoms: N_15  and  C_16 
REMARK    5  A    between atoms: C_16  and  C_17 
REMARK    6  A    between atoms: C_17  and  N_18 
REMARK       I    between atoms: N_18  and  C_19 
REMARK    7  A    between atoms: C_19  and  C_20 
ROOT
HETATM    1  C   UNL     1      39.826 -11.663  -0.136  1.00  0.00     0.255 C 
HETATM    2  N   UNL     1      38.820 -10.815   0.272  1.00  0.00    -0.355 N 
HETATM    3  O   UNL     1      40.991 -11.565   0.237  1.00  0.00    -0.268 OA
HETATM    4  H   UNL     1      37.857 -11.008   0.025  1.00  0.00     0.162 HD
ENDROOT
BRANCH   1   5
HETATM    5  C   UNL     1      39.437 -12.739  -1.079  1.00  0.00     0.077 A 
HETATM    6  C   UNL     1      39.442 -14.083  -0.665  1.00  0.00     0.143 A 
HETATM    7  N   UNL     1      39.109 -15.067  -1.538  1.00  0.00    -0.242 NA
HETATM    8  C   UNL     1      38.803 -14.737  -2.813  1.00  0.00     0.119 A 
HETATM    9  C   UNL     1      38.797 -13.441  -3.292  1.00  0.00     0.020 A 
HETATM   10  C   UNL     1      39.122 -12.422  -2.408  1.00  0.00     0.022 A 
BRANCH   6  11
HETATM   11  N   UNL     1      39.721 -14.396   0.687  1.00  0.00    -0.340 N 
HETATM   12  H   UNL     1      39.331 -13.671   1.295  1.00  0.00     0.167 HD
BRANCH  11  13
HETATM   13  C   UNL     1      40.794 -15.092   1.277  1.00  0.00     0.036 A 
HETATM   14  C   UNL     1      42.094 -14.599   1.097  1.00  0.00     0.071 A 
HETATM   15  C   UNL     1      43.182 -15.220   1.707  1.00  0.00     0.118 A 
HETATM   16  C   UNL     1      43.011 -16.328   2.523  1.00  0.00     0.042 A 
HETATM   17  F   UNL     1      44.415 -14.733   1.508  1.00  0.00    -0.206 F 
HETATM   18  C   UNL     1      41.727 -16.815   2.740  1.00  0.00     0.005 A 
HETATM   19  C   UNL     1      40.630 -16.193   2.129  1.00  0.00     0.029 A 
ENDBRANCH  11  13
ENDBRANCH   6  11
ENDBRANCH   1   5
BRANCH   2  20
HETATM   20  C   UNL     1      39.073  -9.716   1.185  1.00  0.00     0.142 C 
BRANCH  20  21
HETATM   21  C   UNL     1      38.725 -10.074   2.635  1.00  0.00     0.142 C 
BRANCH  21  22
HETATM   22  N   UNL     1      39.767 -10.837   3.297  1.00  0.00    -0.355 N 
HETATM   23  C   UNL     1      39.674 -12.207   3.427  1.00  0.00     0.251 C 
HETATM   24  O   UNL     1      38.745 -12.863   2.972  1.00  0.00    -0.268 OA
HETATM   25  H   UNL     1      40.460 -10.320   3.818  1.00  0.00     0.162 HD
BRANCH  23  26
HETATM   26  C   UNL     1      40.762 -12.883   4.187  1.00  0.00     0.033 A 
HETATM   27  C   UNL     1      40.420 -13.964   5.008  1.00  0.00     0.042 A 
HETATM   28  C   UNL     1      41.407 -14.634   5.740  1.00  0.00     0.056 A 
HETATM   29 CL   UNL     1      40.910 -15.950   6.742  1.00  0.00    -0.083 Cl
HETATM   30  C   UNL     1      42.743 -14.229   5.644  1.00  0.00     0.055 A 
HETATM   31 CL   UNL     1      44.014 -15.006   6.518  1.00  0.00    -0.083 Cl
HETATM   32  C   UNL     1      43.087 -13.160   4.810  1.00  0.00     0.026 A 
HETATM   33  C   UNL     1      42.102 -12.490   4.078  1.00  0.00     0.019 A 
ENDBRANCH  23  26
ENDBRANCH  21  22
ENDBRANCH  20  21
ENDBRANCH   2  20
TORSDOF 7
ENDMDL
MODEL 4
REMARK VINA RESULT:      -7.9      5.032      7.619
REMARK  7 active torsions:
REMARK  status: ('A' for Active; 'I' for Inactive)
REMARK    1  A    between atoms: C_6  and  N_7 
REMARK    2  A    between atoms: N_7  and  C_8 
REMARK    3  A    between atoms: C_13  and  C_14 
REMARK       I    between atoms: C_14  and  N_15 
REMARK    4  A    between atoms: N_15  and  C_16 
REMARK    5  A    between atoms: C_16  and  C_17 
REMARK    6  A    between atoms: C_17  and  N_18 
REMARK       I    between atoms: N_18  and  C_19 
REMARK    7  A    between atoms: C_19  and  C_20 
ROOT
HETATM    1  C   UNL     1      43.716 -11.651   5.159  1.00  0.00     0.255 C 
HETATM    2  N   UNL     1      44.525 -11.705   6.273  1.00  0.00    -0.355 N 
HETATM    3  O   UNL     1      44.098 -11.261   4.060  1.00  0.00    -0.268 OA
HETATM    4  H   UNL     1      44.194 -12.139   7.125  1.00  0.00     0.162 HD
ENDROOT
BRANCH   1   5
HETATM    5  C   UNL     1      42.315 -12.097   5.344  1.00  0.00     0.077 A 
HETATM    6  C   UNL     1      41.854 -13.271   4.720  1.00  0.00     0.143 A 
HETATM    7  N   UNL     1      40.564 -13.662   4.871  1.00  0.00    -0.242 NA
HETATM    8  C   UNL     1      39.726 -12.893   5.602  1.00  0.00     0.119 A 
HETATM    9  C   UNL     1      40.105 -11.721   6.226  1.00  0.00     0.020 A 
HETATM   10  C   UNL     1      41.425 -11.313   6.092  1.00  0.00     0.022 A 
BRANCH   6  11
HETATM   11  N   UNL     1      42.763 -14.080   3.998  1.00  0.00    -0.340 N 
HETATM   12  H   UNL     1      42.873 -13.711   3.050  1.00  0.00     0.167 HD
BRANCH  11  13
HETATM   13  C   UNL     1      43.065 -15.453   4.095  1.00  0.00     0.036 A 
HETATM   14  C   UNL     1      42.928 -16.252   2.951  1.00  0.00     0.071 A 
HETATM   15  C   UNL     1      43.268 -17.604   2.983  1.00  0.00     0.118 A 
HETATM   16  C   UNL     1      43.770 -18.190   4.135  1.00  0.00     0.042 A 
HETATM   17  F   UNL     1      43.116 -18.346   1.878  1.00  0.00    -0.206 F 
HETATM   18  C   UNL     1      43.943 -17.408   5.271  1.00  0.00     0.005 A 
HETATM   19  C   UNL     1      43.603 -16.049   5.244  1.00  0.00     0.029 A 
ENDBRANCH  11  13
ENDBRANCH   6  11
ENDBRANCH   1   5
BRANCH   2  20
HETATM   20  C   UNL     1      45.914 -11.286   6.227  1.00  0.00     0.142 C 
BRANCH  20  21
HETATM   21  C   UNL     1      46.356 -10.602   7.526  1.00  0.00     0.142 C 
BRANCH  21  22
HETATM   22  N   UNL     1      45.270 -10.422   8.472  1.00  0.00    -0.355 N 
HETATM   23  C   UNL     1      44.858  -9.162   8.853  1.00  0.00     0.251 C 
HETATM   24  O   UNL     1      45.346  -8.132   8.405  1.00  0.00    -0.268 OA
HETATM   25  H   UNL     1      44.955 -11.237   8.978  1.00  0.00     0.162 HD
BRANCH  23  26
HETATM   26  C   UNL     1      43.785  -9.091   9.882  1.00  0.00     0.033 A 
HETATM   27  C   UNL     1      42.463  -9.309   9.475  1.00  0.00     0.042 A 
HETATM   28  C   UNL     1      41.419  -9.256  10.406  1.00  0.00     0.056 A 
HETATM   29 CL   UNL     1      39.814  -9.522   9.829  1.00  0.00    -0.083 Cl
HETATM   30  C   UNL     1      41.698  -8.995  11.752  1.00  0.00     0.055 A 
HETATM   31 CL   UNL     1      40.463  -8.912  12.956  1.00  0.00    -0.083 Cl
HETATM   32  C   UNL     1      43.020  -8.794  12.162  1.00  0.00     0.026 A 
HETATM   33  C   UNL     1      44.063  -8.847  11.233  1.00  0.00     0.019 A 
ENDBRANCH  23  26
ENDBRANCH  21  22
ENDBRANCH  20  21
ENDBRANCH   2  20
TORSDOF 7
ENDMDL
MODEL 5
REMARK VINA RESULT:      -7.9      3.534      6.180
REMARK  7 active torsions:
REMARK  status: ('A' for Active; 'I' for Inactive)
REMARK    1  A    between atoms: C_6  and  N_7 
REMARK    2  A    between atoms: N_7  and  C_8 
REMARK    3  A    between atoms: C_13  and  C_14 
REMARK       I    between atoms: C_14  and  N_15 
REMARK    4  A    between atoms: N_15  and  C_16 
REMARK    5  A    between atoms: C_16  and  C_17 
REMARK    6  A    between atoms: C_17  and  N_18 
REMARK       I    between atoms: N_18  and  C_19 
REMARK    7  A    between atoms: C_19  and  C_20 
ROOT
HETATM    1  C   UNL     1      38.939 -11.572   0.790  1.00  0.00     0.255 C 
HETATM    2  N   UNL     1      39.081 -10.234   0.494  1.00  0.00    -0.355 N 
HETATM    3  O   UNL     1      38.733 -12.000   1.922  1.00  0.00    -0.268 OA
HETATM    4  H   UNL     1      39.136  -9.926  -0.468  1.00  0.00     0.162 HD
ENDROOT
BRANCH   1   5
HETATM    5  C   UNL     1      39.050 -12.512  -0.350  1.00  0.00     0.077 A 
HETATM    6  C   UNL     1      40.212 -13.286  -0.523  1.00  0.00     0.143 A 
HETATM    7  N   UNL     1      40.320 -14.127  -1.582  1.00  0.00    -0.242 NA
HETATM    8  C   UNL     1      39.310 -14.186  -2.479  1.00  0.00     0.119 A 
HETATM    9  C   UNL     1      38.151 -13.442  -2.382  1.00  0.00     0.020 A 
HETATM   10  C   UNL     1      38.019 -12.586  -1.297  1.00  0.00     0.022 A 
BRANCH   6  11
HETATM   11  N   UNL     1      41.234 -13.238   0.455  1.00  0.00    -0.340 N 
HETATM   12  H   UNL     1      42.027 -12.700   0.097  1.00  0.00     0.167 HD
BRANCH  11  13
HETATM   13  C   UNL     1      41.597 -14.152   1.464  1.00  0.00     0.036 A 
HETATM   14  C   UNL     1      40.586 -14.887   2.099  1.00  0.00     0.071 A 
HETATM   15  C   UNL     1      40.901 -15.843   3.063  1.00  0.00     0.118 A 
HETATM   16  C   UNL     1      42.217 -16.109   3.407  1.00  0.00     0.042 A 
HETATM   17  F   UNL     1      39.913 -16.523   3.662  1.00  0.00    -0.206 F 
HETATM   18  C   UNL     1      43.237 -15.413   2.768  1.00  0.00     0.005 A 
HETATM   19  C   UNL     1      42.926 -14.451   1.797  1.00  0.00     0.029 A 
ENDBRANCH  11  13
ENDBRANCH   6  11
ENDBRANCH   1   5
BRANCH   2  20
HETATM   20  C   UNL     1      39.004  -9.213   1.524  1.00  0.00     0.142 C 
BRANCH  20  21
HETATM   21  C   UNL     1      40.387  -8.831   2.065  1.00  0.00     0.142 C 
BRANCH  21  22
HETATM   22  N   UNL     1      40.854  -9.722   3.111  1.00  0.00    -0.355 N 
HETATM   23  C   UNL     1      41.854 -10.641   2.873  1.00  0.00     0.251 C 
HETATM   24  O   UNL     1      42.427 -10.744   1.795  1.00  0.00    -0.268 OA
HETATM   25  H   UNL     1      40.301  -9.775   3.955  1.00  0.00     0.162 HD
BRANCH  23  26
HETATM   26  C   UNL     1      42.206 -11.554   3.994  1.00  0.00     0.033 A 
HETATM   27  C   UNL     1      41.188 -12.335   4.555  1.00  0.00     0.042 A 
HETATM   28  C   UNL     1      41.470 -13.211   5.609  1.00  0.00     0.056 A 
HETATM   29 CL   UNL     1      40.162 -14.132   6.260  1.00  0.00    -0.083 Cl
HETATM   30  C   UNL     1      42.776 -13.316   6.100  1.00  0.00     0.055 A 
HETATM   31 CL   UNL     1      43.199 -14.372   7.399  1.00  0.00    -0.083 Cl
HETATM   32  C   UNL     1      43.797 -12.548   5.528  1.00  0.00     0.026 A 
HETATM   33  C   UNL     1      43.517 -11.673   4.475  1.00  0.00     0.019 A 
ENDBRANCH  23  26
ENDBRANCH  21  22
ENDBRANCH  20  21
ENDBRANCH   2  20
TORSDOF 7
ENDMDL
MODEL 6
REMARK VINA RESULT:      -7.8      4.266      6.957
REMARK  7 active torsions:
REMARK  status: ('A' for Active; 'I' for Inactive)
REMARK    1  A    between atoms: C_6  and  N_7 
REMARK    2  A    between atoms: N_7  and  C_8 
REMARK    3  A    between atoms: C_13  and  C_14 
REMARK       I    between atoms: C_14  and  N_15 
REMARK    4  A    between atoms: N_15  and  C_16 
REMARK    5  A    between atoms: C_16  and  C_17 
REMARK    6  A    between atoms: C_17  and  N_18 
REMARK       I    between atoms: N_18  and  C_19 
REMARK    7  A    between atoms: C_19  and  C_20 
ROOT
HETATM    1  C   UNL     1      42.104 -11.009   6.478  1.00  0.00     0.255 C 
HETATM    2  N   UNL     1      41.508 -12.250   6.426  1.00  0.00    -0.355 N 
HETATM    3  O   UNL     1      41.526  -9.964   6.192  1.00  0.00    -0.268 OA
HETATM    4  H   UNL     1      41.992 -13.065   6.780  1.00  0.00     0.162 HD
ENDROOT
BRANCH   1   5
HETATM    5  C   UNL     1      43.522 -10.979   6.907  1.00  0.00     0.077 A 
HETATM    6  C   UNL     1      43.868 -10.511   8.188  1.00  0.00     0.143 A 
HETATM    7  N   UNL     1      45.169 -10.462   8.568  1.00  0.00    -0.242 NA
HETATM    8  C   UNL     1      46.124 -10.840   7.689  1.00  0.00     0.119 A 
HETATM    9  C   UNL     1      45.858 -11.291   6.411  1.00  0.00     0.020 A 
HETATM   10  C   UNL     1      44.531 -11.360   6.011  1.00  0.00     0.022 A 
BRANCH   6  11
HETATM   11  N   UNL     1      42.846 -10.164   9.104  1.00  0.00    -0.340 N 
HETATM   12  H   UNL     1      41.963 -10.040   8.601  1.00  0.00     0.167 HD
BRANCH  11  13
HETATM   13  C   UNL     1      42.891  -9.462  10.324  1.00  0.00     0.036 A 
HETATM   14  C   UNL     1      42.775  -8.064  10.299  1.00  0.00     0.071 A 
HETATM   15  C   UNL     1      42.757  -7.330  11.483  1.00  0.00     0.118 A 
HETATM   16  C   UNL     1      42.832  -7.958  12.717  1.00  0.00     0.042 A 
HETATM   17  F   UNL     1      42.657  -5.995  11.428  1.00  0.00    -0.206 F 
HETATM   18  C   UNL     1      42.916  -9.345  12.766  1.00  0.00     0.005 A 
HETATM   19  C   UNL     1      42.934 -10.088  11.578  1.00  0.00     0.029 A 
ENDBRANCH  11  13
ENDBRANCH   6  11
ENDBRANCH   1   5
BRANCH   2  20
HETATM   20  C   UNL     1      40.127 -12.415   6.011  1.00  0.00     0.142 C 
BRANCH  20  21
HETATM   21  C   UNL     1      40.011 -12.848   4.545  1.00  0.00     0.142 C 
BRANCH  21  22
HETATM   22  N   UNL     1      40.651 -14.122   4.276  1.00  0.00    -0.355 N 
HETATM   23  C   UNL     1      41.920 -14.184   3.740  1.00  0.00     0.251 C 
HETATM   24  O   UNL     1      42.592 -13.191   3.492  1.00  0.00    -0.268 OA
HETATM   25  H   UNL     1      40.072 -14.950   4.317  1.00  0.00     0.162 HD
BRANCH  23  26
HETATM   26  C   UNL     1      42.454 -15.540   3.436  1.00  0.00     0.033 A 
HETATM   27  C   UNL     1      42.829 -16.359   4.509  1.00  0.00     0.042 A 
HETATM   28  C   UNL     1      43.333 -17.643   4.275  1.00  0.00     0.056 A 
HETATM   29 CL   UNL     1      43.789 -18.589   5.645  1.00  0.00    -0.083 Cl
HETATM   30  C   UNL     1      43.453 -18.117   2.964  1.00  0.00     0.055 A 
HETATM   31 CL   UNL     1      44.068 -19.688   2.598  1.00  0.00    -0.083 Cl
HETATM   32  C   UNL     1      43.062 -17.306   1.893  1.00  0.00     0.026 A 
HETATM   33  C   UNL     1      42.558 -16.023   2.126  1.00  0.00     0.019 A 
ENDBRANCH  23  26
ENDBRANCH  21  22
ENDBRANCH  20  21
ENDBRANCH   2  20
TORSDOF 7
ENDMDL
MODEL 7
REMARK VINA RESULT:      -7.7      4.018      8.045
REMARK  7 active torsions:
REMARK  status: ('A' for Active; 'I' for Inactive)
REMARK    1  A    between atoms: C_6  and  N_7 
REMARK    2  A    between atoms: N_7  and  C_8 
REMARK    3  A    between atoms: C_13  and  C_14 
REMARK       I    between atoms: C_14  and  N_15 
REMARK    4  A    between atoms: N_15  and  C_16 
REMARK    5  A    between atoms: C_16  and  C_17 
REMARK    6  A    between atoms: C_17  and  N_18 
REMARK       I    between atoms: N_18  and  C_19 
REMARK    7  A    between atoms: C_19  and  C_20 
ROOT
HETATM    1  C   UNL     1      42.941 -16.945   2.261  1.00  0.00     0.255 C 
HETATM    2  N   UNL     1      41.590 -16.681   2.218  1.00  0.00    -0.355 N 
HETATM    3  O   UNL     1      43.795 -16.200   1.789  1.00  0.00    -0.268 OA
HETATM    4  H   UNL     1      40.937 -17.270   2.720  1.00  0.00     0.162 HD
ENDROOT
BRANCH   1   5
HETATM    5  C   UNL     1      43.342 -18.211   2.920  1.00  0.00     0.077 A 
HETATM    6  C   UNL     1      43.883 -18.196   4.218  1.00  0.00     0.143 A 
HETATM    7  N   UNL     1      44.272 -19.353   4.808  1.00  0.00    -0.242 NA
HETATM    8  C   UNL     1      44.159 -20.511   4.120  1.00  0.00     0.119 A 
HETATM    9  C   UNL     1      43.657 -20.597   2.836  1.00  0.00     0.020 A 
HETATM   10  C   UNL     1      43.241 -19.423   2.224  1.00  0.00     0.022 A 
BRANCH   6  11
HETATM   11  N   UNL     1      43.947 -16.976   4.933  1.00  0.00    -0.340 N 
HETATM   12  H   UNL     1      44.815 -16.940   5.475  1.00  0.00     0.167 HD
BRANCH  11  13
HETATM   13  C   UNL     1      42.932 -16.154   5.462  1.00  0.00     0.036 A 
HETATM   14  C   UNL     1      43.088 -14.763   5.387  1.00  0.00     0.071 A 
HETATM   15  C   UNL     1      42.085 -13.909   5.845  1.00  0.00     0.118 A 
HETATM   16  C   UNL     1      40.901 -14.408   6.367  1.00  0.00     0.042 A 
HETATM   17  F   UNL     1      42.266 -12.584   5.771  1.00  0.00    -0.206 F 
HETATM   18  C   UNL     1      40.714 -15.785   6.422  1.00  0.00     0.005 A 
HETATM   19  C   UNL     1      41.718 -16.647   5.962  1.00  0.00     0.029 A 
ENDBRANCH  11  13
ENDBRANCH   6  11
ENDBRANCH   1   5
BRANCH   2  20
HETATM   20  C   UNL     1      41.067 -15.480   1.591  1.00  0.00     0.142 C 
BRANCH  20  21
HETATM   21  C   UNL     1      39.578 -15.273   1.889  1.00  0.00     0.142 C 
BRANCH  21  22
HETATM   22  N   UNL     1      39.315 -14.078   2.669  1.00  0.00    -0.355 N 
HETATM   23  C   UNL     1      39.207 -12.842   2.067  1.00  0.00     0.251 C 
HETATM   24  O   UNL     1      39.291 -12.676   0.856  1.00  0.00    -0.268 OA
HETATM   25  H   UNL     1      39.399 -14.152   3.673  1.00  0.00     0.162 HD
BRANCH  23  26
HETATM   26  C   UNL     1      39.009 -11.673   2.967  1.00  0.00     0.033 A 
HETATM   27  C   UNL     1      39.338 -11.818   4.320  1.00  0.00     0.042 A 
HETATM   28  C   UNL     1      39.173 -10.747   5.206  1.00  0.00     0.056 A 
HETATM   29 CL   UNL     1      39.587 -11.003   6.863  1.00  0.00    -0.083 Cl
HETATM   30  C   UNL     1      38.686  -9.522   4.736  1.00  0.00     0.055 A 
HETATM   31 CL   UNL     1      38.453  -8.158   5.769  1.00  0.00    -0.083 Cl
HETATM   32  C   UNL     1      38.373  -9.372   3.381  1.00  0.00     0.026 A 
HETATM   33  C   UNL     1      38.538 -10.441   2.495  1.00  0.00     0.019 A 
ENDBRANCH  23  26
ENDBRANCH  21  22
ENDBRANCH  20  21
ENDBRANCH   2  20
TORSDOF 7
ENDMDL
MODEL 8
REMARK VINA RESULT:      -7.6      5.366      8.151
REMARK  7 active torsions:
REMARK  status: ('A' for Active; 'I' for Inactive)
REMARK    1  A    between atoms: C_6  and  N_7 
REMARK    2  A    between atoms: N_7  and  C_8 
REMARK    3  A    between atoms: C_13  and  C_14 
REMARK       I    between atoms: C_14  and  N_15 
REMARK    4  A    between atoms: N_15  and  C_16 
REMARK    5  A    between atoms: C_16  and  C_17 
REMARK    6  A    between atoms: C_17  and  N_18 
REMARK       I    between atoms: N_18  and  C_19 
REMARK    7  A    between atoms: C_19  and  C_20 
ROOT
HETATM    1  C   UNL     1      42.799 -12.924   4.572  1.00  0.00     0.255 C 
HETATM    2  N   UNL     1      42.612 -12.915   5.937  1.00  0.00    -0.355 N 
HETATM    3  O   UNL     1      43.797 -12.469   4.020  1.00  0.00    -0.268 OA
HETATM    4  H   UNL     1      41.826 -13.402   6.348  1.00  0.00     0.162 HD
ENDROOT
BRANCH   1   5
HETATM    5  C   UNL     1      41.710 -13.521   3.764  1.00  0.00     0.077 A 
HETATM    6  C   UNL     1      41.914 -14.735   3.083  1.00  0.00     0.143 A 
HETATM    7  N   UNL     1      40.924 -15.267   2.324  1.00  0.00    -0.242 NA
HETATM    8  C   UNL     1      39.754 -14.598   2.210  1.00  0.00     0.119 A 
HETATM    9  C   UNL     1      39.492 -13.394   2.834  1.00  0.00     0.020 A 
HETATM   10  C   UNL     1      40.490 -12.844   3.625  1.00  0.00     0.022 A 
BRANCH   6  11
HETATM   11  N   UNL     1      43.132 -15.436   3.256  1.00  0.00    -0.340 N 
HETATM   12  H   UNL     1      43.865 -14.994   2.696  1.00  0.00     0.167 HD
BRANCH  11  13
HETATM   13  C   UNL     1      43.392 -16.792   3.534  1.00  0.00     0.036 A 
HETATM   14  C   UNL     1      43.362 -17.712   2.477  1.00  0.00     0.071 A 
HETATM   15  C   UNL     1      43.668 -19.055   2.692  1.00  0.00     0.118 A 
HETATM   16  C   UNL     1      44.029 -19.515   3.949  1.00  0.00     0.042 A 
HETATM   17  F   UNL     1      43.620 -19.913   1.665  1.00  0.00    -0.206 F 
HETATM   18  C   UNL     1      44.095 -18.614   5.006  1.00  0.00     0.005 A 
HETATM   19  C   UNL     1      43.789 -17.263   4.794  1.00  0.00     0.029 A 
ENDBRANCH  11  13
ENDBRANCH   6  11
ENDBRANCH   1   5
BRANCH   2  20
HETATM   20  C   UNL     1      43.598 -12.348   6.839  1.00  0.00     0.142 C 
BRANCH  20  21
HETATM   21  C   UNL     1      43.346 -10.861   7.112  1.00  0.00     0.142 C 
BRANCH  21  22
HETATM   22  N   UNL     1      43.019 -10.586   8.499  1.00  0.00    -0.355 N 
HETATM   23  C   UNL     1      43.077  -9.304   9.004  1.00  0.00     0.251 C 
HETATM   24  O   UNL     1      43.369  -8.327   8.325  1.00  0.00    -0.268 OA
HETATM   25  H   UNL     1      42.931 -11.377   9.121  1.00  0.00     0.162 HD
BRANCH  23  26
HETATM   26  C   UNL     1      42.793  -9.143  10.457  1.00  0.00     0.033 A 
HETATM   27  C   UNL     1      41.665  -9.784  10.985  1.00  0.00     0.042 A 
HETATM   28  C   UNL     1      41.357  -9.666  12.344  1.00  0.00     0.056 A 
HETATM   29 CL   UNL     1      39.944 -10.473  12.921  1.00  0.00    -0.083 Cl
HETATM   30  C   UNL     1      42.185  -8.912  13.184  1.00  0.00     0.055 A 
HETATM   31 CL   UNL     1      41.868  -8.719  14.870  1.00  0.00    -0.083 Cl
HETATM   32  C   UNL     1      43.321  -8.285  12.661  1.00  0.00     0.026 A 
HETATM   33  C   UNL     1      43.629  -8.403  11.302  1.00  0.00     0.019 A 
ENDBRANCH  23  26
ENDBRANCH  21  22
ENDBRANCH  20  21
ENDBRANCH   2  20
TORSDOF 7
ENDMDL
MODEL 9
REMARK VINA RESULT:      -7.4     15.828     17.745
REMARK  7 active torsions:
REMARK  status: ('A' for Active; 'I' for Inactive)
REMARK    1  A    between atoms: C_6  and  N_7 
REMARK    2  A    between atoms: N_7  and  C_8 
REMARK    3  A    between atoms: C_13  and  C_14 
REMARK       I    between atoms: C_14  and  N_15 
REMARK    4  A    between atoms: N_15  and  C_16 
REMARK    5  A    between atoms: C_16  and  C_17 
REMARK    6  A    between atoms: C_17  and  N_18 
REMARK       I    between atoms: N_18  and  C_19 
REMARK    7  A    between atoms: C_19  and  C_20 
ROOT
HETATM    1  C   UNL     1      49.901 -30.739   1.322  1.00  0.00     0.255 C 
HETATM    2  N   UNL     1      50.474 -29.867   2.221  1.00  0.00    -0.355 N 
HETATM    3  O   UNL     1      48.931 -31.445   1.584  1.00  0.00    -0.268 OA
HETATM    4  H   UNL     1      51.199 -29.228   1.922  1.00  0.00     0.162 HD
ENDROOT
BRANCH   1   5
HETATM    5  C   UNL     1      50.521 -30.799  -0.022  1.00  0.00     0.077 A 
HETATM    6  C   UNL     1      49.923 -30.140  -1.112  1.00  0.00     0.143 A 
HETATM    7  N   UNL     1      50.480 -30.218  -2.346  1.00  0.00    -0.242 NA
HETATM    8  C   UNL     1      51.597 -30.959  -2.516  1.00  0.00     0.119 A 
HETATM    9  C   UNL     1      52.226 -31.648  -1.497  1.00  0.00     0.020 A 
HETATM   10  C   UNL     1      51.676 -31.568  -0.225  1.00  0.00     0.022 A 
BRANCH   6  11
HETATM   11  N   UNL     1      48.780 -29.333  -0.896  1.00  0.00    -0.340 N 
HETATM   12  H   UNL     1      48.711 -29.093   0.096  1.00  0.00     0.167 HD
BRANCH  11  13
HETATM   13  C   UNL     1      47.540 -29.281  -1.564  1.00  0.00     0.036 A 
HETATM   14  C   UNL     1      46.838 -30.478  -1.770  1.00  0.00     0.071 A 
HETATM   15  C   UNL     1      45.583 -30.470  -2.375  1.00  0.00     0.118 A 
HETATM   16  C   UNL     1      44.983 -29.284  -2.770  1.00  0.00     0.042 A 
HETATM   17  F   UNL     1      44.940 -31.630  -2.569  1.00  0.00    -0.206 F 
HETATM   18  C   UNL     1      45.649 -28.084  -2.547  1.00  0.00     0.005 A 
HETATM   19  C   UNL     1      46.911 -28.086  -1.939  1.00  0.00     0.029 A 
ENDBRANCH  11  13
ENDBRANCH   6  11
ENDBRANCH   1   5
BRANCH   2  20
HETATM   20  C   UNL     1      49.967 -29.723   3.574  1.00  0.00     0.142 C 
BRANCH  20  21
HETATM   21  C   UNL     1      48.814 -28.717   3.656  1.00  0.00     0.142 C 
BRANCH  21  22
HETATM   22  N   UNL     1      47.529 -29.294   3.309  1.00  0.00    -0.355 N 
HETATM   23  C   UNL     1      46.775 -28.786   2.272  1.00  0.00     0.251 C 
HETATM   24  O   UNL     1      47.145 -27.854   1.568  1.00  0.00    -0.268 OA
HETATM   25  H   UNL     1      47.124 -29.951   3.961  1.00  0.00     0.162 HD
BRANCH  23  26
HETATM   26  C   UNL     1      45.441 -29.406   2.047  1.00  0.00     0.033 A 
HETATM   27  C   UNL     1      44.948 -30.286   3.019  1.00  0.00     0.042 A 
HETATM   28  C   UNL     1      43.698 -30.891   2.855  1.00  0.00     0.056 A 
HETATM   29 CL   UNL     1      43.161 -31.975   4.088  1.00  0.00    -0.083 Cl
HETATM   30  C   UNL     1      42.930 -30.610   1.720  1.00  0.00     0.055 A 
HETATM   31 CL   UNL     1      41.380 -31.321   1.448  1.00  0.00    -0.083 Cl
HETATM   32  C   UNL     1      43.414 -29.719   0.757  1.00  0.00     0.026 A 
HETATM   33  C   UNL     1      44.663 -29.113   0.919  1.00  0.00     0.019 A 
ENDBRANCH  23  26
ENDBRANCH  21  22
ENDBRANCH  20  21
ENDBRANCH   2  20
TORSDOF 7
ENDMDL
MODEL 10
REMARK VINA RESULT:      -7.4      3.390      5.770
REMARK  7 active torsions:
REMARK  status: ('A' for Active; 'I' for Inactive)
REMARK    1  A    between atoms: C_6  and  N_7 
REMARK    2  A    between atoms: N_7  and  C_8 
REMARK    3  A    between atoms: C_13  and  C_14 
REMARK       I    between atoms: C_14  and  N_15 
REMARK    4  A    between atoms: N_15  and  C_16 
REMARK    5  A    between atoms: C_16  and  C_17 
REMARK    6  A    between atoms: C_17  and  N_18 
REMARK       I    between atoms: N_18  and  C_19 
REMARK    7  A    between atoms: C_19  and  C_20 
ROOT
HETATM    1  C   UNL     1      42.031 -10.714   4.562  1.00  0.00     0.255 C 
HETATM    2  N   UNL     1      41.482 -11.673   3.740  1.00  0.00    -0.355 N 
HETATM    3  O   UNL     1      43.219 -10.407   4.550  1.00  0.00    -0.268 OA
HETATM    4  H   UNL     1      40.479 -11.808   3.710  1.00  0.00     0.162 HD
ENDROOT
BRANCH   1   5
HETATM    5  C   UNL     1      41.101 -10.042   5.500  1.00  0.00     0.077 A 
HETATM    6  C   UNL     1      41.284 -10.159   6.890  1.00  0.00     0.143 A 
HETATM    7  N   UNL     1      40.415  -9.563   7.745  1.00  0.00    -0.242 NA
HETATM    8  C   UNL     1      39.361  -8.883   7.241  1.00  0.00     0.119 A 
HETATM    9  C   UNL     1      39.110  -8.744   5.891  1.00  0.00     0.020 A 
HETATM   10  C   UNL     1      39.996  -9.336   5.002  1.00  0.00     0.022 A 
BRANCH   6  11
HETATM   11  N   UNL     1      42.421 -10.838   7.389  1.00  0.00    -0.340 N 
HETATM   12  H   UNL     1      42.162 -11.791   7.656  1.00  0.00     0.167 HD
BRANCH  11  13
HETATM   13  C   UNL     1      43.562 -10.366   8.066  1.00  0.00     0.036 A 
HETATM   14  C   UNL     1      43.421  -9.915   9.386  1.00  0.00     0.071 A 
HETATM   15  C   UNL     1      44.530  -9.492  10.116  1.00  0.00     0.118 A 
HETATM   16  C   UNL     1      45.804  -9.522   9.569  1.00  0.00     0.042 A 
HETATM   17  F   UNL     1      44.363  -9.056  11.372  1.00  0.00    -0.206 F 
HETATM   18  C   UNL     1      45.970  -9.994   8.271  1.00  0.00     0.005 A 
HETATM   19  C   UNL     1      44.858 -10.422   7.534  1.00  0.00     0.029 A 
ENDBRANCH  11  13
ENDBRANCH   6  11
ENDBRANCH   1   5
BRANCH   2  20
HETATM   20  C   UNL     1      42.289 -12.411   2.785  1.00  0.00     0.142 C 
BRANCH  20  21
HETATM   21  C   UNL     1      41.585 -13.680   2.291  1.00  0.00     0.142 C 
BRANCH  21  22
HETATM   22  N   UNL     1      42.040 -14.882   2.967  1.00  0.00    -0.355 N 
HETATM   23  C   UNL     1      43.038 -15.667   2.430  1.00  0.00     0.251 C 
HETATM   24  O   UNL     1      43.619 -15.394   1.387  1.00  0.00    -0.268 OA
HETATM   25  H   UNL     1      41.481 -15.221   3.737  1.00  0.00     0.162 HD
BRANCH  23  26
HETATM   26  C   UNL     1      43.378 -16.915   3.167  1.00  0.00     0.033 A 
HETATM   27  C   UNL     1      43.470 -18.108   2.440  1.00  0.00     0.042 A 
HETATM   28  C   UNL     1      43.790 -19.307   3.086  1.00  0.00     0.056 A 
HETATM   29 CL   UNL     1      43.873 -20.741   2.127  1.00  0.00    -0.083 Cl
HETATM   30  C   UNL     1      44.029 -19.314   4.465  1.00  0.00     0.055 A 
HETATM   31 CL   UNL     1      44.426 -20.754   5.332  1.00  0.00    -0.083 Cl
HETATM   32  C   UNL     1      43.953 -18.119   5.189  1.00  0.00     0.026 A 
HETATM   33  C   UNL     1      43.634 -16.921   4.544  1.00  0.00     0.019 A 
ENDBRANCH  23  26
ENDBRANCH  21  22
ENDBRANCH  20  21
ENDBRANCH   2  20
TORSDOF 7
ENDMDL
