MODEL 1
REMARK VINA RESULT:      -9.5      0.000      0.000
REMARK  4 active torsions:
REMARK  status: ('A' for Active; 'I' for Inactive)
REMARK    1  A    between atoms: C_3  and  C_4 
REMARK    2  A    between atoms: C_4  and  N_5 
REMARK       I    between atoms: N_5  and  C_6 
REMARK       I    between atoms: C_6  and  N_7 
REMARK    3  A    between atoms: N_7  and  C_8 
REMARK    4  A    between atoms: C_16  and  C_17 
ROOT
HETATM    1  C   UNL     1      44.319 -18.349   4.145  1.00  0.00     0.049 C 
HETATM    2  C   UNL     1      43.850 -16.971   4.534  1.00  0.00    -0.054 A 
HETATM    3  C   UNL     1      43.251 -16.087   3.613  1.00  0.00    -0.034 A 
HETATM    4  C   UNL     1      42.752 -14.851   4.072  1.00  0.00     0.023 A 
HETATM    5  C   UNL     1      42.921 -14.455   5.404  1.00  0.00    -0.004 A 
HETATM    6  C   UNL     1      43.508 -15.341   6.311  1.00  0.00     0.014 A 
HETATM    7  C   UNL     1      43.954 -16.591   5.882  1.00  0.00     0.008 A 
ENDROOT
BRANCH   3   8
HETATM    8  C   UNL     1      43.154 -16.406   2.140  1.00  0.00     0.163 C 
BRANCH   8   9
HETATM    9  N   UNL     1      42.733 -15.270   1.359  1.00  0.00    -0.339 N 
HETATM   10  C   UNL     1      41.405 -15.149   1.039  1.00  0.00     0.316 C 
HETATM   11  N   UNL     1      41.192 -14.137   0.140  1.00  0.00    -0.339 N 
HETATM   12  O   UNL     1      40.523 -15.866   1.494  1.00  0.00    -0.247 OA
HETATM   13  H   UNL     1      41.901 -13.419   0.122  1.00  0.00     0.164 HD
HETATM   14  H   UNL     1      43.385 -14.929   0.668  1.00  0.00     0.164 HD
BRANCH  11  15
HETATM   15  C   UNL     1      39.836 -13.747  -0.239  1.00  0.00     0.086 C 
HETATM   16  C   UNL     1      39.736 -12.226  -0.427  1.00  0.00     0.025 C 
HETATM   17  C   UNL     1      40.436 -11.746  -1.699  1.00  0.00     0.002 C 
HETATM   18  C   UNL     1      39.942 -12.498  -2.932  1.00  0.00     0.000 C 
HETATM   19  C   UNL     1      40.075 -14.008  -2.765  1.00  0.00     0.002 C 
HETATM   20  C   UNL     1      39.382 -14.498  -1.495  1.00  0.00     0.025 C 
ENDBRANCH  11  15
ENDBRANCH   8   9
ENDBRANCH   3   8
BRANCH   5  21
HETATM   21  C   UNL     1      42.425 -13.139   5.914  1.00  0.00     0.098 C 
HETATM   22  N   UNL     1      41.146 -12.926   5.798  1.00  0.00    -0.169 NA
HETATM   23  N   UNL     1      40.619 -11.723   6.179  1.00  0.00    -0.238 N 
HETATM   24  C   UNL     1      39.183 -11.577   6.054  1.00  0.00     0.183 C 
HETATM   25  C   UNL     1      41.373 -10.632   6.590  1.00  0.00     0.274 C 
HETATM   26  O   UNL     1      40.902  -9.524   6.834  1.00  0.00    -0.266 OA
HETATM   27  C   UNL     1      42.815 -10.871   6.774  1.00  0.00     0.046 A 
HETATM   28  C   UNL     1      43.342 -12.132   6.511  1.00  0.00     0.011 A 
HETATM   29  C   UNL     1      43.628  -9.846   7.279  1.00  0.00     0.018 A 
HETATM   30  C   UNL     1      44.678 -12.390   6.848  1.00  0.00     0.015 A 
HETATM   31  C   UNL     1      45.492 -11.370   7.351  1.00  0.00     0.001 A 
HETATM   32  C   UNL     1      44.972 -10.093   7.552  1.00  0.00     0.001 A 
ENDBRANCH   5  21
TORSDOF 4
ENDMDL
MODEL 2
REMARK VINA RESULT:      -9.4      1.139      2.488
REMARK  4 active torsions:
REMARK  status: ('A' for Active; 'I' for Inactive)
REMARK    1  A    between atoms: C_3  and  C_4 
REMARK    2  A    between atoms: C_4  and  N_5 
REMARK       I    between atoms: N_5  and  C_6 
REMARK       I    between atoms: C_6  and  N_7 
REMARK    3  A    between atoms: N_7  and  C_8 
REMARK    4  A    between atoms: C_16  and  C_17 
ROOT
HETATM    1  C   UNL     1      43.989 -18.819   4.247  1.00  0.00     0.049 C 
HETATM    2  C   UNL     1      43.801 -17.363   4.584  1.00  0.00    -0.054 A 
HETATM    3  C   UNL     1      43.268 -16.435   3.665  1.00  0.00    -0.034 A 
HETATM    4  C   UNL     1      43.034 -15.110   4.085  1.00  0.00     0.023 A 
HETATM    5  C   UNL     1      43.401 -14.683   5.366  1.00  0.00    -0.004 A 
HETATM    6  C   UNL     1      43.920 -15.610   6.272  1.00  0.00     0.014 A 
HETATM    7  C   UNL     1      44.104 -16.939   5.889  1.00  0.00     0.008 A 
ENDROOT
BRANCH   3   8
HETATM    8  C   UNL     1      42.969 -16.805   2.232  1.00  0.00     0.163 C 
BRANCH   8   9
HETATM    9  N   UNL     1      42.744 -15.649   1.401  1.00  0.00    -0.339 N 
HETATM   10  C   UNL     1      41.453 -15.280   1.125  1.00  0.00     0.316 C 
HETATM   11  N   UNL     1      41.400 -14.292   0.177  1.00  0.00    -0.339 N 
HETATM   12  O   UNL     1      40.469 -15.781   1.656  1.00  0.00    -0.247 OA
HETATM   13  H   UNL     1      42.237 -13.733   0.089  1.00  0.00     0.164 HD
HETATM   14  H   UNL     1      43.416 -15.482   0.667  1.00  0.00     0.164 HD
BRANCH  11  15
HETATM   15  C   UNL     1      40.132 -13.658  -0.172  1.00  0.00     0.086 C 
HETATM   16  C   UNL     1      40.322 -12.153  -0.416  1.00  0.00     0.025 C 
HETATM   17  C   UNL     1      41.051 -11.859  -1.727  1.00  0.00     0.002 C 
HETATM   18  C   UNL     1      40.372 -12.538  -2.913  1.00  0.00     0.000 C 
HETATM   19  C   UNL     1      40.216 -14.039  -2.693  1.00  0.00     0.002 C 
HETATM   20  C   UNL     1      39.492 -14.345  -1.384  1.00  0.00     0.025 C 
ENDBRANCH  11  15
ENDBRANCH   8   9
ENDBRANCH   3   8
BRANCH   5  21
HETATM   21  C   UNL     1      43.188 -13.277   5.830  1.00  0.00     0.098 C 
HETATM   22  N   UNL     1      44.246 -12.646   6.249  1.00  0.00    -0.169 NA
HETATM   23  N   UNL     1      44.129 -11.380   6.752  1.00  0.00    -0.238 N 
HETATM   24  C   UNL     1      45.358 -10.730   7.164  1.00  0.00     0.183 C 
HETATM   25  C   UNL     1      42.921 -10.729   6.964  1.00  0.00     0.274 C 
HETATM   26  O   UNL     1      42.818  -9.632   7.508  1.00  0.00    -0.266 OA
HETATM   27  C   UNL     1      41.719 -11.407   6.450  1.00  0.00     0.046 A 
HETATM   28  C   UNL     1      41.843 -12.643   5.820  1.00  0.00     0.011 A 
HETATM   29  C   UNL     1      40.473 -10.771   6.538  1.00  0.00     0.018 A 
HETATM   30  C   UNL     1      40.718 -13.196   5.191  1.00  0.00     0.015 A 
HETATM   31  C   UNL     1      39.474 -12.563   5.278  1.00  0.00     0.001 A 
HETATM   32  C   UNL     1      39.347 -11.359   5.965  1.00  0.00     0.001 A 
ENDBRANCH   5  21
TORSDOF 4
ENDMDL
MODEL 3
REMARK VINA RESULT:      -9.1      2.505      7.659
REMARK  4 active torsions:
REMARK  status: ('A' for Active; 'I' for Inactive)
REMARK    1  A    between atoms: C_3  and  C_4 
REMARK    2  A    between atoms: C_4  and  N_5 
REMARK       I    between atoms: N_5  and  C_6 
REMARK       I    between atoms: C_6  and  N_7 
REMARK    3  A    between atoms: N_7  and  C_8 
REMARK    4  A    between atoms: C_16  and  C_17 
ROOT
HETATM    1  C   UNL     1      43.053 -17.253   6.773  1.00  0.00     0.049 C 
HETATM    2  C   UNL     1      42.370 -16.311   5.817  1.00  0.00    -0.054 A 
HETATM    3  C   UNL     1      42.811 -14.986   5.615  1.00  0.00    -0.034 A 
HETATM    4  C   UNL     1      42.179 -14.195   4.635  1.00  0.00     0.023 A 
HETATM    5  C   UNL     1      41.070 -14.672   3.926  1.00  0.00    -0.004 A 
HETATM    6  C   UNL     1      40.645 -15.987   4.127  1.00  0.00     0.014 A 
HETATM    7  C   UNL     1      41.298 -16.802   5.053  1.00  0.00     0.008 A 
ENDROOT
BRANCH   3   8
HETATM    8  C   UNL     1      43.919 -14.374   6.437  1.00  0.00     0.163 C 
BRANCH   8   9
HETATM    9  N   UNL     1      43.448 -13.315   7.294  1.00  0.00    -0.339 N 
HETATM   10  C   UNL     1      44.093 -12.106   7.259  1.00  0.00     0.316 C 
HETATM   11  N   UNL     1      43.660 -11.272   8.256  1.00  0.00    -0.339 N 
HETATM   12  O   UNL     1      44.957 -11.814   6.441  1.00  0.00    -0.247 OA
HETATM   13  H   UNL     1      42.738 -11.472   8.616  1.00  0.00     0.164 HD
HETATM   14  H   UNL     1      43.077 -13.591   8.190  1.00  0.00     0.164 HD
BRANCH  11  15
HETATM   15  C   UNL     1      44.119  -9.887   8.325  1.00  0.00     0.086 C 
HETATM   16  C   UNL     1      43.002  -8.965   8.837  1.00  0.00     0.025 C 
HETATM   17  C   UNL     1      42.728  -9.151  10.329  1.00  0.00     0.002 C 
HETATM   18  C   UNL     1      44.000  -9.004  11.159  1.00  0.00     0.000 C 
HETATM   19  C   UNL     1      45.100  -9.945  10.678  1.00  0.00     0.002 C 
HETATM   20  C   UNL     1      45.380  -9.771   9.187  1.00  0.00     0.025 C 
ENDBRANCH  11  15
ENDBRANCH   8   9
ENDBRANCH   3   8
BRANCH   5  21
HETATM   21  C   UNL     1      40.364 -13.845   2.898  1.00  0.00     0.098 C 
HETATM   22  N   UNL     1      40.352 -14.324   1.688  1.00  0.00    -0.169 NA
HETATM   23  N   UNL     1      39.785 -13.602   0.675  1.00  0.00    -0.238 N 
HETATM   24  C   UNL     1      39.778 -14.219  -0.636  1.00  0.00     0.183 C 
HETATM   25  C   UNL     1      39.303 -12.307   0.811  1.00  0.00     0.274 C 
HETATM   26  O   UNL     1      38.886 -11.627  -0.124  1.00  0.00    -0.266 OA
HETATM   27  C   UNL     1      39.263 -11.769   2.182  1.00  0.00     0.046 A 
HETATM   28  C   UNL     1      39.721 -12.549   3.240  1.00  0.00     0.011 A 
HETATM   29  C   UNL     1      38.701 -10.506   2.415  1.00  0.00     0.018 A 
HETATM   30  C   UNL     1      39.524 -12.092   4.551  1.00  0.00     0.015 A 
HETATM   31  C   UNL     1      38.964 -10.832   4.786  1.00  0.00     0.001 A 
HETATM   32  C   UNL     1      38.567 -10.031   3.718  1.00  0.00     0.001 A 
ENDBRANCH   5  21
TORSDOF 4
ENDMDL
MODEL 4
REMARK VINA RESULT:      -8.9      2.576      7.799
REMARK  4 active torsions:
REMARK  status: ('A' for Active; 'I' for Inactive)
REMARK    1  A    between atoms: C_3  and  C_4 
REMARK    2  A    between atoms: C_4  and  N_5 
REMARK       I    between atoms: N_5  and  C_6 
REMARK       I    between atoms: C_6  and  N_7 
REMARK    3  A    between atoms: N_7  and  C_8 
REMARK    4  A    between atoms: C_16  and  C_17 
ROOT
HETATM    1  C   UNL     1      43.012 -17.359   5.744  1.00  0.00     0.049 C 
HETATM    2  C   UNL     1      42.265 -16.195   5.147  1.00  0.00    -0.054 A 
HETATM    3  C   UNL     1      42.605 -14.854   5.424  1.00  0.00    -0.034 A 
HETATM    4  C   UNL     1      41.921 -13.820   4.754  1.00  0.00     0.023 A 
HETATM    5  C   UNL     1      40.856 -14.101   3.890  1.00  0.00    -0.004 A 
HETATM    6  C   UNL     1      40.531 -15.431   3.615  1.00  0.00     0.014 A 
HETATM    7  C   UNL     1      41.239 -16.467   4.227  1.00  0.00     0.008 A 
ENDROOT
BRANCH   3   8
HETATM    8  C   UNL     1      43.659 -14.487   6.441  1.00  0.00     0.163 C 
BRANCH   8   9
HETATM    9  N   UNL     1      43.270 -13.362   7.253  1.00  0.00    -0.339 N 
HETATM   10  C   UNL     1      44.038 -12.227   7.214  1.00  0.00     0.316 C 
HETATM   11  N   UNL     1      43.658 -11.325   8.173  1.00  0.00    -0.339 N 
HETATM   12  O   UNL     1      44.956 -12.048   6.423  1.00  0.00    -0.247 OA
HETATM   13  H   UNL     1      42.709 -11.419   8.503  1.00  0.00     0.164 HD
HETATM   14  H   UNL     1      42.841 -13.572   8.142  1.00  0.00     0.164 HD
BRANCH  11  15
HETATM   15  C   UNL     1      44.256  -9.993   8.226  1.00  0.00     0.086 C 
HETATM   16  C   UNL     1      43.219  -8.945   8.658  1.00  0.00     0.025 C 
HETATM   17  C   UNL     1      42.860  -9.053  10.141  1.00  0.00     0.002 C 
HETATM   18  C   UNL     1      44.103  -9.012  11.026  1.00  0.00     0.000 C 
HETATM   19  C   UNL     1      45.119 -10.076  10.625  1.00  0.00     0.002 C 
HETATM   20  C   UNL     1      45.482  -9.980   9.145  1.00  0.00     0.025 C 
ENDBRANCH  11  15
ENDBRANCH   8   9
ENDBRANCH   3   8
BRANCH   5  21
HETATM   21  C   UNL     1      40.095 -13.022   3.185  1.00  0.00     0.098 C 
HETATM   22  N   UNL     1      39.674 -12.041   3.927  1.00  0.00    -0.169 NA
HETATM   23  N   UNL     1      38.915 -11.047   3.376  1.00  0.00    -0.238 N 
HETATM   24  C   UNL     1      38.516  -9.970   4.259  1.00  0.00     0.183 C 
HETATM   25  C   UNL     1      38.446 -11.053   2.069  1.00  0.00     0.274 C 
HETATM   26  O   UNL     1      37.681 -10.207   1.609  1.00  0.00    -0.266 OA
HETATM   27  C   UNL     1      38.953 -12.130   1.201  1.00  0.00     0.046 A 
HETATM   28  C   UNL     1      39.831 -13.077   1.722  1.00  0.00     0.011 A 
HETATM   29  C   UNL     1      38.602 -12.149  -0.156  1.00  0.00     0.018 A 
HETATM   30  C   UNL     1      40.433 -13.992   0.848  1.00  0.00     0.015 A 
HETATM   31  C   UNL     1      40.085 -14.015  -0.506  1.00  0.00     0.001 A 
HETATM   32  C   UNL     1      39.157 -13.104  -1.006  1.00  0.00     0.001 A 
ENDBRANCH   5  21
TORSDOF 4
ENDMDL
MODEL 5
REMARK VINA RESULT:      -8.9      3.156      8.939
REMARK  4 active torsions:
REMARK  status: ('A' for Active; 'I' for Inactive)
REMARK    1  A    between atoms: C_3  and  C_4 
REMARK    2  A    between atoms: C_4  and  N_5 
REMARK       I    between atoms: N_5  and  C_6 
REMARK       I    between atoms: C_6  and  N_7 
REMARK    3  A    between atoms: N_7  and  C_8 
REMARK    4  A    between atoms: C_16  and  C_17 
ROOT
HETATM    1  C   UNL     1      38.937  -9.729   5.338  1.00  0.00     0.049 C 
HETATM    2  C   UNL     1      39.846 -10.906   5.095  1.00  0.00    -0.054 A 
HETATM    3  C   UNL     1      41.181 -10.940   5.550  1.00  0.00    -0.034 A 
HETATM    4  C   UNL     1      41.939 -12.113   5.367  1.00  0.00     0.023 A 
HETATM    5  C   UNL     1      41.417 -13.208   4.667  1.00  0.00    -0.004 A 
HETATM    6  C   UNL     1      40.092 -13.169   4.227  1.00  0.00     0.014 A 
HETATM    7  C   UNL     1      39.311 -12.035   4.452  1.00  0.00     0.008 A 
ENDROOT
BRANCH   3   8
HETATM    8  C   UNL     1      41.837  -9.745   6.200  1.00  0.00     0.163 C 
BRANCH   8   9
HETATM    9  N   UNL     1      41.772  -9.799   7.639  1.00  0.00    -0.339 N 
HETATM   10  C   UNL     1      42.945  -9.837   8.349  1.00  0.00     0.316 C 
HETATM   11  N   UNL     1      42.724 -10.080   9.679  1.00  0.00    -0.339 N 
HETATM   12  O   UNL     1      44.052  -9.681   7.850  1.00  0.00    -0.247 OA
HETATM   13  H   UNL     1      41.803  -9.836  10.016  1.00  0.00     0.164 HD
HETATM   14  H   UNL     1      40.999 -10.311   8.038  1.00  0.00     0.164 HD
BRANCH  11  15
HETATM   15  C   UNL     1      43.822 -10.032  10.640  1.00  0.00     0.086 C 
HETATM   16  C   UNL     1      44.169  -8.580  11.003  1.00  0.00     0.025 C 
HETATM   17  C   UNL     1      43.108  -7.929  11.891  1.00  0.00     0.002 C 
HETATM   18  C   UNL     1      42.824  -8.766  13.135  1.00  0.00     0.000 C 
HETATM   19  C   UNL     1      42.442 -10.198  12.779  1.00  0.00     0.002 C 
HETATM   20  C   UNL     1      43.493 -10.858  11.889  1.00  0.00     0.025 C 
ENDBRANCH  11  15
ENDBRANCH   8   9
ENDBRANCH   3   8
BRANCH   5  21
HETATM   21  C   UNL     1      42.208 -14.457   4.436  1.00  0.00     0.098 C 
HETATM   22  N   UNL     1      42.400 -14.790   3.193  1.00  0.00    -0.169 NA
HETATM   23  N   UNL     1      43.056 -15.952   2.893  1.00  0.00    -0.238 N 
HETATM   24  C   UNL     1      43.262 -16.235   1.487  1.00  0.00     0.183 C 
HETATM   25  C   UNL     1      43.450 -16.894   3.834  1.00  0.00     0.274 C 
HETATM   26  O   UNL     1      43.949 -17.981   3.550  1.00  0.00    -0.266 OA
HETATM   27  C   UNL     1      43.286 -16.510   5.246  1.00  0.00     0.046 A 
HETATM   28  C   UNL     1      42.735 -15.272   5.563  1.00  0.00     0.011 A 
HETATM   29  C   UNL     1      43.749 -17.367   6.255  1.00  0.00     0.018 A 
HETATM   30  C   UNL     1      42.738 -14.853   6.901  1.00  0.00     0.015 A 
HETATM   31  C   UNL     1      43.199 -15.705   7.909  1.00  0.00     0.001 A 
HETATM   32  C   UNL     1      43.690 -16.968   7.589  1.00  0.00     0.001 A 
ENDBRANCH   5  21
TORSDOF 4
ENDMDL
MODEL 6
REMARK VINA RESULT:      -8.9      3.146      9.274
REMARK  4 active torsions:
REMARK  status: ('A' for Active; 'I' for Inactive)
REMARK    1  A    between atoms: C_3  and  C_4 
REMARK    2  A    between atoms: C_4  and  N_5 
REMARK       I    between atoms: N_5  and  C_6 
REMARK       I    between atoms: C_6  and  N_7 
REMARK    3  A    between atoms: N_7  and  C_8 
REMARK    4  A    between atoms: C_16  and  C_17 
ROOT
HETATM    1  C   UNL     1      39.009  -9.712   5.697  1.00  0.00     0.049 C 
HETATM    2  C   UNL     1      39.874 -10.935   5.536  1.00  0.00    -0.054 A 
HETATM    3  C   UNL     1      41.206 -10.987   5.998  1.00  0.00    -0.034 A 
HETATM    4  C   UNL     1      41.921 -12.197   5.897  1.00  0.00     0.023 A 
HETATM    5  C   UNL     1      41.361 -13.316   5.269  1.00  0.00    -0.004 A 
HETATM    6  C   UNL     1      40.040 -13.258   4.822  1.00  0.00     0.014 A 
HETATM    7  C   UNL     1      39.300 -12.084   4.968  1.00  0.00     0.008 A 
ENDROOT
BRANCH   3   8
HETATM    8  C   UNL     1      41.905  -9.777   6.570  1.00  0.00     0.163 C 
BRANCH   8   9
HETATM    9  N   UNL     1      41.732  -9.666   7.997  1.00  0.00    -0.339 N 
HETATM   10  C   UNL     1      42.816  -9.880   8.809  1.00  0.00     0.316 C 
HETATM   11  N   UNL     1      42.457  -9.932  10.130  1.00  0.00    -0.339 N 
HETATM   12  O   UNL     1      43.962 -10.017   8.399  1.00  0.00    -0.247 OA
HETATM   13  H   UNL     1      41.592  -9.464  10.361  1.00  0.00     0.164 HD
HETATM   14  H   UNL     1      40.840  -9.958   8.368  1.00  0.00     0.164 HD
BRANCH  11  15
HETATM   15  C   UNL     1      43.471 -10.020  11.178  1.00  0.00     0.086 C 
HETATM   16  C   UNL     1      44.040  -8.632  11.507  1.00  0.00     0.025 C 
HETATM   17  C   UNL     1      43.047  -7.759  12.275  1.00  0.00     0.002 C 
HETATM   18  C   UNL     1      42.526  -8.463  13.524  1.00  0.00     0.000 C 
HETATM   19  C   UNL     1      41.925  -9.826  13.198  1.00  0.00     0.002 C 
HETATM   20  C   UNL     1      42.908 -10.706  12.427  1.00  0.00     0.025 C 
ENDBRANCH  11  15
ENDBRANCH   8   9
ENDBRANCH   3   8
BRANCH   5  21
HETATM   21  C   UNL     1      42.106 -14.605   5.124  1.00  0.00     0.098 C 
HETATM   22  N   UNL     1      42.504 -15.163   6.230  1.00  0.00    -0.169 NA
HETATM   23  N   UNL     1      43.248 -16.309   6.185  1.00  0.00    -0.238 N 
HETATM   24  C   UNL     1      43.621 -16.890   7.460  1.00  0.00     0.183 C 
HETATM   25  C   UNL     1      43.726 -16.888   5.017  1.00  0.00     0.274 C 
HETATM   26  O   UNL     1      44.477 -17.861   4.989  1.00  0.00    -0.266 OA
HETATM   27  C   UNL     1      43.244 -16.299   3.756  1.00  0.00     0.046 A 
HETATM   28  C   UNL     1      42.381 -15.207   3.792  1.00  0.00     0.011 A 
HETATM   29  C   UNL     1      43.604 -16.887   2.535  1.00  0.00     0.018 A 
HETATM   30  C   UNL     1      41.802 -14.764   2.595  1.00  0.00     0.015 A 
HETATM   31  C   UNL     1      42.159 -15.348   1.376  1.00  0.00     0.001 A 
HETATM   32  C   UNL     1      43.073 -16.399   1.343  1.00  0.00     0.001 A 
ENDBRANCH   5  21
TORSDOF 4
ENDMDL
MODEL 7
REMARK VINA RESULT:      -8.8      3.649      9.672
REMARK  4 active torsions:
REMARK  status: ('A' for Active; 'I' for Inactive)
REMARK    1  A    between atoms: C_3  and  C_4 
REMARK    2  A    between atoms: C_4  and  N_5 
REMARK       I    between atoms: N_5  and  C_6 
REMARK       I    between atoms: C_6  and  N_7 
REMARK    3  A    between atoms: N_7  and  C_8 
REMARK    4  A    between atoms: C_16  and  C_17 
ROOT
HETATM    1  C   UNL     1      44.919  -9.049   8.450  1.00  0.00     0.049 C 
HETATM    2  C   UNL     1      44.428 -10.227   7.649  1.00  0.00    -0.054 A 
HETATM    3  C   UNL     1      43.082 -10.364   7.251  1.00  0.00    -0.034 A 
HETATM    4  C   UNL     1      42.718 -11.444   6.423  1.00  0.00     0.023 A 
HETATM    5  C   UNL     1      43.650 -12.426   6.065  1.00  0.00    -0.004 A 
HETATM    6  C   UNL     1      44.982 -12.278   6.457  1.00  0.00     0.014 A 
HETATM    7  C   UNL     1      45.369 -11.182   7.229  1.00  0.00     0.008 A 
ENDROOT
BRANCH   3   8
HETATM    8  C   UNL     1      42.008  -9.406   7.708  1.00  0.00     0.163 C 
BRANCH   8   9
HETATM    9  N   UNL     1      41.748  -9.508   9.123  1.00  0.00    -0.339 N 
HETATM   10  C   UNL     1      41.482  -8.362   9.825  1.00  0.00     0.316 C 
HETATM   11  N   UNL     1      41.448  -8.592  11.176  1.00  0.00    -0.339 N 
HETATM   12  O   UNL     1      41.305  -7.266   9.307  1.00  0.00    -0.247 OA
HETATM   13  H   UNL     1      41.252  -9.545  11.447  1.00  0.00     0.164 HD
HETATM   14  H   UNL     1      42.251 -10.225   9.624  1.00  0.00     0.164 HD
BRANCH  11  15
HETATM   15  C   UNL     1      41.052  -7.537  12.105  1.00  0.00     0.086 C 
HETATM   16  C   UNL     1      40.197  -8.107  13.248  1.00  0.00     0.025 C 
HETATM   17  C   UNL     1      41.019  -8.934  14.236  1.00  0.00     0.002 C 
HETATM   18  C   UNL     1      42.216  -8.152  14.768  1.00  0.00     0.000 C 
HETATM   19  C   UNL     1      43.089  -7.617  13.638  1.00  0.00     0.002 C 
HETATM   20  C   UNL     1      42.278  -6.791  12.641  1.00  0.00     0.025 C 
ENDBRANCH  11  15
ENDBRANCH   8   9
ENDBRANCH   3   8
BRANCH   5  21
HETATM   21  C   UNL     1      43.286 -13.597   5.208  1.00  0.00     0.098 C 
HETATM   22  N   UNL     1      42.945 -13.325   3.982  1.00  0.00    -0.169 NA
HETATM   23  N   UNL     1      42.535 -14.330   3.151  1.00  0.00    -0.238 N 
HETATM   24  C   UNL     1      42.208 -13.953   1.790  1.00  0.00     0.183 C 
HETATM   25  C   UNL     1      42.339 -15.646   3.549  1.00  0.00     0.274 C 
HETATM   26  O   UNL     1      41.875 -16.522   2.823  1.00  0.00    -0.266 OA
HETATM   27  C   UNL     1      42.767 -15.981   4.918  1.00  0.00     0.046 A 
HETATM   28  C   UNL     1      43.306 -14.989   5.732  1.00  0.00     0.011 A 
HETATM   29  C   UNL     1      42.690 -17.309   5.363  1.00  0.00     0.018 A 
HETATM   30  C   UNL     1      43.860 -15.355   6.967  1.00  0.00     0.015 A 
HETATM   31  C   UNL     1      43.784 -16.678   7.413  1.00  0.00     0.001 A 
HETATM   32  C   UNL     1      43.186 -17.653   6.619  1.00  0.00     0.001 A 
ENDBRANCH   5  21
TORSDOF 4
ENDMDL
MODEL 8
REMARK VINA RESULT:      -8.8      3.292      9.153
REMARK  4 active torsions:
REMARK  status: ('A' for Active; 'I' for Inactive)
REMARK    1  A    between atoms: C_3  and  C_4 
REMARK    2  A    between atoms: C_4  and  N_5 
REMARK       I    between atoms: N_5  and  C_6 
REMARK       I    between atoms: C_6  and  N_7 
REMARK    3  A    between atoms: N_7  and  C_8 
REMARK    4  A    between atoms: C_16  and  C_17 
ROOT
HETATM    1  C   UNL     1      40.611  -8.698   5.184  1.00  0.00     0.049 C 
HETATM    2  C   UNL     1      41.075 -10.130   5.244  1.00  0.00    -0.054 A 
HETATM    3  C   UNL     1      40.342 -11.136   5.908  1.00  0.00    -0.034 A 
HETATM    4  C   UNL     1      40.791 -12.470   5.841  1.00  0.00     0.023 A 
HETATM    5  C   UNL     1      41.994 -12.795   5.203  1.00  0.00    -0.004 A 
HETATM    6  C   UNL     1      42.709 -11.794   4.542  1.00  0.00     0.014 A 
HETATM    7  C   UNL     1      42.246 -10.478   4.551  1.00  0.00     0.008 A 
ENDROOT
BRANCH   3   8
HETATM    8  C   UNL     1      39.105 -10.827   6.717  1.00  0.00     0.163 C 
BRANCH   8   9
HETATM    9  N   UNL     1      39.352 -10.874   8.137  1.00  0.00    -0.339 N 
HETATM   10  C   UNL     1      39.391  -9.695   8.836  1.00  0.00     0.316 C 
HETATM   11  N   UNL     1      39.822  -9.884  10.123  1.00  0.00    -0.339 N 
HETATM   12  O   UNL     1      39.085  -8.607   8.363  1.00  0.00    -0.247 OA
HETATM   13  H   UNL     1      39.697 -10.817  10.488  1.00  0.00     0.164 HD
HETATM   14  H   UNL     1      39.970 -11.601   8.464  1.00  0.00     0.164 HD
BRANCH  11  15
HETATM   15  C   UNL     1      39.815  -8.783  11.083  1.00  0.00     0.086 C 
HETATM   16  C   UNL     1      39.352  -9.267  12.466  1.00  0.00     0.025 C 
HETATM   17  C   UNL     1      40.403 -10.127  13.168  1.00  0.00     0.002 C 
HETATM   18  C   UNL     1      41.752  -9.418  13.244  1.00  0.00     0.000 C 
HETATM   19  C   UNL     1      42.234  -8.970  11.869  1.00  0.00     0.002 C 
HETATM   20  C   UNL     1      41.191  -8.112  11.157  1.00  0.00     0.025 C 
ENDBRANCH  11  15
ENDBRANCH   8   9
ENDBRANCH   3   8
BRANCH   5  21
HETATM   21  C   UNL     1      42.509 -14.199   5.138  1.00  0.00     0.098 C 
HETATM   22  N   UNL     1      42.866 -14.730   6.271  1.00  0.00    -0.169 NA
HETATM   23  N   UNL     1      43.408 -15.985   6.294  1.00  0.00    -0.238 N 
HETATM   24  C   UNL     1      43.746 -16.521   7.597  1.00  0.00     0.183 C 
HETATM   25  C   UNL     1      43.723 -16.723   5.161  1.00  0.00     0.274 C 
HETATM   26  O   UNL     1      44.302 -17.807   5.186  1.00  0.00    -0.266 OA
HETATM   27  C   UNL     1      43.280 -16.159   3.874  1.00  0.00     0.046 A 
HETATM   28  C   UNL     1      42.612 -14.938   3.852  1.00  0.00     0.011 A 
HETATM   29  C   UNL     1      43.476 -16.890   2.694  1.00  0.00     0.018 A 
HETATM   30  C   UNL     1      42.052 -14.496   2.645  1.00  0.00     0.015 A 
HETATM   31  C   UNL     1      42.245 -15.223   1.466  1.00  0.00     0.001 A 
HETATM   32  C   UNL     1      42.971 -16.411   1.486  1.00  0.00     0.001 A 
ENDBRANCH   5  21
TORSDOF 4
ENDMDL
MODEL 9
REMARK VINA RESULT:      -8.7      3.291      8.909
REMARK  4 active torsions:
REMARK  status: ('A' for Active; 'I' for Inactive)
REMARK    1  A    between atoms: C_3  and  C_4 
REMARK    2  A    between atoms: C_4  and  N_5 
REMARK       I    between atoms: N_5  and  C_6 
REMARK       I    between atoms: C_6  and  N_7 
REMARK    3  A    between atoms: N_7  and  C_8 
REMARK    4  A    between atoms: C_16  and  C_17 
ROOT
HETATM    1  C   UNL     1      40.476  -8.527   5.186  1.00  0.00     0.049 C 
HETATM    2  C   UNL     1      40.990  -9.938   5.068  1.00  0.00    -0.054 A 
HETATM    3  C   UNL     1      40.329 -11.037   5.657  1.00  0.00    -0.034 A 
HETATM    4  C   UNL     1      40.818 -12.338   5.423  1.00  0.00     0.023 A 
HETATM    5  C   UNL     1      41.993 -12.546   4.691  1.00  0.00    -0.004 A 
HETATM    6  C   UNL     1      42.636 -11.454   4.105  1.00  0.00     0.014 A 
HETATM    7  C   UNL     1      42.131 -10.165   4.280  1.00  0.00     0.008 A 
ENDROOT
BRANCH   3   8
HETATM    8  C   UNL     1      39.131 -10.864   6.559  1.00  0.00     0.163 C 
BRANCH   8   9
HETATM    9  N   UNL     1      39.485 -10.902   7.956  1.00  0.00    -0.339 N 
HETATM   10  C   UNL     1      39.381  -9.749   8.691  1.00  0.00     0.316 C 
HETATM   11  N   UNL     1      39.931  -9.893   9.938  1.00  0.00    -0.339 N 
HETATM   12  O   UNL     1      38.869  -8.716   8.277  1.00  0.00    -0.247 OA
HETATM   13  H   UNL     1      39.987 -10.842  10.278  1.00  0.00     0.164 HD
HETATM   14  H   UNL     1      40.236 -11.523   8.215  1.00  0.00     0.164 HD
BRANCH  11  15
HETATM   15  C   UNL     1      39.814  -8.831  10.933  1.00  0.00     0.086 C 
HETATM   16  C   UNL     1      39.580  -9.417  12.334  1.00  0.00     0.025 C 
HETATM   17  C   UNL     1      40.831 -10.081  12.908  1.00  0.00     0.002 C 
HETATM   18  C   UNL     1      42.030  -9.136  12.888  1.00  0.00     0.000 C 
HETATM   19  C   UNL     1      42.290  -8.581  11.492  1.00  0.00     0.002 C 
HETATM   20  C   UNL     1      41.045  -7.918  10.907  1.00  0.00     0.025 C 
ENDBRANCH  11  15
ENDBRANCH   8   9
ENDBRANCH   3   8
BRANCH   5  21
HETATM   21  C   UNL     1      42.550 -13.914   4.448  1.00  0.00     0.098 C 
HETATM   22  N   UNL     1      42.729 -14.246   3.203  1.00  0.00    -0.169 NA
HETATM   23  N   UNL     1      43.172 -15.501   2.890  1.00  0.00    -0.238 N 
HETATM   24  C   UNL     1      43.381 -15.782   1.483  1.00  0.00     0.183 C 
HETATM   25  C   UNL     1      43.347 -16.523   3.813  1.00  0.00     0.274 C 
HETATM   26  O   UNL     1      43.649 -17.676   3.512  1.00  0.00    -0.266 OA
HETATM   27  C   UNL     1      43.197 -16.151   5.230  1.00  0.00     0.046 A 
HETATM   28  C   UNL     1      42.871 -14.840   5.566  1.00  0.00     0.011 A 
HETATM   29  C   UNL     1      43.453 -17.103   6.227  1.00  0.00     0.018 A 
HETATM   30  C   UNL     1      42.896 -14.463   6.916  1.00  0.00     0.015 A 
HETATM   31  C   UNL     1      43.150 -15.411   7.913  1.00  0.00     0.001 A 
HETATM   32  C   UNL     1      43.413 -16.735   7.570  1.00  0.00     0.001 A 
ENDBRANCH   5  21
TORSDOF 4
ENDMDL
MODEL 10
REMARK VINA RESULT:      -8.5      2.867      5.615
REMARK  4 active torsions:
REMARK  status: ('A' for Active; 'I' for Inactive)
REMARK    1  A    between atoms: C_3  and  C_4 
REMARK    2  A    between atoms: C_4  and  N_5 
REMARK       I    between atoms: N_5  and  C_6 
REMARK       I    between atoms: C_6  and  N_7 
REMARK    3  A    between atoms: N_7  and  C_8 
REMARK    4  A    between atoms: C_16  and  C_17 
ROOT
HETATM    1  C   UNL     1      38.762  -9.490   4.823  1.00  0.00     0.049 C 
HETATM    2  C   UNL     1      39.538 -10.780   4.901  1.00  0.00    -0.054 A 
HETATM    3  C   UNL     1      40.739 -10.986   4.191  1.00  0.00    -0.034 A 
HETATM    4  C   UNL     1      41.456 -12.183   4.389  1.00  0.00     0.023 A 
HETATM    5  C   UNL     1      40.952 -13.200   5.208  1.00  0.00    -0.004 A 
HETATM    6  C   UNL     1      39.767 -12.984   5.914  1.00  0.00     0.014 A 
HETATM    7  C   UNL     1      39.075 -11.780   5.772  1.00  0.00     0.008 A 
ENDROOT
BRANCH   3   8
HETATM    8  C   UNL     1      41.267  -9.979   3.198  1.00  0.00     0.163 C 
BRANCH   8   9
HETATM    9  N   UNL     1      41.438 -10.542   1.882  1.00  0.00    -0.339 N 
HETATM   10  C   UNL     1      40.338 -10.660   1.071  1.00  0.00     0.316 C 
HETATM   11  N   UNL     1      40.618 -11.382  -0.059  1.00  0.00    -0.339 N 
HETATM   12  O   UNL     1      39.241 -10.184   1.332  1.00  0.00    -0.247 OA
HETATM   13  H   UNL     1      41.592 -11.405  -0.327  1.00  0.00     0.164 HD
HETATM   14  H   UNL     1      42.135 -11.265   1.787  1.00  0.00     0.164 HD
BRANCH  11  15
HETATM   15  C   UNL     1      39.628 -11.519  -1.124  1.00  0.00     0.086 C 
HETATM   16  C   UNL     1      40.283 -11.366  -2.504  1.00  0.00     0.025 C 
HETATM   17  C   UNL     1      41.140 -12.574  -2.883  1.00  0.00     0.002 C 
HETATM   18  C   UNL     1      40.355 -13.878  -2.777  1.00  0.00     0.000 C 
HETATM   19  C   UNL     1      39.733 -14.053  -1.396  1.00  0.00     0.002 C 
HETATM   20  C   UNL     1      38.878 -12.850  -1.005  1.00  0.00     0.025 C 
ENDBRANCH  11  15
ENDBRANCH   8   9
ENDBRANCH   3   8
BRANCH   5  21
HETATM   21  C   UNL     1      41.680 -14.491   5.417  1.00  0.00     0.098 C 
HETATM   22  N   UNL     1      42.166 -14.687   6.607  1.00  0.00    -0.169 NA
HETATM   23  N   UNL     1      42.901 -15.811   6.866  1.00  0.00    -0.238 N 
HETATM   24  C   UNL     1      43.376 -15.976   8.225  1.00  0.00     0.183 C 
HETATM   25  C   UNL     1      43.279 -16.738   5.904  1.00  0.00     0.274 C 
HETATM   26  O   UNL     1      44.024 -17.691   6.123  1.00  0.00    -0.266 OA
HETATM   27  C   UNL     1      42.697 -16.557   4.563  1.00  0.00     0.046 A 
HETATM   28  C   UNL     1      41.843 -15.485   4.323  1.00  0.00     0.011 A 
HETATM   29  C   UNL     1      42.954 -17.506   3.562  1.00  0.00     0.018 A 
HETATM   30  C   UNL     1      41.168 -15.421   3.096  1.00  0.00     0.015 A 
HETATM   31  C   UNL     1      41.423 -16.364   2.096  1.00  0.00     0.001 A 
HETATM   32  C   UNL     1      42.328 -17.399   2.322  1.00  0.00     0.001 A 
ENDBRANCH   5  21
TORSDOF 4
ENDMDL
