MODEL 1
REMARK VINA RESULT:      -9.9      0.000      0.000
REMARK  7 active torsions:
REMARK  status: ('A' for Active; 'I' for Inactive)
REMARK    1  A    between atoms: C_2  and  C_3 
REMARK       I    between atoms: C_3  and  N_4 
REMARK    2  A    between atoms: N_7  and  C_8 
REMARK    3  A    between atoms: C_11  and  N_12 
REMARK    4  A    between atoms: N_12  and  C_13 
REMARK    5  A    between atoms: C_13  and  N_14 
REMARK       I    between atoms: N_14  and  C_15 
REMARK    6  A    between atoms: C_15  and  C_16 
REMARK    7  A    between atoms: C_18  and  C_19 
ROOT
HETATM    1  C   UNL     1      44.373 -10.705   7.762  1.00  0.00     0.179 C 
HETATM    2  S   UNL     1      46.046 -10.633   7.702  1.00  0.00    -0.040 SA
ENDROOT
BRANCH   1   3
HETATM    3  N   UNL     1      43.482  -9.696   8.038  1.00  0.00    -0.333 N 
HETATM    4  H   UNL     1      43.051  -9.270   7.219  1.00  0.00     0.168 HD
BRANCH   3   5
HETATM    5  C   UNL     1      42.973  -9.289   9.290  1.00  0.00     0.034 A 
HETATM    6  C   UNL     1      43.793  -8.994  10.373  1.00  0.00     0.032 A 
HETATM    7  C   UNL     1      43.242  -8.599  11.594  1.00  0.00     0.031 A 
HETATM    8  C   UNL     1      41.857  -8.504  11.794  1.00  0.00     0.030 A 
HETATM    9  C   UNL     1      41.050  -8.733  10.672  1.00  0.00     0.031 A 
HETATM   10  C   UNL     1      41.599  -9.105   9.430  1.00  0.00     0.032 A 
BRANCH   8  11
HETATM   11  N   UNL     1      41.366  -8.145  13.056  1.00  0.00    -0.378 N 
HETATM   12  C   UNL     1      40.619  -6.861  13.085  1.00  0.00     0.143 C 
HETATM   13  C   UNL     1      39.749  -6.781  14.346  1.00  0.00     0.145 C 
HETATM   14  N   UNL     1      40.493  -7.036  15.584  1.00  0.00    -0.349 N 
HETATM   15  C   UNL     1      39.918  -6.561  16.760  1.00  0.00     0.219 C 
HETATM   16  C   UNL     1      41.394  -8.199  15.540  1.00  0.00     0.145 C 
HETATM   17  O   UNL     1      38.952  -5.796  16.751  1.00  0.00    -0.273 OA
HETATM   18  C   UNL     1      42.227  -8.302  14.243  1.00  0.00     0.143 C 
BRANCH  15  19
HETATM   19  C   UNL     1      40.555  -7.009  18.066  1.00  0.00     0.098 C 
HETATM   20  C   UNL     1      39.709  -8.042  18.794  1.00  0.00     0.014 C 
ENDBRANCH  15  19
ENDBRANCH   8  11
ENDBRANCH   3   5
ENDBRANCH   1   3
BRANCH   1  21
HETATM   21  N   UNL     1      43.822 -11.941   7.516  1.00  0.00    -0.298 N 
HETATM   22  C   UNL     1      43.691 -12.650   6.330  1.00  0.00     0.281 C 
HETATM   23  O   UNL     1      43.729 -12.126   5.219  1.00  0.00    -0.265 OA
HETATM   24  H   UNL     1      43.661 -12.482   8.358  1.00  0.00     0.171 HD
BRANCH  22  25
HETATM   25  C   UNL     1      43.456 -14.060   6.567  1.00  0.00     0.144 A 
HETATM   26  O   UNL     1      43.632 -14.921   5.515  1.00  0.00    -0.304 OA
HETATM   27  C   UNL     1      43.317 -16.180   5.935  1.00  0.00     0.086 A 
HETATM   28  C   UNL     1      42.954 -16.133   7.267  1.00  0.00     0.041 A 
HETATM   29  C   UNL     1      43.047 -14.773   7.674  1.00  0.00     0.046 A 
BRANCH  27  30
HETATM   30  C   UNL     1      43.411 -17.224   4.917  1.00  0.00    -0.001 A 
HETATM   31  C   UNL     1      43.813 -18.525   5.256  1.00  0.00     0.038 A 
HETATM   32  C   UNL     1      43.928 -19.523   4.282  1.00  0.00     0.040 A 
HETATM   33 CL   UNL     1      44.439 -21.093   4.794  1.00  0.00    -0.084 Cl
HETATM   34  C   UNL     1      43.640 -19.247   2.940  1.00  0.00    -0.040 A 
HETATM   35  C   UNL     1      43.770 -20.294   1.869  1.00  0.00     0.050 C 
HETATM   36  C   UNL     1      43.236 -17.949   2.598  1.00  0.00     0.009 A 
HETATM   37  C   UNL     1      43.121 -16.952   3.575  1.00  0.00     0.015 A 
ENDBRANCH  27  30
ENDBRANCH  22  25
ENDBRANCH   1  21
TORSDOF 7
ENDMDL
MODEL 2
REMARK VINA RESULT:      -9.4      1.779      2.586
REMARK  7 active torsions:
REMARK  status: ('A' for Active; 'I' for Inactive)
REMARK    1  A    between atoms: C_2  and  C_3 
REMARK       I    between atoms: C_3  and  N_4 
REMARK    2  A    between atoms: N_7  and  C_8 
REMARK    3  A    between atoms: C_11  and  N_12 
REMARK    4  A    between atoms: N_12  and  C_13 
REMARK    5  A    between atoms: C_13  and  N_14 
REMARK       I    between atoms: N_14  and  C_15 
REMARK    6  A    between atoms: C_15  and  C_16 
REMARK    7  A    between atoms: C_18  and  C_19 
ROOT
HETATM    1  C   UNL     1      42.817  -9.796   8.329  1.00  0.00     0.179 C 
HETATM    2  S   UNL     1      42.690  -8.217   7.782  1.00  0.00    -0.040 SA
ENDROOT
BRANCH   1   3
HETATM    3  N   UNL     1      42.933 -10.248   9.621  1.00  0.00    -0.333 N 
HETATM    4  H   UNL     1      43.395 -11.150   9.718  1.00  0.00     0.168 HD
BRANCH   3   5
HETATM    5  C   UNL     1      42.649  -9.562  10.822  1.00  0.00     0.034 A 
HETATM    6  C   UNL     1      41.383  -9.549  11.396  1.00  0.00     0.032 A 
HETATM    7  C   UNL     1      41.150  -8.852  12.584  1.00  0.00     0.031 A 
HETATM    8  C   UNL     1      42.158  -8.125  13.235  1.00  0.00     0.030 A 
HETATM    9  C   UNL     1      43.443  -8.212  12.683  1.00  0.00     0.031 A 
HETATM   10  C   UNL     1      43.692  -8.933  11.500  1.00  0.00     0.032 A 
BRANCH   8  11
HETATM   11  N   UNL     1      41.849  -7.411  14.400  1.00  0.00    -0.378 N 
HETATM   12  C   UNL     1      41.182  -8.214  15.457  1.00  0.00     0.143 C 
HETATM   13  C   UNL     1      41.303  -7.509  16.814  1.00  0.00     0.145 C 
HETATM   14  N   UNL     1      40.852  -6.114  16.789  1.00  0.00    -0.349 N 
HETATM   15  C   UNL     1      40.510  -5.552  18.017  1.00  0.00     0.219 C 
HETATM   16  C   UNL     1      41.340  -5.323  15.648  1.00  0.00     0.145 C 
HETATM   17  O   UNL     1      40.395  -6.233  19.036  1.00  0.00    -0.273 OA
HETATM   18  C   UNL     1      41.266  -6.060  14.293  1.00  0.00     0.143 C 
BRANCH  15  19
HETATM   19  C   UNL     1      40.260  -4.053  18.039  1.00  0.00     0.098 C 
HETATM   20  C   UNL     1      38.862  -3.695  17.558  1.00  0.00     0.014 C 
ENDBRANCH  15  19
ENDBRANCH   8  11
ENDBRANCH   3   5
ENDBRANCH   1   3
BRANCH   1  21
HETATM   21  N   UNL     1      42.817 -10.764   7.352  1.00  0.00    -0.298 N 
HETATM   22  C   UNL     1      43.644 -11.865   7.174  1.00  0.00     0.281 C 
HETATM   23  O   UNL     1      44.762 -11.961   7.675  1.00  0.00    -0.265 OA
HETATM   24  H   UNL     1      41.972 -10.770   6.794  1.00  0.00     0.171 HD
BRANCH  22  25
HETATM   25  C   UNL     1      43.051 -12.850   6.293  1.00  0.00     0.144 A 
HETATM   26  O   UNL     1      43.453 -14.152   6.430  1.00  0.00    -0.304 OA
HETATM   27  C   UNL     1      42.815 -14.900   5.484  1.00  0.00     0.086 A 
HETATM   28  C   UNL     1      41.984 -14.078   4.746  1.00  0.00     0.041 A 
HETATM   29  C   UNL     1      42.132 -12.764   5.267  1.00  0.00     0.046 A 
BRANCH  27  30
HETATM   30  C   UNL     1      43.163 -16.319   5.462  1.00  0.00    -0.001 A 
HETATM   31  C   UNL     1      43.517 -16.956   4.263  1.00  0.00     0.038 A 
HETATM   32  C   UNL     1      43.829 -18.319   4.234  1.00  0.00     0.040 A 
HETATM   33 CL   UNL     1      44.245 -19.017   2.707  1.00  0.00    -0.084 Cl
HETATM   34  C   UNL     1      43.798 -19.084   5.405  1.00  0.00    -0.040 A 
HETATM   35  C   UNL     1      44.112 -20.554   5.402  1.00  0.00     0.050 C 
HETATM   36  C   UNL     1      43.447 -18.451   6.605  1.00  0.00     0.009 A 
HETATM   37  C   UNL     1      43.136 -17.085   6.633  1.00  0.00     0.015 A 
ENDBRANCH  27  30
ENDBRANCH  22  25
ENDBRANCH   1  21
TORSDOF 7
ENDMDL
MODEL 3
REMARK VINA RESULT:      -9.4      1.790      2.082
REMARK  7 active torsions:
REMARK  status: ('A' for Active; 'I' for Inactive)
REMARK    1  A    between atoms: C_2  and  C_3 
REMARK       I    between atoms: C_3  and  N_4 
REMARK    2  A    between atoms: N_7  and  C_8 
REMARK    3  A    between atoms: C_11  and  N_12 
REMARK    4  A    between atoms: N_12  and  C_13 
REMARK    5  A    between atoms: C_13  and  N_14 
REMARK       I    between atoms: N_14  and  C_15 
REMARK    6  A    between atoms: C_15  and  C_16 
REMARK    7  A    between atoms: C_18  and  C_19 
ROOT
HETATM    1  C   UNL     1      40.643 -10.764   5.858  1.00  0.00     0.179 C 
HETATM    2  S   UNL     1      39.160 -10.724   5.079  1.00  0.00    -0.040 SA
ENDROOT
BRANCH   1   3
HETATM    3  N   UNL     1      41.253  -9.772   6.589  1.00  0.00    -0.333 N 
HETATM    4  H   UNL     1      41.789  -9.104   6.038  1.00  0.00     0.168 HD
BRANCH   3   5
HETATM    5  C   UNL     1      41.102  -9.470   7.959  1.00  0.00     0.034 A 
HETATM    6  C   UNL     1      39.858  -9.353   8.568  1.00  0.00     0.032 A 
HETATM    7  C   UNL     1      39.760  -9.049   9.928  1.00  0.00     0.031 A 
HETATM    8  C   UNL     1      40.890  -8.828  10.729  1.00  0.00     0.030 A 
HETATM    9  C   UNL     1      42.135  -9.024  10.116  1.00  0.00     0.031 A 
HETATM   10  C   UNL     1      42.242  -9.357   8.752  1.00  0.00     0.032 A 
BRANCH   8  11
HETATM   11  N   UNL     1      40.723  -8.483  12.077  1.00  0.00    -0.378 N 
HETATM   12  C   UNL     1      40.237  -7.097  12.302  1.00  0.00     0.143 C 
HETATM   13  C   UNL     1      39.655  -6.963  13.715  1.00  0.00     0.145 C 
HETATM   14  N   UNL     1      40.566  -7.426  14.768  1.00  0.00    -0.349 N 
HETATM   15  C   UNL     1      40.322  -6.946  16.052  1.00  0.00     0.219 C 
HETATM   16  C   UNL     1      41.221  -8.716  14.500  1.00  0.00     0.145 C 
HETATM   17  O   UNL     1      39.524  -6.032  16.266  1.00  0.00    -0.273 OA
HETATM   18  C   UNL     1      41.755  -8.864  13.058  1.00  0.00     0.143 C 
BRANCH  15  19
HETATM   19  C   UNL     1      41.109  -7.585  17.184  1.00  0.00     0.098 C 
HETATM   20  C   UNL     1      40.221  -7.965  18.360  1.00  0.00     0.014 C 
ENDBRANCH  15  19
ENDBRANCH   8  11
ENDBRANCH   3   5
ENDBRANCH   1   3
BRANCH   1  21
HETATM   21  N   UNL     1      41.347 -11.939   5.737  1.00  0.00    -0.298 N 
HETATM   22  C   UNL     1      42.679 -12.164   5.419  1.00  0.00     0.281 C 
HETATM   23  O   UNL     1      43.383 -11.345   4.831  1.00  0.00    -0.265 OA
HETATM   24  H   UNL     1      40.858 -12.739   6.120  1.00  0.00     0.171 HD
BRANCH  22  25
HETATM   25  C   UNL     1      43.113 -13.488   5.815  1.00  0.00     0.144 A 
HETATM   26  O   UNL     1      43.110 -14.472   4.861  1.00  0.00    -0.304 OA
HETATM   27  C   UNL     1      43.505 -15.639   5.447  1.00  0.00     0.086 A 
HETATM   28  C   UNL     1      43.781 -15.402   6.780  1.00  0.00     0.041 A 
HETATM   29  C   UNL     1      43.533 -14.021   7.015  1.00  0.00     0.046 A 
BRANCH  27  30
HETATM   30  C   UNL     1      43.519 -16.809   4.573  1.00  0.00    -0.001 A 
HETATM   31  C   UNL     1      43.898 -18.069   5.061  1.00  0.00     0.038 A 
HETATM   32  C   UNL     1      43.935 -19.188   4.223  1.00  0.00     0.040 A 
HETATM   33 CL   UNL     1      44.424 -20.696   4.914  1.00  0.00    -0.084 Cl
HETATM   34  C   UNL     1      43.590 -19.079   2.871  1.00  0.00    -0.040 A 
HETATM   35  C   UNL     1      43.636 -20.260   1.942  1.00  0.00     0.050 C 
HETATM   36  C   UNL     1      43.208 -17.823   2.380  1.00  0.00     0.009 A 
HETATM   37  C   UNL     1      43.171 -16.703   3.221  1.00  0.00     0.015 A 
ENDBRANCH  27  30
ENDBRANCH  22  25
ENDBRANCH   1  21
TORSDOF 7
ENDMDL
MODEL 4
REMARK VINA RESULT:      -9.2      2.862      4.524
REMARK  7 active torsions:
REMARK  status: ('A' for Active; 'I' for Inactive)
REMARK    1  A    between atoms: C_2  and  C_3 
REMARK       I    between atoms: C_3  and  N_4 
REMARK    2  A    between atoms: N_7  and  C_8 
REMARK    3  A    between atoms: C_11  and  N_12 
REMARK    4  A    between atoms: N_12  and  C_13 
REMARK    5  A    between atoms: C_13  and  N_14 
REMARK       I    between atoms: N_14  and  C_15 
REMARK    6  A    between atoms: C_15  and  C_16 
REMARK    7  A    between atoms: C_18  and  C_19 
ROOT
HETATM    1  C   UNL     1      42.043  -9.553  10.636  1.00  0.00     0.179 C 
HETATM    2  S   UNL     1      40.512  -9.031  10.202  1.00  0.00    -0.040 SA
ENDROOT
BRANCH   1   3
HETATM    3  N   UNL     1      42.558  -9.741  11.896  1.00  0.00    -0.333 N 
HETATM    4  H   UNL     1      43.202 -10.525  11.982  1.00  0.00     0.168 HD
BRANCH   3   5
HETATM    5  C   UNL     1      42.441  -8.906  13.028  1.00  0.00     0.034 A 
HETATM    6  C   UNL     1      43.227  -7.774  13.209  1.00  0.00     0.032 A 
HETATM    7  C   UNL     1      43.076  -6.980  14.348  1.00  0.00     0.031 A 
HETATM    8  C   UNL     1      42.157  -7.291  15.361  1.00  0.00     0.030 A 
HETATM    9  C   UNL     1      41.323  -8.393  15.126  1.00  0.00     0.031 A 
HETATM   10  C   UNL     1      41.450  -9.182  13.968  1.00  0.00     0.032 A 
BRANCH   8  11
HETATM   11  N   UNL     1      42.085  -6.479  16.500  1.00  0.00    -0.378 N 
HETATM   12  C   UNL     1      41.789  -7.209  17.760  1.00  0.00     0.143 C 
HETATM   13  C   UNL     1      42.180  -6.354  18.972  1.00  0.00     0.145 C 
HETATM   14  N   UNL     1      41.604  -5.006  18.946  1.00  0.00    -0.349 N 
HETATM   15  C   UNL     1      41.531  -4.340  20.167  1.00  0.00     0.219 C 
HETATM   16  C   UNL     1      41.709  -4.310  17.653  1.00  0.00     0.145 C 
HETATM   17  O   UNL     1      41.743  -4.913  21.236  1.00  0.00    -0.273 OA
HETATM   18  C   UNL     1      41.366  -5.193  16.433  1.00  0.00     0.143 C 
BRANCH  15  19
HETATM   19  C   UNL     1      41.150  -2.869  20.124  1.00  0.00     0.098 C 
HETATM   20  C   UNL     1      42.208  -1.981  20.762  1.00  0.00     0.014 C 
ENDBRANCH  15  19
ENDBRANCH   8  11
ENDBRANCH   3   5
ENDBRANCH   1   3
BRANCH   1  21
HETATM   21  N   UNL     1      42.899  -9.815   9.593  1.00  0.00    -0.298 N 
HETATM   22  C   UNL     1      44.262 -10.081   9.589  1.00  0.00     0.281 C 
HETATM   23  O   UNL     1      45.016  -9.768  10.507  1.00  0.00    -0.265 OA
HETATM   24  H   UNL     1      42.420 -10.028   8.725  1.00  0.00     0.171 HD
BRANCH  22  25
HETATM   25  C   UNL     1      44.685 -10.717   8.358  1.00  0.00     0.144 A 
HETATM   26  O   UNL     1      43.859 -11.664   7.812  1.00  0.00    -0.304 OA
HETATM   27  C   UNL     1      44.460 -12.165   6.695  1.00  0.00     0.086 A 
HETATM   28  C   UNL     1      45.670 -11.525   6.510  1.00  0.00     0.041 A 
HETATM   29  C   UNL     1      45.814 -10.594   7.574  1.00  0.00     0.046 A 
BRANCH  27  30
HETATM   30  C   UNL     1      43.726 -13.225   6.007  1.00  0.00    -0.001 A 
HETATM   31  C   UNL     1      43.632 -14.511   6.558  1.00  0.00     0.038 A 
HETATM   32  C   UNL     1      42.950 -15.535   5.893  1.00  0.00     0.040 A 
HETATM   33 CL   UNL     1      42.896 -17.090   6.647  1.00  0.00    -0.084 Cl
HETATM   34  C   UNL     1      42.338 -15.299   4.656  1.00  0.00    -0.040 A 
HETATM   35  C   UNL     1      41.612 -16.383   3.910  1.00  0.00     0.050 C 
HETATM   36  C   UNL     1      42.428 -14.014   4.103  1.00  0.00     0.009 A 
HETATM   37  C   UNL     1      43.111 -12.990   4.772  1.00  0.00     0.015 A 
ENDBRANCH  27  30
ENDBRANCH  22  25
ENDBRANCH   1  21
TORSDOF 7
ENDMDL
MODEL 5
REMARK VINA RESULT:      -9.2      1.966      2.609
REMARK  7 active torsions:
REMARK  status: ('A' for Active; 'I' for Inactive)
REMARK    1  A    between atoms: C_2  and  C_3 
REMARK       I    between atoms: C_3  and  N_4 
REMARK    2  A    between atoms: N_7  and  C_8 
REMARK    3  A    between atoms: C_11  and  N_12 
REMARK    4  A    between atoms: N_12  and  C_13 
REMARK    5  A    between atoms: C_13  and  N_14 
REMARK       I    between atoms: N_14  and  C_15 
REMARK    6  A    between atoms: C_15  and  C_16 
REMARK    7  A    between atoms: C_18  and  C_19 
ROOT
HETATM    1  C   UNL     1      44.362 -10.820   8.200  1.00  0.00     0.179 C 
HETATM    2  S   UNL     1      45.780  -9.954   7.986  1.00  0.00    -0.040 SA
ENDROOT
BRANCH   1   3
HETATM    3  N   UNL     1      43.651 -11.026   9.357  1.00  0.00    -0.333 N 
HETATM    4  H   UNL     1      43.594 -11.998   9.656  1.00  0.00     0.168 HD
BRANCH   3   5
HETATM    5  C   UNL     1      43.138 -10.068  10.256  1.00  0.00     0.034 A 
HETATM    6  C   UNL     1      43.293 -10.174  11.634  1.00  0.00     0.032 A 
HETATM    7  C   UNL     1      42.764  -9.201  12.485  1.00  0.00     0.031 A 
HETATM    8  C   UNL     1      42.042  -8.098  12.003  1.00  0.00     0.030 A 
HETATM    9  C   UNL     1      41.960  -7.969  10.610  1.00  0.00     0.031 A 
HETATM   10  C   UNL     1      42.514  -8.932   9.745  1.00  0.00     0.032 A 
BRANCH   8  11
HETATM   11  N   UNL     1      41.498  -7.180  12.911  1.00  0.00    -0.378 N 
HETATM   12  C   UNL     1      42.426  -6.096  13.322  1.00  0.00     0.143 C 
HETATM   13  C   UNL     1      41.640  -4.922  13.919  1.00  0.00     0.145 C 
HETATM   14  N   UNL     1      40.720  -5.321  14.990  1.00  0.00    -0.349 N 
HETATM   15  C   UNL     1      40.315  -4.315  15.864  1.00  0.00     0.219 C 
HETATM   16  C   UNL     1      39.907  -6.513  14.699  1.00  0.00     0.145 C 
HETATM   17  O   UNL     1      40.847  -3.205  15.872  1.00  0.00    -0.273 OA
HETATM   18  C   UNL     1      40.695  -7.670  14.047  1.00  0.00     0.143 C 
BRANCH  15  19
HETATM   19  C   UNL     1      39.196  -4.659  16.834  1.00  0.00     0.098 C 
HETATM   20  C   UNL     1      38.109  -3.595  16.859  1.00  0.00     0.014 C 
ENDBRANCH  15  19
ENDBRANCH   8  11
ENDBRANCH   3   5
ENDBRANCH   1   3
BRANCH   1  21
HETATM   21  N   UNL     1      43.853 -11.414   7.068  1.00  0.00    -0.298 N 
HETATM   22  C   UNL     1      42.736 -11.096   6.309  1.00  0.00     0.281 C 
HETATM   23  O   UNL     1      41.793 -10.431   6.734  1.00  0.00    -0.265 OA
HETATM   24  H   UNL     1      44.500 -12.059   6.629  1.00  0.00     0.171 HD
BRANCH  22  25
HETATM   25  C   UNL     1      42.797 -11.683   4.985  1.00  0.00     0.144 A 
HETATM   26  O   UNL     1      42.857 -13.049   4.896  1.00  0.00    -0.304 OA
HETATM   27  C   UNL     1      42.954 -13.389   3.579  1.00  0.00     0.086 A 
HETATM   28  C   UNL     1      42.938 -12.238   2.815  1.00  0.00     0.041 A 
HETATM   29  C   UNL     1      42.834 -11.143   3.717  1.00  0.00     0.046 A 
BRANCH  27  30
HETATM   30  C   UNL     1      43.070 -14.819   3.305  1.00  0.00    -0.001 A 
HETATM   31  C   UNL     1      43.185 -15.747   4.351  1.00  0.00     0.038 A 
HETATM   32  C   UNL     1      43.318 -17.115   4.093  1.00  0.00     0.040 A 
HETATM   33 CL   UNL     1      43.463 -18.180   5.448  1.00  0.00    -0.084 Cl
HETATM   34  C   UNL     1      43.337 -17.596   2.779  1.00  0.00    -0.040 A 
HETATM   35  C   UNL     1      43.496 -19.058   2.470  1.00  0.00     0.050 C 
HETATM   36  C   UNL     1      43.221 -16.672   1.731  1.00  0.00     0.009 A 
HETATM   37  C   UNL     1      43.086 -15.302   1.991  1.00  0.00     0.015 A 
ENDBRANCH  27  30
ENDBRANCH  22  25
ENDBRANCH   1  21
TORSDOF 7
ENDMDL
MODEL 6
REMARK VINA RESULT:      -9.1      2.194      2.927
REMARK  7 active torsions:
REMARK  status: ('A' for Active; 'I' for Inactive)
REMARK    1  A    between atoms: C_2  and  C_3 
REMARK       I    between atoms: C_3  and  N_4 
REMARK    2  A    between atoms: N_7  and  C_8 
REMARK    3  A    between atoms: C_11  and  N_12 
REMARK    4  A    between atoms: N_12  and  C_13 
REMARK    5  A    between atoms: C_13  and  N_14 
REMARK       I    between atoms: N_14  and  C_15 
REMARK    6  A    between atoms: C_15  and  C_16 
REMARK    7  A    between atoms: C_18  and  C_19 
ROOT
HETATM    1  C   UNL     1      42.128 -10.271   4.836  1.00  0.00     0.179 C 
HETATM    2  S   UNL     1      41.235  -8.936   4.359  1.00  0.00    -0.040 SA
ENDROOT
BRANCH   1   3
HETATM    3  N   UNL     1      42.812 -10.469   6.011  1.00  0.00    -0.333 N 
HETATM    4  H   UNL     1      43.734 -10.886   5.903  1.00  0.00     0.168 HD
BRANCH   3   5
HETATM    5  C   UNL     1      42.476 -10.027   7.309  1.00  0.00     0.034 A 
HETATM    6  C   UNL     1      43.428  -9.828   8.302  1.00  0.00     0.032 A 
HETATM    7  C   UNL     1      43.047  -9.393   9.573  1.00  0.00     0.031 A 
HETATM    8  C   UNL     1      41.706  -9.161   9.914  1.00  0.00     0.030 A 
HETATM    9  C   UNL     1      40.770  -9.295   8.880  1.00  0.00     0.031 A 
HETATM   10  C   UNL     1      41.149  -9.707   7.589  1.00  0.00     0.032 A 
BRANCH   8  11
HETATM   11  N   UNL     1      41.384  -8.769  11.220  1.00  0.00    -0.378 N 
HETATM   12  C   UNL     1      40.976  -7.346  11.354  1.00  0.00     0.143 C 
HETATM   13  C   UNL     1      40.220  -7.133  12.670  1.00  0.00     0.145 C 
HETATM   14  N   UNL     1      40.943  -7.631  13.846  1.00  0.00    -0.349 N 
HETATM   15  C   UNL     1      40.564  -7.101  15.076  1.00  0.00     0.219 C 
HETATM   16  C   UNL     1      41.530  -8.972  13.692  1.00  0.00     0.145 C 
HETATM   17  O   UNL     1      39.814  -6.127  15.163  1.00  0.00    -0.273 OA
HETATM   18  C   UNL     1      42.242  -9.197  12.340  1.00  0.00     0.143 C 
BRANCH  15  19
HETATM   19  C   UNL     1      41.140  -7.764  16.316  1.00  0.00     0.098 C 
HETATM   20  C   UNL     1      41.956  -6.798  17.161  1.00  0.00     0.014 C 
ENDBRANCH  15  19
ENDBRANCH   8  11
ENDBRANCH   3   5
ENDBRANCH   1   3
BRANCH   1  21
HETATM   21  N   UNL     1      42.194 -11.297   3.923  1.00  0.00    -0.298 N 
HETATM   22  C   UNL     1      43.291 -11.962   3.391  1.00  0.00     0.281 C 
HETATM   23  O   UNL     1      44.428 -11.494   3.382  1.00  0.00    -0.265 OA
HETATM   24  H   UNL     1      41.302 -11.750   3.764  1.00  0.00     0.171 HD
BRANCH  22  25
HETATM   25  C   UNL     1      42.922 -13.237   2.810  1.00  0.00     0.144 A 
HETATM   26  O   UNL     1      43.323 -14.374   3.460  1.00  0.00    -0.304 OA
HETATM   27  C   UNL     1      42.916 -15.451   2.729  1.00  0.00     0.086 A 
HETATM   28  C   UNL     1      42.233 -15.007   1.613  1.00  0.00     0.041 A 
HETATM   29  C   UNL     1      42.234 -13.586   1.667  1.00  0.00     0.046 A 
BRANCH  27  30
HETATM   30  C   UNL     1      43.301 -16.756   3.263  1.00  0.00    -0.001 A 
HETATM   31  C   UNL     1      43.345 -17.889   2.437  1.00  0.00     0.038 A 
HETATM   32  C   UNL     1      43.690 -19.144   2.948  1.00  0.00     0.040 A 
HETATM   33 CL   UNL     1      43.707 -20.483   1.853  1.00  0.00    -0.084 Cl
HETATM   34  C   UNL     1      44.005 -19.301   4.303  1.00  0.00    -0.040 A 
HETATM   35  C   UNL     1      44.364 -20.640   4.884  1.00  0.00     0.050 C 
HETATM   36  C   UNL     1      43.965 -18.171   5.131  1.00  0.00     0.009 A 
HETATM   37  C   UNL     1      43.620 -16.915   4.617  1.00  0.00     0.015 A 
ENDBRANCH  27  30
ENDBRANCH  22  25
ENDBRANCH   1  21
TORSDOF 7
ENDMDL
MODEL 7
REMARK VINA RESULT:      -8.9      2.683      3.424
REMARK  7 active torsions:
REMARK  status: ('A' for Active; 'I' for Inactive)
REMARK    1  A    between atoms: C_2  and  C_3 
REMARK       I    between atoms: C_3  and  N_4 
REMARK    2  A    between atoms: N_7  and  C_8 
REMARK    3  A    between atoms: C_11  and  N_12 
REMARK    4  A    between atoms: N_12  and  C_13 
REMARK    5  A    between atoms: C_13  and  N_14 
REMARK       I    between atoms: N_14  and  C_15 
REMARK    6  A    between atoms: C_15  and  C_16 
REMARK    7  A    between atoms: C_18  and  C_19 
ROOT
HETATM    1  C   UNL     1      41.069 -10.413   3.143  1.00  0.00     0.179 C 
HETATM    2  S   UNL     1      40.037 -10.455   1.823  1.00  0.00    -0.040 SA
ENDROOT
BRANCH   1   3
HETATM    3  N   UNL     1      41.425  -9.336   3.917  1.00  0.00    -0.333 N 
HETATM    4  H   UNL     1      41.730  -8.517   3.394  1.00  0.00     0.168 HD
BRANCH   3   5
HETATM    5  C   UNL     1      41.271  -9.163   5.309  1.00  0.00     0.034 A 
HETATM    6  C   UNL     1      42.351  -8.999   6.168  1.00  0.00     0.032 A 
HETATM    7  C   UNL     1      42.148  -8.835   7.540  1.00  0.00     0.031 A 
HETATM    8  C   UNL     1      40.868  -8.851   8.114  1.00  0.00     0.030 A 
HETATM    9  C   UNL     1      39.789  -8.943   7.225  1.00  0.00     0.031 A 
HETATM   10  C   UNL     1      39.985  -9.081   5.838  1.00  0.00     0.032 A 
BRANCH   8  11
HETATM   11  N   UNL     1      40.734  -8.726   9.504  1.00  0.00    -0.378 N 
HETATM   12  C   UNL     1      40.023  -7.499   9.947  1.00  0.00     0.143 C 
HETATM   13  C   UNL     1      39.524  -7.667  11.387  1.00  0.00     0.145 C 
HETATM   14  N   UNL     1      40.573  -8.086  12.323  1.00  0.00    -0.349 N 
HETATM   15  C   UNL     1      40.335  -7.836  13.672  1.00  0.00     0.219 C 
HETATM   16  C   UNL     1      41.430  -9.183  11.845  1.00  0.00     0.145 C 
HETATM   17  O   UNL     1      39.402  -7.125  14.049  1.00  0.00    -0.273 OA
HETATM   18  C   UNL     1      41.883  -9.035  10.376  1.00  0.00     0.143 C 
BRANCH  15  19
HETATM   19  C   UNL     1      41.299  -8.462  14.666  1.00  0.00     0.098 C 
HETATM   20  C   UNL     1      42.281  -7.448  15.233  1.00  0.00     0.014 C 
ENDBRANCH  15  19
ENDBRANCH   8  11
ENDBRANCH   3   5
ENDBRANCH   1   3
BRANCH   1  21
HETATM   21  N   UNL     1      41.645 -11.615   3.485  1.00  0.00    -0.298 N 
HETATM   22  C   UNL     1      42.962 -11.930   3.786  1.00  0.00     0.281 C 
HETATM   23  O   UNL     1      43.920 -11.240   3.443  1.00  0.00    -0.265 OA
HETATM   24  H   UNL     1      40.967 -12.327   3.732  1.00  0.00     0.171 HD
BRANCH  22  25
HETATM   25  C   UNL     1      43.068 -13.186   4.500  1.00  0.00     0.144 A 
HETATM   26  O   UNL     1      43.212 -14.330   3.761  1.00  0.00    -0.304 OA
HETATM   27  C   UNL     1      43.245 -15.392   4.616  1.00  0.00     0.086 A 
HETATM   28  C   UNL     1      43.141 -14.929   5.913  1.00  0.00     0.041 A 
HETATM   29  C   UNL     1      43.031 -13.513   5.840  1.00  0.00     0.046 A 
BRANCH  27  30
HETATM   30  C   UNL     1      43.355 -16.706   3.985  1.00  0.00    -0.001 A 
HETATM   31  C   UNL     1      43.788 -17.822   4.715  1.00  0.00     0.038 A 
HETATM   32  C   UNL     1      43.917 -19.077   4.110  1.00  0.00     0.040 A 
HETATM   33 CL   UNL     1      44.468 -20.391   5.090  1.00  0.00    -0.084 Cl
HETATM   34  C   UNL     1      43.612 -19.251   2.755  1.00  0.00    -0.040 A 
HETATM   35  C   UNL     1      43.756 -20.582   2.073  1.00  0.00     0.050 C 
HETATM   36  C   UNL     1      43.176 -18.138   2.022  1.00  0.00     0.009 A 
HETATM   37  C   UNL     1      43.047 -16.882   2.630  1.00  0.00     0.015 A 
ENDBRANCH  27  30
ENDBRANCH  22  25
ENDBRANCH   1  21
TORSDOF 7
ENDMDL
MODEL 8
REMARK VINA RESULT:      -8.6      3.137      4.284
REMARK  7 active torsions:
REMARK  status: ('A' for Active; 'I' for Inactive)
REMARK    1  A    between atoms: C_2  and  C_3 
REMARK       I    between atoms: C_3  and  N_4 
REMARK    2  A    between atoms: N_7  and  C_8 
REMARK    3  A    between atoms: C_11  and  N_12 
REMARK    4  A    between atoms: N_12  and  C_13 
REMARK    5  A    between atoms: C_13  and  N_14 
REMARK       I    between atoms: N_14  and  C_15 
REMARK    6  A    between atoms: C_15  and  C_16 
REMARK    7  A    between atoms: C_18  and  C_19 
ROOT
HETATM    1  C   UNL     1      40.926 -10.065   2.929  1.00  0.00     0.179 C 
HETATM    2  S   UNL     1      39.658  -9.497   1.992  1.00  0.00    -0.040 SA
ENDROOT
BRANCH   1   3
HETATM    3  N   UNL     1      41.723  -9.367   3.805  1.00  0.00    -0.333 N 
HETATM    4  H   UNL     1      42.411  -8.759   3.365  1.00  0.00     0.168 HD
BRANCH   3   5
HETATM    5  C   UNL     1      41.605  -9.260   5.207  1.00  0.00     0.034 A 
HETATM    6  C   UNL     1      40.642  -8.468   5.821  1.00  0.00     0.032 A 
HETATM    7  C   UNL     1      40.567  -8.391   7.213  1.00  0.00     0.031 A 
HETATM    8  C   UNL     1      41.458  -9.081   8.049  1.00  0.00     0.030 A 
HETATM    9  C   UNL     1      42.373  -9.932   7.416  1.00  0.00     0.031 A 
HETATM   10  C   UNL     1      42.437 -10.035   6.013  1.00  0.00     0.032 A 
BRANCH   8  11
HETATM   11  N   UNL     1      41.358  -8.927   9.439  1.00  0.00    -0.378 N 
HETATM   12  C   UNL     1      40.401  -7.878   9.876  1.00  0.00     0.143 C 
HETATM   13  C   UNL     1      40.017  -8.091  11.345  1.00  0.00     0.145 C 
HETATM   14  N   UNL     1      41.174  -8.216  12.239  1.00  0.00    -0.349 N 
HETATM   15  C   UNL     1      40.942  -7.967  13.590  1.00  0.00     0.219 C 
HETATM   16  C   UNL     1      42.240  -9.107  11.754  1.00  0.00     0.145 C 
HETATM   17  O   UNL     1      39.887  -7.474  13.990  1.00  0.00    -0.273 OA
HETATM   18  C   UNL     1      42.583  -8.925  10.260  1.00  0.00     0.143 C 
BRANCH  15  19
HETATM   19  C   UNL     1      42.067  -8.309  14.553  1.00  0.00     0.098 C 
HETATM   20  C   UNL     1      42.545  -7.095  15.334  1.00  0.00     0.014 C 
ENDBRANCH  15  19
ENDBRANCH   8  11
ENDBRANCH   3   5
ENDBRANCH   1   3
BRANCH   1  21
HETATM   21  N   UNL     1      41.215 -11.402   2.791  1.00  0.00    -0.298 N 
HETATM   22  C   UNL     1      40.475 -12.524   3.136  1.00  0.00     0.281 C 
HETATM   23  O   UNL     1      39.569 -12.510   3.967  1.00  0.00    -0.265 OA
HETATM   24  H   UNL     1      42.001 -11.580   2.177  1.00  0.00     0.171 HD
BRANCH  22  25
HETATM   25  C   UNL     1      40.934 -13.710   2.442  1.00  0.00     0.144 A 
HETATM   26  O   UNL     1      41.519 -14.699   3.187  1.00  0.00    -0.304 OA
HETATM   27  C   UNL     1      41.918 -15.694   2.343  1.00  0.00     0.086 A 
HETATM   28  C   UNL     1      41.572 -15.352   1.050  1.00  0.00     0.041 A 
HETATM   29  C   UNL     1      40.938 -14.081   1.113  1.00  0.00     0.046 A 
BRANCH  27  30
HETATM   30  C   UNL     1      42.603 -16.819   2.975  1.00  0.00    -0.001 A 
HETATM   31  C   UNL     1      42.909 -17.978   2.246  1.00  0.00     0.038 A 
HETATM   32  C   UNL     1      43.544 -19.067   2.851  1.00  0.00     0.040 A 
HETATM   33 CL   UNL     1      43.872 -20.455   1.873  1.00  0.00    -0.084 Cl
HETATM   34  C   UNL     1      43.894 -19.026   4.206  1.00  0.00    -0.040 A 
HETATM   35  C   UNL     1      44.562 -20.187   4.889  1.00  0.00     0.050 C 
HETATM   36  C   UNL     1      43.592 -17.870   4.938  1.00  0.00     0.009 A 
HETATM   37  C   UNL     1      42.956 -16.779   4.329  1.00  0.00     0.015 A 
ENDBRANCH  27  30
ENDBRANCH  22  25
ENDBRANCH   1  21
TORSDOF 7
ENDMDL
MODEL 9
REMARK VINA RESULT:      -8.5      4.621      6.886
REMARK  7 active torsions:
REMARK  status: ('A' for Active; 'I' for Inactive)
REMARK    1  A    between atoms: C_2  and  C_3 
REMARK       I    between atoms: C_3  and  N_4 
REMARK    2  A    between atoms: N_7  and  C_8 
REMARK    3  A    between atoms: C_11  and  N_12 
REMARK    4  A    between atoms: N_12  and  C_13 
REMARK    5  A    between atoms: C_13  and  N_14 
REMARK       I    between atoms: N_14  and  C_15 
REMARK    6  A    between atoms: C_15  and  C_16 
REMARK    7  A    between atoms: C_18  and  C_19 
ROOT
HETATM    1  C   UNL     1      38.415 -10.545   1.201  1.00  0.00     0.179 C 
HETATM    2  S   UNL     1      36.824 -10.237   0.772  1.00  0.00    -0.040 SA
ENDROOT
BRANCH   1   3
HETATM    3  N   UNL     1      39.360  -9.665   1.670  1.00  0.00    -0.333 N 
HETATM    4  H   UNL     1      39.508  -8.845   1.085  1.00  0.00     0.168 HD
BRANCH   3   5
HETATM    5  C   UNL     1      40.024  -9.668   2.915  1.00  0.00     0.034 A 
HETATM    6  C   UNL     1      39.377  -9.375   4.110  1.00  0.00     0.032 A 
HETATM    7  C   UNL     1      40.077  -9.388   5.319  1.00  0.00     0.031 A 
HETATM    8  C   UNL     1      41.450  -9.670   5.385  1.00  0.00     0.030 A 
HETATM    9  C   UNL     1      42.068 -10.036   4.182  1.00  0.00     0.031 A 
HETATM   10  C   UNL     1      41.363 -10.052   2.964  1.00  0.00     0.032 A 
BRANCH   8  11
HETATM   11  N   UNL     1      42.104  -9.623   6.623  1.00  0.00    -0.378 N 
HETATM   12  C   UNL     1      43.037 -10.752   6.870  1.00  0.00     0.143 C 
HETATM   13  C   UNL     1      44.022 -10.391   7.990  1.00  0.00     0.145 C 
HETATM   14  N   UNL     1      43.365  -9.916   9.212  1.00  0.00    -0.349 N 
HETATM   15  C   UNL     1      44.112  -9.993  10.386  1.00  0.00     0.219 C 
HETATM   16  C   UNL     1      42.297  -8.927   9.000  1.00  0.00     0.145 C 
HETATM   17  O   UNL     1      45.178 -10.607  10.440  1.00  0.00    -0.273 OA
HETATM   18  C   UNL     1      41.342  -9.270   7.835  1.00  0.00     0.143 C 
BRANCH  15  19
HETATM   19  C   UNL     1      43.537  -9.302  11.611  1.00  0.00     0.098 C 
HETATM   20  C   UNL     1      42.751 -10.258  12.495  1.00  0.00     0.014 C 
ENDBRANCH  15  19
ENDBRANCH   8  11
ENDBRANCH   3   5
ENDBRANCH   1   3
BRANCH   1  21
HETATM   21  N   UNL     1      38.830 -11.847   1.049  1.00  0.00    -0.298 N 
HETATM   22  C   UNL     1      39.972 -12.366   0.455  1.00  0.00     0.281 C 
HETATM   23  O   UNL     1      40.647 -11.751  -0.368  1.00  0.00    -0.265 OA
HETATM   24  H   UNL     1      38.310 -12.502   1.622  1.00  0.00     0.171 HD
BRANCH  22  25
HETATM   25  C   UNL     1      40.233 -13.726   0.882  1.00  0.00     0.144 A 
HETATM   26  O   UNL     1      41.029 -13.907   1.982  1.00  0.00    -0.304 OA
HETATM   27  C   UNL     1      41.184 -15.247   2.183  1.00  0.00     0.086 A 
HETATM   28  C   UNL     1      40.470 -15.933   1.219  1.00  0.00     0.041 A 
HETATM   29  C   UNL     1      39.857 -14.957   0.386  1.00  0.00     0.046 A 
BRANCH  27  30
HETATM   30  C   UNL     1      42.046 -15.620   3.303  1.00  0.00    -0.001 A 
HETATM   31  C   UNL     1      42.106 -14.829   4.460  1.00  0.00     0.038 A 
HETATM   32  C   UNL     1      42.946 -15.169   5.525  1.00  0.00     0.040 A 
HETATM   33 CL   UNL     1      42.958 -14.128   6.906  1.00  0.00    -0.084 Cl
HETATM   34  C   UNL     1      43.750 -16.314   5.464  1.00  0.00    -0.040 A 
HETATM   35  C   UNL     1      44.675 -16.696   6.585  1.00  0.00     0.050 C 
HETATM   36  C   UNL     1      43.691 -17.107   4.310  1.00  0.00     0.009 A 
HETATM   37  C   UNL     1      42.849 -16.766   3.244  1.00  0.00     0.015 A 
ENDBRANCH  27  30
ENDBRANCH  22  25
ENDBRANCH   1  21
TORSDOF 7
ENDMDL
MODEL 10
REMARK VINA RESULT:      -8.5      1.871      2.219
REMARK  7 active torsions:
REMARK  status: ('A' for Active; 'I' for Inactive)
REMARK    1  A    between atoms: C_2  and  C_3 
REMARK       I    between atoms: C_3  and  N_4 
REMARK    2  A    between atoms: N_7  and  C_8 
REMARK    3  A    between atoms: C_11  and  N_12 
REMARK    4  A    between atoms: N_12  and  C_13 
REMARK    5  A    between atoms: C_13  and  N_14 
REMARK       I    between atoms: N_14  and  C_15 
REMARK    6  A    between atoms: C_15  and  C_16 
REMARK    7  A    between atoms: C_18  and  C_19 
ROOT
HETATM    1  C   UNL     1      45.040 -11.661   6.856  1.00  0.00     0.179 C 
HETATM    2  S   UNL     1      45.884 -11.471   5.421  1.00  0.00    -0.040 SA
ENDROOT
BRANCH   1   3
HETATM    3  N   UNL     1      45.286 -11.079   8.077  1.00  0.00    -0.333 N 
HETATM    4  H   UNL     1      46.259 -11.108   8.375  1.00  0.00     0.168 HD
BRANCH   3   5
HETATM    5  C   UNL     1      44.412 -10.318   8.881  1.00  0.00     0.034 A 
HETATM    6  C   UNL     1      43.607  -9.308   8.365  1.00  0.00     0.032 A 
HETATM    7  C   UNL     1      42.760  -8.579   9.202  1.00  0.00     0.031 A 
HETATM    8  C   UNL     1      42.695  -8.808  10.585  1.00  0.00     0.030 A 
HETATM    9  C   UNL     1      43.456  -9.878  11.074  1.00  0.00     0.031 A 
HETATM   10  C   UNL     1      44.292 -10.635  10.233  1.00  0.00     0.032 A 
BRANCH   8  11
HETATM   11  N   UNL     1      41.856  -8.012  11.377  1.00  0.00    -0.378 N 
HETATM   12  C   UNL     1      41.231  -6.871  10.660  1.00  0.00     0.143 C 
HETATM   13  C   UNL     1      40.016  -6.356  11.440  1.00  0.00     0.145 C 
HETATM   14  N   UNL     1      40.310  -6.054  12.845  1.00  0.00    -0.349 N 
HETATM   15  C   UNL     1      39.428  -5.190  13.490  1.00  0.00     0.219 C 
HETATM   16  C   UNL     1      41.096  -7.079  13.550  1.00  0.00     0.145 C 
HETATM   17  O   UNL     1      38.571  -4.555  12.875  1.00  0.00    -0.273 OA
HETATM   18  C   UNL     1      42.285  -7.633  12.736  1.00  0.00     0.143 C 
BRANCH  15  19
HETATM   19  C   UNL     1      39.587  -5.045  14.995  1.00  0.00     0.098 C 
HETATM   20  C   UNL     1      38.331  -5.452  15.749  1.00  0.00     0.014 C 
ENDBRANCH  15  19
ENDBRANCH   8  11
ENDBRANCH   3   5
ENDBRANCH   1   3
BRANCH   1  21
HETATM   21  N   UNL     1      43.970 -12.522   6.807  1.00  0.00    -0.298 N 
HETATM   22  C   UNL     1      42.743 -12.401   6.168  1.00  0.00     0.281 C 
HETATM   23  O   UNL     1      42.262 -11.323   5.825  1.00  0.00    -0.265 OA
HETATM   24  H   UNL     1      44.192 -13.456   7.131  1.00  0.00     0.171 HD
BRANCH  22  25
HETATM   25  C   UNL     1      42.088 -13.683   6.007  1.00  0.00     0.144 A 
HETATM   26  O   UNL     1      42.726 -14.635   5.256  1.00  0.00    -0.304 OA
HETATM   27  C   UNL     1      41.926 -15.738   5.193  1.00  0.00     0.086 A 
HETATM   28  C   UNL     1      40.776 -15.503   5.922  1.00  0.00     0.041 A 
HETATM   29  C   UNL     1      40.881 -14.186   6.447  1.00  0.00     0.046 A 
BRANCH  27  30
HETATM   30  C   UNL     1      42.442 -16.844   4.389  1.00  0.00    -0.001 A 
HETATM   31  C   UNL     1      43.165 -17.890   4.982  1.00  0.00     0.038 A 
HETATM   32  C   UNL     1      43.681 -18.939   4.214  1.00  0.00     0.040 A 
HETATM   33 CL   UNL     1      44.567 -20.177   5.033  1.00  0.00    -0.084 Cl
HETATM   34  C   UNL     1      43.484 -18.973   2.828  1.00  0.00    -0.040 A 
HETATM   35  C   UNL     1      44.039 -20.079   1.975  1.00  0.00     0.050 C 
HETATM   36  C   UNL     1      42.760 -17.932   2.232  1.00  0.00     0.009 A 
HETATM   37  C   UNL     1      42.243 -16.882   3.003  1.00  0.00     0.015 A 
ENDBRANCH  27  30
ENDBRANCH  22  25
ENDBRANCH   1  21
TORSDOF 7
ENDMDL
