MODEL 1
REMARK VINA RESULT:      -8.3      0.000      0.000
REMARK  6 active torsions:
REMARK  status: ('A' for Active; 'I' for Inactive)
REMARK    1  A    between atoms: C_7  and  S_8 
REMARK    2  A    between atoms: S_8  and  C_9 
REMARK    3  A    between atoms: C_9  and  C_10 
REMARK    4  A    between atoms: C_18  and  C_19 
REMARK    5  A    between atoms: C_27  and  C_28 
REMARK    6  A    between atoms: C_28  and  O_29 
ROOT
HETATM    1  C   UNL     1      44.428 -10.004   7.366  1.00  0.00     0.070 C 
HETATM    2  C   UNL     1      43.592 -11.192   6.959  1.00  0.00     0.037 A 
HETATM    3  N   UNL     1      44.189 -12.435   7.141  1.00  0.00    -0.192 N 
HETATM    4  C   UNL     1      43.589 -13.598   6.828  1.00  0.00     0.726 A 
HETATM    5  N   UNL     1      42.349 -13.579   6.253  1.00  0.00    -0.082 N 
HETATM    6  N   UNL     1      41.883 -14.828   6.054  1.00  0.00    -0.128 NA
HETATM    7  C   UNL     1      42.916 -15.556   6.494  1.00  0.00     0.226 A 
HETATM    8  N   UNL     1      43.981 -14.837   6.980  1.00  0.00    -0.035 NA
HETATM    9  C   UNL     1      41.590 -12.354   5.965  1.00  0.00     0.208 A 
HETATM   10  C   UNL     1      42.347 -11.111   6.423  1.00  0.00     0.070 A 
HETATM   11  H   UNL     1      45.115 -12.457   7.558  1.00  0.00     0.184 HD
ENDROOT
BRANCH   7  12
HETATM   12  S   UNL     1      42.875 -17.296   6.441  1.00  0.00    -0.083 SA
BRANCH  12  13
HETATM   13  C   UNL     1      44.303 -17.606   5.367  1.00  0.00     0.123 C 
BRANCH  13  14
HETATM   14  C   UNL     1      43.972 -18.580   4.259  1.00  0.00    -0.027 A 
HETATM   15  C   UNL     1      43.515 -18.170   2.996  1.00  0.00     0.041 A 
HETATM   16 CL   UNL     1      43.280 -16.504   2.602  1.00  0.00    -0.084 Cl
HETATM   17  C   UNL     1      43.229 -19.113   2.003  1.00  0.00     0.024 A 
HETATM   18  C   UNL     1      43.397 -20.473   2.255  1.00  0.00     0.002 A 
HETATM   19  C   UNL     1      43.858 -20.895   3.499  1.00  0.00     0.001 A 
HETATM   20  C   UNL     1      44.147 -19.957   4.492  1.00  0.00     0.009 A 
ENDBRANCH  13  14
ENDBRANCH  12  13
ENDBRANCH   7  12
BRANCH   9  21
HETATM   21  C   UNL     1      41.127 -12.357   4.518  1.00  0.00     0.032 A 
HETATM   22  C   UNL     1      41.966 -12.216   3.401  1.00  0.00     0.045 A 
HETATM   23 CL   UNL     1      43.674 -12.005   3.537  1.00  0.00    -0.084 Cl
HETATM   24  C   UNL     1      41.439 -12.242   2.100  1.00  0.00     0.024 A 
HETATM   25  C   UNL     1      40.073 -12.413   1.890  1.00  0.00     0.005 A 
HETATM   26  C   UNL     1      39.228 -12.557   2.983  1.00  0.00     0.043 A 
HETATM   27  C   UNL     1      39.755 -12.528   4.271  1.00  0.00     0.126 A 
HETATM   28  F   UNL     1      38.906 -12.661   5.302  1.00  0.00    -0.205 F 
ENDBRANCH   9  21
BRANCH  10  29
HETATM   29  C   UNL     1      41.605  -9.839   6.299  1.00  0.00     0.293 C 
HETATM   30  O   UNL     1      41.817  -9.008   5.431  1.00  0.00    -0.259 OA
BRANCH  29  31
HETATM   31  O   UNL     1      40.618  -9.783   7.227  1.00  0.00    -0.323 OA
HETATM   32  C   UNL     1      39.336  -9.450   6.693  1.00  0.00     0.213 C 
ENDBRANCH  29  31
ENDBRANCH  10  29
TORSDOF 6
ENDMDL
MODEL 2
REMARK VINA RESULT:      -8.1      3.324      5.042
REMARK  6 active torsions:
REMARK  status: ('A' for Active; 'I' for Inactive)
REMARK    1  A    between atoms: C_7  and  S_8 
REMARK    2  A    between atoms: S_8  and  C_9 
REMARK    3  A    between atoms: C_9  and  C_10 
REMARK    4  A    between atoms: C_18  and  C_19 
REMARK    5  A    between atoms: C_27  and  C_28 
REMARK    6  A    between atoms: C_28  and  O_29 
ROOT
HETATM    1  C   UNL     1      39.084 -14.298  -1.356  1.00  0.00     0.070 C 
HETATM    2  C   UNL     1      39.863 -14.127  -0.076  1.00  0.00     0.037 A 
HETATM    3  N   UNL     1      39.805 -15.198   0.808  1.00  0.00    -0.192 N 
HETATM    4  C   UNL     1      40.434 -15.213   1.997  1.00  0.00     0.726 A 
HETATM    5  N   UNL     1      41.132 -14.108   2.400  1.00  0.00    -0.082 N 
HETATM    6  N   UNL     1      41.736 -14.317   3.587  1.00  0.00    -0.128 NA
HETATM    7  C   UNL     1      41.324 -15.560   3.864  1.00  0.00     0.226 A 
HETATM    8  N   UNL     1      40.525 -16.145   2.911  1.00  0.00    -0.035 NA
HETATM    9  C   UNL     1      41.269 -12.882   1.602  1.00  0.00     0.208 A 
HETATM   10  C   UNL     1      40.567 -13.014   0.254  1.00  0.00     0.070 A 
HETATM   11  H   UNL     1      39.279 -16.019   0.521  1.00  0.00     0.184 HD
ENDROOT
BRANCH   7  12
HETATM   12  S   UNL     1      41.791 -16.351   5.344  1.00  0.00    -0.083 SA
BRANCH  12  13
HETATM   13  C   UNL     1      43.509 -16.771   4.939  1.00  0.00     0.123 C 
BRANCH  13  14
HETATM   14  C   UNL     1      43.655 -18.224   4.550  1.00  0.00    -0.027 A 
HETATM   15  C   UNL     1      43.657 -18.658   3.215  1.00  0.00     0.041 A 
HETATM   16 CL   UNL     1      43.480 -17.560   1.893  1.00  0.00    -0.084 Cl
HETATM   17  C   UNL     1      43.802 -20.016   2.908  1.00  0.00     0.024 A 
HETATM   18  C   UNL     1      43.950 -20.955   3.927  1.00  0.00     0.002 A 
HETATM   19  C   UNL     1      43.958 -20.540   5.256  1.00  0.00     0.001 A 
HETATM   20  C   UNL     1      43.816 -19.186   5.565  1.00  0.00     0.009 A 
ENDBRANCH  13  14
ENDBRANCH  12  13
ENDBRANCH   7  12
BRANCH   9  21
HETATM   21  C   UNL     1      40.886 -11.672   2.438  1.00  0.00     0.032 A 
HETATM   22  C   UNL     1      39.573 -11.300   2.766  1.00  0.00     0.045 A 
HETATM   23 CL   UNL     1      38.190 -12.189   2.238  1.00  0.00    -0.084 Cl
HETATM   24  C   UNL     1      39.324 -10.166   3.555  1.00  0.00     0.024 A 
HETATM   25  C   UNL     1      40.376  -9.388   4.033  1.00  0.00     0.005 A 
HETATM   26  C   UNL     1      41.683  -9.742   3.721  1.00  0.00     0.043 A 
HETATM   27  C   UNL     1      41.923 -10.867   2.936  1.00  0.00     0.126 A 
HETATM   28  F   UNL     1      43.198 -11.171   2.648  1.00  0.00    -0.205 F 
ENDBRANCH   9  21
BRANCH  10  29
HETATM   29  C   UNL     1      40.765 -11.881  -0.673  1.00  0.00     0.293 C 
HETATM   30  O   UNL     1      41.772 -11.713  -1.340  1.00  0.00    -0.259 OA
BRANCH  29  31
HETATM   31  O   UNL     1      39.641 -11.123  -0.729  1.00  0.00    -0.323 OA
HETATM   32  C   UNL     1      39.877  -9.723  -0.575  1.00  0.00     0.213 C 
ENDBRANCH  29  31
ENDBRANCH  10  29
TORSDOF 6
ENDMDL
MODEL 3
REMARK VINA RESULT:      -8.0      4.767      6.628
REMARK  6 active torsions:
REMARK  status: ('A' for Active; 'I' for Inactive)
REMARK    1  A    between atoms: C_7  and  S_8 
REMARK    2  A    between atoms: S_8  and  C_9 
REMARK    3  A    between atoms: C_9  and  C_10 
REMARK    4  A    between atoms: C_18  and  C_19 
REMARK    5  A    between atoms: C_27  and  C_28 
REMARK    6  A    between atoms: C_28  and  O_29 
ROOT
HETATM    1  C   UNL     1      38.349 -14.330  -3.176  1.00  0.00     0.070 C 
HETATM    2  C   UNL     1      39.167 -13.931  -1.973  1.00  0.00     0.037 A 
HETATM    3  N   UNL     1      39.156 -14.832  -0.915  1.00  0.00    -0.192 N 
HETATM    4  C   UNL     1      39.824 -14.633   0.236  1.00  0.00     0.726 A 
HETATM    5  N   UNL     1      40.516 -13.468   0.416  1.00  0.00    -0.082 N 
HETATM    6  N   UNL     1      41.163 -13.460   1.599  1.00  0.00    -0.128 NA
HETATM    7  C   UNL     1      40.781 -14.640   2.102  1.00  0.00     0.226 A 
HETATM    8  N   UNL     1      39.961 -15.390   1.294  1.00  0.00    -0.035 NA
HETATM    9  C   UNL     1      40.607 -12.398  -0.588  1.00  0.00     0.208 A 
HETATM   10  C   UNL     1      39.863 -12.770  -1.866  1.00  0.00     0.070 A 
HETATM   11  H   UNL     1      38.635 -15.696  -1.036  1.00  0.00     0.184 HD
ENDROOT
BRANCH   7  12
HETATM   12  S   UNL     1      41.310 -15.156   3.679  1.00  0.00    -0.083 SA
BRANCH  12  13
HETATM   13  C   UNL     1      43.053 -15.505   3.320  1.00  0.00     0.123 C 
BRANCH  13  14
HETATM   14  C   UNL     1      43.351 -16.986   3.372  1.00  0.00    -0.027 A 
HETATM   15  C   UNL     1      43.947 -17.605   4.483  1.00  0.00     0.041 A 
HETATM   16 CL   UNL     1      44.406 -16.715   5.891  1.00  0.00    -0.084 Cl
HETATM   17  C   UNL     1      44.195 -18.981   4.481  1.00  0.00     0.024 A 
HETATM   18  C   UNL     1      43.849 -19.758   3.377  1.00  0.00     0.002 A 
HETATM   19  C   UNL     1      43.249 -19.162   2.272  1.00  0.00     0.001 A 
HETATM   20  C   UNL     1      42.998 -17.788   2.270  1.00  0.00     0.009 A 
ENDBRANCH  13  14
ENDBRANCH  12  13
ENDBRANCH   7  12
BRANCH   9  21
HETATM   21  C   UNL     1      40.232 -11.064   0.038  1.00  0.00     0.032 A 
HETATM   22  C   UNL     1      39.012 -10.786   0.676  1.00  0.00     0.045 A 
HETATM   23 CL   UNL     1      37.748 -11.953   0.823  1.00  0.00    -0.084 Cl
HETATM   24  C   UNL     1      38.765  -9.522   1.232  1.00  0.00     0.024 A 
HETATM   25  C   UNL     1      39.728  -8.517   1.168  1.00  0.00     0.005 A 
HETATM   26  C   UNL     1      40.942  -8.775   0.543  1.00  0.00     0.043 A 
HETATM   27  C   UNL     1      41.180 -10.031  -0.009  1.00  0.00     0.126 A 
HETATM   28  F   UNL     1      42.361 -10.238  -0.613  1.00  0.00    -0.205 F 
ENDBRANCH   9  21
BRANCH  10  29
HETATM   29  C   UNL     1      40.011 -11.814  -2.983  1.00  0.00     0.293 C 
HETATM   30  O   UNL     1      41.006 -11.733  -3.684  1.00  0.00    -0.259 OA
BRANCH  29  31
HETATM   31  O   UNL     1      38.860 -11.117  -3.156  1.00  0.00    -0.323 OA
HETATM   32  C   UNL     1      39.035  -9.699  -3.162  1.00  0.00     0.213 C 
ENDBRANCH  29  31
ENDBRANCH  10  29
TORSDOF 6
ENDMDL
MODEL 4
REMARK VINA RESULT:      -8.0      3.654      5.494
REMARK  6 active torsions:
REMARK  status: ('A' for Active; 'I' for Inactive)
REMARK    1  A    between atoms: C_7  and  S_8 
REMARK    2  A    between atoms: S_8  and  C_9 
REMARK    3  A    between atoms: C_9  and  C_10 
REMARK    4  A    between atoms: C_18  and  C_19 
REMARK    5  A    between atoms: C_27  and  C_28 
REMARK    6  A    between atoms: C_28  and  O_29 
ROOT
HETATM    1  C   UNL     1      40.071 -11.056  -2.517  1.00  0.00     0.070 C 
HETATM    2  C   UNL     1      40.486 -11.606  -1.175  1.00  0.00     0.037 A 
HETATM    3  N   UNL     1      40.305 -12.974  -1.005  1.00  0.00    -0.192 N 
HETATM    4  C   UNL     1      40.616 -13.628   0.128  1.00  0.00     0.726 A 
HETATM    5  N   UNL     1      41.088 -12.923   1.200  1.00  0.00    -0.082 N 
HETATM    6  N   UNL     1      41.393 -13.741   2.228  1.00  0.00    -0.128 NA
HETATM    7  C   UNL     1      41.038 -14.927   1.719  1.00  0.00     0.226 A 
HETATM    8  N   UNL     1      40.560 -14.899   0.432  1.00  0.00    -0.035 NA
HETATM    9  C   UNL     1      41.310 -11.470   1.201  1.00  0.00     0.208 A 
HETATM   10  C   UNL     1      40.982 -10.857  -0.157  1.00  0.00     0.070 A 
HETATM   11  H   UNL     1      39.945 -13.504  -1.794  1.00  0.00     0.184 HD
ENDROOT
BRANCH   7  12
HETATM   12  S   UNL     1      41.190 -16.386   2.657  1.00  0.00    -0.083 SA
BRANCH  12  13
HETATM   13  C   UNL     1      42.971 -16.684   2.479  1.00  0.00     0.123 C 
BRANCH  13  14
HETATM   14  C   UNL     1      43.357 -18.072   2.936  1.00  0.00    -0.027 A 
HETATM   15  C   UNL     1      43.952 -18.324   4.182  1.00  0.00     0.041 A 
HETATM   16 CL   UNL     1      44.309 -17.058   5.302  1.00  0.00    -0.084 Cl
HETATM   17  C   UNL     1      44.284 -19.630   4.560  1.00  0.00     0.024 A 
HETATM   18  C   UNL     1      44.023 -20.698   3.704  1.00  0.00     0.002 A 
HETATM   19  C   UNL     1      43.425 -20.466   2.469  1.00  0.00     0.001 A 
HETATM   20  C   UNL     1      43.090 -19.164   2.089  1.00  0.00     0.009 A 
ENDBRANCH  13  14
ENDBRANCH  12  13
ENDBRANCH   7  12
BRANCH   9  21
HETATM   21  C   UNL     1      40.623 -10.840   2.401  1.00  0.00     0.032 A 
HETATM   22  C   UNL     1      39.234 -10.714   2.562  1.00  0.00     0.045 A 
HETATM   23 CL   UNL     1      38.103 -11.265   1.380  1.00  0.00    -0.084 Cl
HETATM   24  C   UNL     1      38.696 -10.123   3.716  1.00  0.00     0.024 A 
HETATM   25  C   UNL     1      39.530  -9.653   4.728  1.00  0.00     0.005 A 
HETATM   26  C   UNL     1      40.907  -9.771   4.588  1.00  0.00     0.043 A 
HETATM   27  C   UNL     1      41.435 -10.356   3.440  1.00  0.00     0.126 A 
HETATM   28  F   UNL     1      42.770 -10.444   3.336  1.00  0.00    -0.205 F 
ENDBRANCH   9  21
BRANCH  10  29
HETATM   29  C   UNL     1      41.302  -9.421  -0.294  1.00  0.00     0.293 C 
HETATM   30  O   UNL     1      40.515  -8.521  -0.053  1.00  0.00    -0.259 OA
BRANCH  29  31
HETATM   31  O   UNL     1      42.605  -9.265  -0.640  1.00  0.00    -0.323 OA
HETATM   32  C   UNL     1      42.856  -8.122  -1.457  1.00  0.00     0.213 C 
ENDBRANCH  29  31
ENDBRANCH  10  29
TORSDOF 6
ENDMDL
MODEL 5
REMARK VINA RESULT:      -7.9      1.628      3.678
REMARK  6 active torsions:
REMARK  status: ('A' for Active; 'I' for Inactive)
REMARK    1  A    between atoms: C_7  and  S_8 
REMARK    2  A    between atoms: S_8  and  C_9 
REMARK    3  A    between atoms: C_9  and  C_10 
REMARK    4  A    between atoms: C_18  and  C_19 
REMARK    5  A    between atoms: C_27  and  C_28 
REMARK    6  A    between atoms: C_28  and  O_29 
ROOT
HETATM    1  C   UNL     1      38.562 -12.518   2.101  1.00  0.00     0.070 C 
HETATM    2  C   UNL     1      39.743 -12.860   2.976  1.00  0.00     0.037 A 
HETATM    3  N   UNL     1      39.751 -14.150   3.495  1.00  0.00    -0.192 N 
HETATM    4  C   UNL     1      40.723 -14.620   4.297  1.00  0.00     0.726 A 
HETATM    5  N   UNL     1      41.740 -13.788   4.676  1.00  0.00    -0.082 N 
HETATM    6  N   UNL     1      42.645 -14.437   5.435  1.00  0.00    -0.128 NA
HETATM    7  C   UNL     1      42.088 -15.652   5.509  1.00  0.00     0.226 A 
HETATM    8  N   UNL     1      40.908 -15.804   4.822  1.00  0.00    -0.035 NA
HETATM    9  C   UNL     1      41.867 -12.390   4.243  1.00  0.00     0.208 A 
HETATM   10  C   UNL     1      40.743 -11.997   3.290  1.00  0.00     0.070 A 
HETATM   11  H   UNL     1      38.993 -14.771   3.226  1.00  0.00     0.184 HD
ENDROOT
BRANCH   7  12
HETATM   12  S   UNL     1      42.838 -16.928   6.425  1.00  0.00    -0.083 SA
BRANCH  12  13
HETATM   13  C   UNL     1      44.274 -17.264   5.368  1.00  0.00     0.123 C 
BRANCH  13  14
HETATM   14  C   UNL     1      44.012 -18.404   4.411  1.00  0.00    -0.027 A 
HETATM   15  C   UNL     1      43.633 -18.204   3.074  1.00  0.00     0.041 A 
HETATM   16 CL   UNL     1      43.419 -16.624   2.408  1.00  0.00    -0.084 Cl
HETATM   17  C   UNL     1      43.409 -19.295   2.227  1.00  0.00     0.024 A 
HETATM   18  C   UNL     1      43.563 -20.597   2.701  1.00  0.00     0.002 A 
HETATM   19  C   UNL     1      43.947 -20.812   4.021  1.00  0.00     0.001 A 
HETATM   20  C   UNL     1      44.174 -19.725   4.869  1.00  0.00     0.009 A 
ENDBRANCH  13  14
ENDBRANCH  12  13
ENDBRANCH   7  12
BRANCH   9  21
HETATM   21  C   UNL     1      42.063 -11.487   5.451  1.00  0.00     0.032 A 
HETATM   22  C   UNL     1      43.302 -11.018   5.915  1.00  0.00     0.045 A 
HETATM   23 CL   UNL     1      44.799 -11.426   5.158  1.00  0.00    -0.084 Cl
HETATM   24  C   UNL     1      43.376 -10.178   7.038  1.00  0.00     0.024 A 
HETATM   25  C   UNL     1      42.221  -9.789   7.712  1.00  0.00     0.005 A 
HETATM   26  C   UNL     1      40.986 -10.242   7.265  1.00  0.00     0.043 A 
HETATM   27  C   UNL     1      40.919 -11.077   6.152  1.00  0.00     0.126 A 
HETATM   28  F   UNL     1      39.709 -11.501   5.757  1.00  0.00    -0.205 F 
ENDBRANCH   9  21
BRANCH  10  29
HETATM   29  C   UNL     1      40.862 -10.650   2.695  1.00  0.00     0.293 C 
HETATM   30  O   UNL     1      40.201  -9.688   3.049  1.00  0.00    -0.259 OA
BRANCH  29  31
HETATM   31  O   UNL     1      41.859 -10.633   1.775  1.00  0.00    -0.323 OA
HETATM   32  C   UNL     1      41.512  -9.977   0.555  1.00  0.00     0.213 C 
ENDBRANCH  29  31
ENDBRANCH  10  29
TORSDOF 6
ENDMDL
MODEL 6
REMARK VINA RESULT:      -7.9      3.632      7.187
REMARK  6 active torsions:
REMARK  status: ('A' for Active; 'I' for Inactive)
REMARK    1  A    between atoms: C_7  and  S_8 
REMARK    2  A    between atoms: S_8  and  C_9 
REMARK    3  A    between atoms: C_9  and  C_10 
REMARK    4  A    between atoms: C_18  and  C_19 
REMARK    5  A    between atoms: C_27  and  C_28 
REMARK    6  A    between atoms: C_28  and  O_29 
ROOT
HETATM    1  C   UNL     1      43.628 -19.330   6.143  1.00  0.00     0.070 C 
HETATM    2  C   UNL     1      43.541 -17.899   5.673  1.00  0.00     0.037 A 
HETATM    3  N   UNL     1      43.416 -16.945   6.676  1.00  0.00    -0.192 N 
HETATM    4  C   UNL     1      43.321 -15.625   6.436  1.00  0.00     0.726 A 
HETATM    5  N   UNL     1      43.292 -15.179   5.143  1.00  0.00    -0.082 N 
HETATM    6  N   UNL     1      43.244 -13.833   5.091  1.00  0.00    -0.128 NA
HETATM    7  C   UNL     1      43.204 -13.531   6.394  1.00  0.00     0.226 A 
HETATM    8  N   UNL     1      43.252 -14.604   7.251  1.00  0.00    -0.035 NA
HETATM    9  C   UNL     1      43.383 -16.054   3.966  1.00  0.00     0.208 A 
HETATM   10  C   UNL     1      43.551 -17.515   4.371  1.00  0.00     0.070 A 
HETATM   11  H   UNL     1      43.427 -17.269   7.639  1.00  0.00     0.184 HD
ENDROOT
BRANCH   7  12
HETATM   12  S   UNL     1      43.099 -11.877   6.929  1.00  0.00    -0.083 SA
BRANCH  12  13
HETATM   13  C   UNL     1      42.690 -11.070   5.357  1.00  0.00     0.123 C 
BRANCH  13  14
HETATM   14  C   UNL     1      41.223 -10.716   5.272  1.00  0.00    -0.027 A 
HETATM   15  C   UNL     1      40.401 -11.125   4.210  1.00  0.00     0.041 A 
HETATM   16 CL   UNL     1      41.005 -12.065   2.892  1.00  0.00    -0.084 Cl
HETATM   17  C   UNL     1      39.047 -10.775   4.184  1.00  0.00     0.024 A 
HETATM   18  C   UNL     1      38.495 -10.018   5.216  1.00  0.00     0.002 A 
HETATM   19  C   UNL     1      39.294  -9.613   6.280  1.00  0.00     0.001 A 
HETATM   20  C   UNL     1      40.646  -9.961   6.311  1.00  0.00     0.009 A 
ENDBRANCH  13  14
ENDBRANCH  12  13
ENDBRANCH   7  12
BRANCH   9  21
HETATM   21  C   UNL     1      42.243 -15.755   3.006  1.00  0.00     0.032 A 
HETATM   22  C   UNL     1      40.878 -15.887   3.307  1.00  0.00     0.045 A 
HETATM   23 CL   UNL     1      40.309 -16.432   4.844  1.00  0.00    -0.084 Cl
HETATM   24  C   UNL     1      39.899 -15.575   2.351  1.00  0.00     0.024 A 
HETATM   25  C   UNL     1      40.261 -15.122   1.085  1.00  0.00     0.005 A 
HETATM   26  C   UNL     1      41.607 -14.982   0.770  1.00  0.00     0.043 A 
HETATM   27  C   UNL     1      42.574 -15.296   1.721  1.00  0.00     0.126 A 
HETATM   28  F   UNL     1      43.864 -15.157   1.377  1.00  0.00    -0.205 F 
ENDBRANCH   9  21
BRANCH  10  29
HETATM   29  C   UNL     1      43.787 -18.455   3.255  1.00  0.00     0.293 C 
HETATM   30  O   UNL     1      44.894 -18.823   2.896  1.00  0.00    -0.259 OA
BRANCH  29  31
HETATM   31  O   UNL     1      42.604 -18.900   2.762  1.00  0.00    -0.323 OA
HETATM   32  C   UNL     1      42.714 -20.078   1.962  1.00  0.00     0.213 C 
ENDBRANCH  29  31
ENDBRANCH  10  29
TORSDOF 6
ENDMDL
MODEL 7
REMARK VINA RESULT:      -7.7      3.642      7.653
REMARK  6 active torsions:
REMARK  status: ('A' for Active; 'I' for Inactive)
REMARK    1  A    between atoms: C_7  and  S_8 
REMARK    2  A    between atoms: S_8  and  C_9 
REMARK    3  A    between atoms: C_9  and  C_10 
REMARK    4  A    between atoms: C_18  and  C_19 
REMARK    5  A    between atoms: C_27  and  C_28 
REMARK    6  A    between atoms: C_28  and  O_29 
ROOT
HETATM    1  C   UNL     1      41.341 -11.333   0.971  1.00  0.00     0.070 C 
HETATM    2  C   UNL     1      41.695 -11.794   2.363  1.00  0.00     0.037 A 
HETATM    3  N   UNL     1      42.694 -11.067   2.999  1.00  0.00    -0.192 N 
HETATM    4  C   UNL     1      43.136 -11.342   4.240  1.00  0.00     0.726 A 
HETATM    5  N   UNL     1      42.627 -12.421   4.909  1.00  0.00    -0.082 N 
HETATM    6  N   UNL     1      43.145 -12.517   6.149  1.00  0.00    -0.128 NA
HETATM    7  C   UNL     1      43.996 -11.484   6.147  1.00  0.00     0.226 A 
HETATM    8  N   UNL     1      44.018 -10.738   4.994  1.00  0.00    -0.035 NA
HETATM    9  C   UNL     1      41.588 -13.310   4.371  1.00  0.00     0.208 A 
HETATM   10  C   UNL     1      41.127 -12.856   2.990  1.00  0.00     0.070 A 
HETATM   11  H   UNL     1      43.086 -10.270   2.505  1.00  0.00     0.184 HD
ENDROOT
BRANCH   7  12
HETATM   12  S   UNL     1      44.992 -11.140   7.533  1.00  0.00    -0.083 SA
BRANCH  12  13
HETATM   13  C   UNL     1      44.355  -9.499   7.972  1.00  0.00     0.123 C 
BRANCH  13  14
HETATM   14  C   UNL     1      43.969  -9.418   9.431  1.00  0.00    -0.027 A 
HETATM   15  C   UNL     1      43.554  -8.225  10.044  1.00  0.00     0.041 A 
HETATM   16 CL   UNL     1      43.461  -6.733   9.178  1.00  0.00    -0.084 Cl
HETATM   17  C   UNL     1      43.201  -8.206  11.398  1.00  0.00     0.024 A 
HETATM   18  C   UNL     1      43.253  -9.376  12.155  1.00  0.00     0.002 A 
HETATM   19  C   UNL     1      43.653 -10.568  11.560  1.00  0.00     0.001 A 
HETATM   20  C   UNL     1      44.004 -10.592  10.209  1.00  0.00     0.009 A 
ENDBRANCH  13  14
ENDBRANCH  12  13
ENDBRANCH   7  12
BRANCH   9  21
HETATM   21  C   UNL     1      42.035 -14.759   4.482  1.00  0.00     0.032 A 
HETATM   22  C   UNL     1      41.515 -15.698   5.387  1.00  0.00     0.045 A 
HETATM   23 CL   UNL     1      40.276 -15.310   6.525  1.00  0.00    -0.084 Cl
HETATM   24  C   UNL     1      41.991 -17.018   5.404  1.00  0.00     0.024 A 
HETATM   25  C   UNL     1      42.986 -17.426   4.518  1.00  0.00     0.005 A 
HETATM   26  C   UNL     1      43.510 -16.512   3.614  1.00  0.00     0.043 A 
HETATM   27  C   UNL     1      43.037 -15.202   3.604  1.00  0.00     0.126 A 
HETATM   28  F   UNL     1      43.575 -14.346   2.722  1.00  0.00    -0.205 F 
ENDBRANCH   9  21
BRANCH  10  29
HETATM   29  C   UNL     1      39.988 -13.610   2.425  1.00  0.00     0.293 C 
HETATM   30  O   UNL     1      38.825 -13.429   2.745  1.00  0.00    -0.259 OA
BRANCH  29  31
HETATM   31  O   UNL     1      40.423 -14.455   1.457  1.00  0.00    -0.323 OA
HETATM   32  C   UNL     1      39.963 -15.798   1.609  1.00  0.00     0.213 C 
ENDBRANCH  29  31
ENDBRANCH  10  29
TORSDOF 6
ENDMDL
MODEL 8
REMARK VINA RESULT:      -7.6      3.797      6.228
REMARK  6 active torsions:
REMARK  status: ('A' for Active; 'I' for Inactive)
REMARK    1  A    between atoms: C_7  and  S_8 
REMARK    2  A    between atoms: S_8  and  C_9 
REMARK    3  A    between atoms: C_9  and  C_10 
REMARK    4  A    between atoms: C_18  and  C_19 
REMARK    5  A    between atoms: C_27  and  C_28 
REMARK    6  A    between atoms: C_28  and  O_29 
ROOT
HETATM    1  C   UNL     1      41.896 -10.137   7.509  1.00  0.00     0.070 C 
HETATM    2  C   UNL     1      41.632 -10.784   6.172  1.00  0.00     0.037 A 
HETATM    3  N   UNL     1      40.449 -10.406   5.547  1.00  0.00    -0.192 N 
HETATM    4  C   UNL     1      40.053 -10.888   4.355  1.00  0.00     0.726 A 
HETATM    5  N   UNL     1      40.814 -11.838   3.731  1.00  0.00    -0.082 N 
HETATM    6  N   UNL     1      40.296 -12.168   2.530  1.00  0.00    -0.128 NA
HETATM    7  C   UNL     1      39.196 -11.407   2.513  1.00  0.00     0.226 A 
HETATM    8  N   UNL     1      39.013 -10.605   3.614  1.00  0.00    -0.035 NA
HETATM    9  C   UNL     1      42.075 -12.369   4.266  1.00  0.00     0.208 A 
HETATM   10  C   UNL     1      42.445 -11.700   5.586  1.00  0.00     0.070 A 
HETATM   11  H   UNL     1      39.873  -9.708   6.009  1.00  0.00     0.184 HD
ENDROOT
BRANCH   7  12
HETATM   12  S   UNL     1      38.093 -11.455   1.166  1.00  0.00    -0.083 SA
BRANCH  12  13
HETATM   13  C   UNL     1      39.279 -11.601  -0.199  1.00  0.00     0.123 C 
BRANCH  13  14
HETATM   14  C   UNL     1      38.912 -12.720  -1.145  1.00  0.00    -0.027 A 
HETATM   15  C   UNL     1      39.493 -13.997  -1.076  1.00  0.00     0.041 A 
HETATM   16 CL   UNL     1      40.696 -14.395   0.098  1.00  0.00    -0.084 Cl
HETATM   17  C   UNL     1      39.112 -15.001  -1.973  1.00  0.00     0.024 A 
HETATM   18  C   UNL     1      38.146 -14.746  -2.945  1.00  0.00     0.002 A 
HETATM   19  C   UNL     1      37.554 -13.489  -3.021  1.00  0.00     0.001 A 
HETATM   20  C   UNL     1      37.930 -12.485  -2.126  1.00  0.00     0.009 A 
ENDBRANCH  13  14
ENDBRANCH  12  13
ENDBRANCH   7  12
BRANCH   9  21
HETATM   21  C   UNL     1      42.036 -13.889   4.277  1.00  0.00     0.032 A 
HETATM   22  C   UNL     1      41.221 -14.670   5.111  1.00  0.00     0.045 A 
HETATM   23 CL   UNL     1      40.139 -13.983   6.269  1.00  0.00    -0.084 Cl
HETATM   24  C   UNL     1      41.252 -16.071   5.038  1.00  0.00     0.024 A 
HETATM   25  C   UNL     1      42.089 -16.716   4.131  1.00  0.00     0.005 A 
HETATM   26  C   UNL     1      42.901 -15.960   3.295  1.00  0.00     0.043 A 
HETATM   27  C   UNL     1      42.868 -14.570   3.374  1.00  0.00     0.126 A 
HETATM   28  F   UNL     1      43.674 -13.874   2.558  1.00  0.00    -0.205 F 
ENDBRANCH   9  21
BRANCH  10  29
HETATM   29  C   UNL     1      43.766 -12.072   6.133  1.00  0.00     0.293 C 
HETATM   30  O   UNL     1      43.945 -12.987   6.920  1.00  0.00    -0.259 OA
BRANCH  29  31
HETATM   31  O   UNL     1      44.736 -11.309   5.569  1.00  0.00    -0.323 OA
HETATM   32  C   UNL     1      45.907 -11.169   6.374  1.00  0.00     0.213 C 
ENDBRANCH  29  31
ENDBRANCH  10  29
TORSDOF 6
ENDMDL
MODEL 9
REMARK VINA RESULT:      -7.6      4.007      7.927
REMARK  6 active torsions:
REMARK  status: ('A' for Active; 'I' for Inactive)
REMARK    1  A    between atoms: C_7  and  S_8 
REMARK    2  A    between atoms: S_8  and  C_9 
REMARK    3  A    between atoms: C_9  and  C_10 
REMARK    4  A    between atoms: C_18  and  C_19 
REMARK    5  A    between atoms: C_27  and  C_28 
REMARK    6  A    between atoms: C_28  and  O_29 
ROOT
HETATM    1  C   UNL     1      43.558 -18.499   6.825  1.00  0.00     0.070 C 
HETATM    2  C   UNL     1      43.449 -17.167   6.125  1.00  0.00     0.037 A 
HETATM    3  N   UNL     1      43.250 -16.069   6.954  1.00  0.00    -0.192 N 
HETATM    4  C   UNL     1      43.127 -14.809   6.499  1.00  0.00     0.726 A 
HETATM    5  N   UNL     1      43.143 -14.578   5.151  1.00  0.00    -0.082 N 
HETATM    6  N   UNL     1      43.057 -13.261   4.879  1.00  0.00    -0.128 NA
HETATM    7  C   UNL     1      42.949 -12.755   6.113  1.00  0.00     0.226 A 
HETATM    8  N   UNL     1      42.990 -13.673   7.134  1.00  0.00    -0.035 NA
HETATM    9  C   UNL     1      43.313 -15.627   4.136  1.00  0.00     0.208 A 
HETATM   10  C   UNL     1      43.507 -16.997   4.779  1.00  0.00     0.070 A 
HETATM   11  H   UNL     1      43.227 -16.232   7.957  1.00  0.00     0.184 HD
ENDROOT
BRANCH   7  12
HETATM   12  S   UNL     1      42.771 -11.042   6.368  1.00  0.00    -0.083 SA
BRANCH  12  13
HETATM   13  C   UNL     1      43.866 -10.826   7.798  1.00  0.00     0.123 C 
BRANCH  13  14
HETATM   14  C   UNL     1      43.307  -9.831   8.788  1.00  0.00    -0.027 A 
HETATM   15  C   UNL     1      43.978  -9.474   9.969  1.00  0.00     0.041 A 
HETATM   16 CL   UNL     1      45.505 -10.158  10.400  1.00  0.00    -0.084 Cl
HETATM   17  C   UNL     1      43.419  -8.541  10.849  1.00  0.00     0.024 A 
HETATM   18  C   UNL     1      42.189  -7.950  10.562  1.00  0.00     0.002 A 
HETATM   19  C   UNL     1      41.517  -8.287   9.391  1.00  0.00     0.001 A 
HETATM   20  C   UNL     1      42.072  -9.216   8.509  1.00  0.00     0.009 A 
ENDBRANCH  13  14
ENDBRANCH  12  13
ENDBRANCH   7  12
BRANCH   9  21
HETATM   21  C   UNL     1      42.210 -15.529   3.096  1.00  0.00     0.032 A 
HETATM   22  C   UNL     1      40.853 -15.802   3.330  1.00  0.00     0.045 A 
HETATM   23 CL   UNL     1      40.254 -16.309   4.868  1.00  0.00    -0.084 Cl
HETATM   24  C   UNL     1      39.907 -15.672   2.301  1.00  0.00     0.024 A 
HETATM   25  C   UNL     1      40.294 -15.262   1.027  1.00  0.00     0.005 A 
HETATM   26  C   UNL     1      41.632 -14.984   0.778  1.00  0.00     0.043 A 
HETATM   27  C   UNL     1      42.567 -15.118   1.802  1.00  0.00     0.126 A 
HETATM   28  F   UNL     1      43.851 -14.850   1.519  1.00  0.00    -0.205 F 
ENDBRANCH   9  21
BRANCH  10  29
HETATM   29  C   UNL     1      43.821 -18.095   3.841  1.00  0.00     0.293 C 
HETATM   30  O   UNL     1      44.899 -18.664   3.794  1.00  0.00    -0.259 OA
BRANCH  29  31
HETATM   31  O   UNL     1      42.720 -18.420   3.119  1.00  0.00    -0.323 OA
HETATM   32  C   UNL     1      42.962 -19.382   2.091  1.00  0.00     0.213 C 
ENDBRANCH  29  31
ENDBRANCH  10  29
TORSDOF 6
ENDMDL
MODEL 10
REMARK VINA RESULT:      -7.5      1.773      2.025
REMARK  6 active torsions:
REMARK  status: ('A' for Active; 'I' for Inactive)
REMARK    1  A    between atoms: C_7  and  S_8 
REMARK    2  A    between atoms: S_8  and  C_9 
REMARK    3  A    between atoms: C_9  and  C_10 
REMARK    4  A    between atoms: C_18  and  C_19 
REMARK    5  A    between atoms: C_27  and  C_28 
REMARK    6  A    between atoms: C_28  and  O_29 
ROOT
HETATM    1  C   UNL     1      44.139 -10.364   8.036  1.00  0.00     0.070 C 
HETATM    2  C   UNL     1      43.102 -11.098   7.223  1.00  0.00     0.037 A 
HETATM    3  N   UNL     1      43.448 -12.387   6.832  1.00  0.00    -0.192 N 
HETATM    4  C   UNL     1      42.646 -13.180   6.100  1.00  0.00     0.726 A 
HETATM    5  N   UNL     1      41.443 -12.697   5.663  1.00  0.00    -0.082 N 
HETATM    6  N   UNL     1      40.753 -13.639   4.990  1.00  0.00    -0.128 NA
HETATM    7  C   UNL     1      41.620 -14.658   5.023  1.00  0.00     0.226 A 
HETATM    8  N   UNL     1      42.792 -14.416   5.697  1.00  0.00    -0.035 NA
HETATM    9  C   UNL     1      40.938 -11.350   5.961  1.00  0.00     0.208 A 
HETATM   10  C   UNL     1      41.907 -10.575   6.848  1.00  0.00     0.070 A 
HETATM   11  H   UNL     1      44.345 -12.750   7.144  1.00  0.00     0.184 HD
ENDROOT
BRANCH   7  12
HETATM   12  S   UNL     1      41.250 -16.175   4.251  1.00  0.00    -0.083 SA
BRANCH  12  13
HETATM   13  C   UNL     1      42.796 -16.443   3.341  1.00  0.00     0.123 C 
BRANCH  13  14
HETATM   14  C   UNL     1      43.201 -17.899   3.337  1.00  0.00    -0.027 A 
HETATM   15  C   UNL     1      43.785 -18.530   4.447  1.00  0.00     0.041 A 
HETATM   16 CL   UNL     1      44.106 -17.684   5.918  1.00  0.00    -0.084 Cl
HETATM   17  C   UNL     1      44.135 -19.883   4.393  1.00  0.00     0.024 A 
HETATM   18  C   UNL     1      43.903 -20.625   3.235  1.00  0.00     0.002 A 
HETATM   19  C   UNL     1      43.316 -20.017   2.130  1.00  0.00     0.001 A 
HETATM   20  C   UNL     1      42.963 -18.666   2.180  1.00  0.00     0.009 A 
ENDBRANCH  13  14
ENDBRANCH  12  13
ENDBRANCH   7  12
BRANCH   9  21
HETATM   21  C   UNL     1      40.512 -10.659   4.675  1.00  0.00     0.032 A 
HETATM   22  C   UNL     1      41.343 -10.432   3.567  1.00  0.00     0.045 A 
HETATM   23 CL   UNL     1      43.001 -10.912   3.529  1.00  0.00    -0.084 Cl
HETATM   24  C   UNL     1      40.850  -9.791   2.419  1.00  0.00     0.024 A 
HETATM   25  C   UNL     1      39.523  -9.372   2.354  1.00  0.00     0.005 A 
HETATM   26  C   UNL     1      38.685  -9.591   3.440  1.00  0.00     0.043 A 
HETATM   27  C   UNL     1      39.180 -10.225   4.577  1.00  0.00     0.126 A 
HETATM   28  F   UNL     1      38.343 -10.410   5.609  1.00  0.00    -0.205 F 
ENDBRANCH   9  21
BRANCH  10  29
HETATM   29  C   UNL     1      41.422  -9.258   7.311  1.00  0.00     0.293 C 
HETATM   30  O   UNL     1      41.830  -8.192   6.881  1.00  0.00    -0.259 OA
BRANCH  29  31
HETATM   31  O   UNL     1      40.416  -9.420   8.207  1.00  0.00    -0.323 OA
HETATM   32  C   UNL     1      39.583  -8.271   8.359  1.00  0.00     0.213 C 
ENDBRANCH  29  31
ENDBRANCH  10  29
TORSDOF 6
ENDMDL
