MODEL 1
REMARK VINA RESULT:      -7.9      0.000      0.000
REMARK  5 active torsions:
REMARK  status: ('A' for Active; 'I' for Inactive)
REMARK    1  A    between atoms: C_8  and  N_9 
REMARK       I    between atoms: N_9  and  C_10 
REMARK    2  A    between atoms: C_10  and  C_11 
REMARK    3  A    between atoms: C_11  and  N_12 
REMARK    4  A    between atoms: N_12  and  C_13 
REMARK    5  A    between atoms: C_13  and  C_14 
ROOT
HETATM    1  C   UNL     1      40.666 -15.181   0.784  1.00  0.00     0.372 C 
ENDROOT
BRANCH   1   2
HETATM    2  C   UNL     1      40.287 -13.922  -0.011  1.00  0.00     0.250 C 
HETATM    3  N   UNL     1      39.048 -14.031  -0.605  1.00  0.00    -0.322 N 
HETATM    4  H   UNL     1      38.573 -14.911  -0.422  1.00  0.00     0.169 HD
HETATM    5  O   UNL     1      41.043 -12.958  -0.046  1.00  0.00    -0.271 OA
BRANCH   3   6
HETATM    6  C   UNL     1      38.407 -13.123  -1.426  1.00  0.00     0.085 A 
HETATM    7  C   UNL     1      38.071 -13.439  -2.729  1.00  0.00     0.052 A 
HETATM    8  C   UNL     1      38.256 -14.662  -3.544  1.00  0.00     0.072 C 
HETATM    9  N   UNL     1      37.473 -12.324  -3.243  1.00  0.00    -0.280 N 
HETATM   10  H   UNL     1      37.098 -12.187  -4.176  1.00  0.00     0.189 HD
HETATM   11  N   UNL     1      37.395 -11.307  -2.382  1.00  0.00    -0.177 NA
HETATM   12  C   UNL     1      37.960 -11.779  -1.259  1.00  0.00     0.079 A 
HETATM   13  C   UNL     1      38.028 -10.874  -0.083  1.00  0.00     0.075 C 
ENDBRANCH   3   6
ENDBRANCH   1   2
BRANCH   1  14
HETATM   14  N   UNL     1      42.115 -15.178   1.119  1.00  0.00     0.100 N 
HETATM   15  H   UNL     1      42.504 -14.309   0.741  1.00  0.00     0.317 HD
BRANCH  14  16
HETATM   16  C   UNL     1      42.326 -15.151   2.579  1.00  0.00     0.250 C 
HETATM   17  C   UNL     1      43.206 -13.944   2.925  1.00  0.00     0.048 C 
BRANCH  16  18
HETATM   18  C   UNL     1      42.958 -16.422   3.122  1.00  0.00    -0.024 A 
HETATM   19  C   UNL     1      42.984 -17.610   2.368  1.00  0.00     0.036 A 
HETATM   20  C   UNL     1      43.587 -18.760   2.880  1.00  0.00     0.073 A 
HETATM   21 CL   UNL     1      43.600 -20.199   1.936  1.00  0.00    -0.081 Cl
HETATM   22  C   UNL     1      44.171 -18.734   4.142  1.00  0.00     0.138 A 
HETATM   23  F   UNL     1      44.760 -19.826   4.651  1.00  0.00    -0.204 F 
HETATM   24  C   UNL     1      44.161 -17.568   4.902  1.00  0.00     0.044 A 
HETATM   25  C   UNL     1      43.556 -16.416   4.394  1.00  0.00     0.012 A 
ENDBRANCH  16  18
ENDBRANCH  14  16
ENDBRANCH   1  14
TORSDOF 5
ENDMDL
MODEL 2
REMARK VINA RESULT:      -7.8      3.980      4.957
REMARK  5 active torsions:
REMARK  status: ('A' for Active; 'I' for Inactive)
REMARK    1  A    between atoms: C_8  and  N_9 
REMARK       I    between atoms: N_9  and  C_10 
REMARK    2  A    between atoms: C_10  and  C_11 
REMARK    3  A    between atoms: C_11  and  N_12 
REMARK    4  A    between atoms: N_12  and  C_13 
REMARK    5  A    between atoms: C_13  and  C_14 
ROOT
HETATM    1  C   UNL     1      42.239 -15.206   7.081  1.00  0.00     0.372 C 
ENDROOT
BRANCH   1   2
HETATM    2  C   UNL     1      40.953 -14.841   6.323  1.00  0.00     0.250 C 
HETATM    3  N   UNL     1      41.214 -14.271   5.095  1.00  0.00    -0.322 N 
HETATM    4  H   UNL     1      42.202 -14.189   4.873  1.00  0.00     0.169 HD
HETATM    5  O   UNL     1      39.855 -15.083   6.810  1.00  0.00    -0.271 OA
BRANCH   3   6
HETATM    6  C   UNL     1      40.313 -13.781   4.168  1.00  0.00     0.085 A 
HETATM    7  C   UNL     1      39.953 -14.514   3.053  1.00  0.00     0.052 A 
HETATM    8  C   UNL     1      40.350 -15.855   2.562  1.00  0.00     0.072 C 
HETATM    9  N   UNL     1      39.071 -13.735   2.361  1.00  0.00    -0.280 N 
HETATM   10  H   UNL     1      38.599 -13.945   1.488  1.00  0.00     0.189 HD
HETATM   11  N   UNL     1      38.831 -12.553   2.933  1.00  0.00    -0.177 NA
HETATM   12  C   UNL     1      39.580 -12.563   4.047  1.00  0.00     0.079 A 
HETATM   13  C   UNL     1      39.533 -11.369   4.927  1.00  0.00     0.075 C 
ENDBRANCH   3   6
ENDBRANCH   1   2
BRANCH   1  14
HETATM   14  N   UNL     1      42.430 -16.680   7.118  1.00  0.00     0.100 N 
HETATM   15  H   UNL     1      41.749 -17.083   6.466  1.00  0.00     0.317 HD
BRANCH  14  16
HETATM   16  C   UNL     1      43.772 -17.058   6.634  1.00  0.00     0.250 C 
HETATM   17  C   UNL     1      44.632 -15.793   6.534  1.00  0.00     0.048 C 
BRANCH  16  18
HETATM   18  C   UNL     1      43.751 -17.773   5.293  1.00  0.00    -0.024 A 
HETATM   19  C   UNL     1      43.938 -19.166   5.200  1.00  0.00     0.036 A 
HETATM   20  C   UNL     1      43.897 -19.804   3.959  1.00  0.00     0.073 A 
HETATM   21 CL   UNL     1      44.132 -21.507   3.875  1.00  0.00    -0.081 Cl
HETATM   22  C   UNL     1      43.666 -19.061   2.805  1.00  0.00     0.138 A 
HETATM   23  F   UNL     1      43.618 -19.655   1.603  1.00  0.00    -0.204 F 
HETATM   24  C   UNL     1      43.474 -17.685   2.875  1.00  0.00     0.044 A 
HETATM   25  C   UNL     1      43.516 -17.043   4.116  1.00  0.00     0.012 A 
ENDBRANCH  16  18
ENDBRANCH  14  16
ENDBRANCH   1  14
TORSDOF 5
ENDMDL
MODEL 3
REMARK VINA RESULT:      -7.7      2.450      3.314
REMARK  5 active torsions:
REMARK  status: ('A' for Active; 'I' for Inactive)
REMARK    1  A    between atoms: C_8  and  N_9 
REMARK       I    between atoms: N_9  and  C_10 
REMARK    2  A    between atoms: C_10  and  C_11 
REMARK    3  A    between atoms: C_11  and  N_12 
REMARK    4  A    between atoms: N_12  and  C_13 
REMARK    5  A    between atoms: C_13  and  C_14 
ROOT
HETATM    1  C   UNL     1      42.008 -13.103   4.573  1.00  0.00     0.372 C 
ENDROOT
BRANCH   1   2
HETATM    2  C   UNL     1      40.907 -13.224   3.508  1.00  0.00     0.250 C 
HETATM    3  N   UNL     1      41.420 -13.439   2.246  1.00  0.00    -0.322 N 
HETATM    4  H   UNL     1      42.435 -13.495   2.212  1.00  0.00     0.169 HD
HETATM    5  O   UNL     1      39.725 -13.152   3.824  1.00  0.00    -0.271 OA
BRANCH   3   6
HETATM    6  C   UNL     1      40.738 -13.551   1.050  1.00  0.00     0.085 A 
HETATM    7  C   UNL     1      40.067 -14.710   0.706  1.00  0.00     0.052 A 
HETATM    8  C   UNL     1      39.887 -16.007   1.398  1.00  0.00     0.072 C 
HETATM    9  N   UNL     1      39.526 -14.478  -0.526  1.00  0.00    -0.280 N 
HETATM   10  H   UNL     1      38.968 -15.106  -1.094  1.00  0.00     0.189 HD
HETATM   11  N   UNL     1      39.792 -13.264  -1.013  1.00  0.00    -0.177 NA
HETATM   12  C   UNL     1      40.532 -12.677  -0.059  1.00  0.00     0.079 A 
HETATM   13  C   UNL     1      40.995 -11.287  -0.296  1.00  0.00     0.075 C 
ENDBRANCH   3   6
ENDBRANCH   1   2
BRANCH   1  14
HETATM   14  N   UNL     1      43.098 -14.082   4.317  1.00  0.00     0.100 N 
HETATM   15  H   UNL     1      43.968 -13.648   4.640  1.00  0.00     0.317 HD
BRANCH  14  16
HETATM   16  C   UNL     1      42.907 -15.313   5.108  1.00  0.00     0.250 C 
HETATM   17  C   UNL     1      43.770 -15.224   6.372  1.00  0.00     0.048 C 
BRANCH  16  18
HETATM   18  C   UNL     1      43.245 -16.582   4.343  1.00  0.00    -0.024 A 
HETATM   19  C   UNL     1      43.650 -17.755   5.007  1.00  0.00     0.036 A 
HETATM   20  C   UNL     1      43.939 -18.914   4.284  1.00  0.00     0.073 A 
HETATM   21 CL   UNL     1      44.435 -20.332   5.123  1.00  0.00    -0.081 Cl
HETATM   22  C   UNL     1      43.822 -18.914   2.897  1.00  0.00     0.138 A 
HETATM   23  F   UNL     1      44.089 -20.018   2.184  1.00  0.00    -0.204 F 
HETATM   24  C   UNL     1      43.419 -17.766   2.222  1.00  0.00     0.044 A 
HETATM   25  C   UNL     1      43.131 -16.604   2.942  1.00  0.00     0.012 A 
ENDBRANCH  16  18
ENDBRANCH  14  16
ENDBRANCH   1  14
TORSDOF 5
ENDMDL
MODEL 4
REMARK VINA RESULT:      -7.6      0.985      1.986
REMARK  5 active torsions:
REMARK  status: ('A' for Active; 'I' for Inactive)
REMARK    1  A    between atoms: C_8  and  N_9 
REMARK       I    between atoms: N_9  and  C_10 
REMARK    2  A    between atoms: C_10  and  C_11 
REMARK    3  A    between atoms: C_11  and  N_12 
REMARK    4  A    between atoms: N_12  and  C_13 
REMARK    5  A    between atoms: C_13  and  C_14 
ROOT
HETATM    1  C   UNL     1      41.669 -14.257   1.166  1.00  0.00     0.372 C 
ENDROOT
BRANCH   1   2
HETATM    2  C   UNL     1      40.361 -14.403   0.371  1.00  0.00     0.250 C 
HETATM    3  N   UNL     1      40.082 -13.285  -0.386  1.00  0.00    -0.322 N 
HETATM    4  H   UNL     1      40.777 -12.547  -0.315  1.00  0.00     0.169 HD
HETATM    5  O   UNL     1      39.707 -15.437   0.436  1.00  0.00    -0.271 OA
BRANCH   3   6
HETATM    6  C   UNL     1      38.979 -13.042  -1.183  1.00  0.00     0.085 A 
HETATM    7  C   UNL     1      38.200 -11.912  -1.014  1.00  0.00     0.052 A 
HETATM    8  C   UNL     1      38.279 -10.771  -0.072  1.00  0.00     0.072 C 
HETATM    9  N   UNL     1      37.206 -12.000  -1.946  1.00  0.00    -0.280 N 
HETATM   10  H   UNL     1      36.446 -11.349  -2.115  1.00  0.00     0.189 HD
HETATM   11  N   UNL     1      37.273 -13.095  -2.706  1.00  0.00    -0.177 NA
HETATM   12  C   UNL     1      38.357 -13.747  -2.256  1.00  0.00     0.079 A 
HETATM   13  C   UNL     1      38.718 -15.030  -2.911  1.00  0.00     0.075 C 
ENDBRANCH   3   6
ENDBRANCH   1   2
BRANCH   1  14
HETATM   14  N   UNL     1      42.205 -15.590   1.547  1.00  0.00     0.100 N 
HETATM   15  H   UNL     1      43.172 -15.628   1.210  1.00  0.00     0.317 HD
BRANCH  14  16
HETATM   16  C   UNL     1      42.249 -15.748   3.014  1.00  0.00     0.250 C 
HETATM   17  C   UNL     1      42.996 -14.552   3.615  1.00  0.00     0.048 C 
BRANCH  16  18
HETATM   18  C   UNL     1      42.907 -17.043   3.462  1.00  0.00    -0.024 A 
HETATM   19  C   UNL     1      43.120 -18.108   2.567  1.00  0.00     0.036 A 
HETATM   20  C   UNL     1      43.742 -19.281   2.996  1.00  0.00     0.073 A 
HETATM   21 CL   UNL     1      43.985 -20.568   1.880  1.00  0.00    -0.081 Cl
HETATM   22  C   UNL     1      44.161 -19.400   4.318  1.00  0.00     0.138 A 
HETATM   23  F   UNL     1      44.766 -20.516   4.751  1.00  0.00    -0.204 F 
HETATM   24  C   UNL     1      43.965 -18.357   5.219  1.00  0.00     0.044 A 
HETATM   25  C   UNL     1      43.340 -17.182   4.792  1.00  0.00     0.012 A 
ENDBRANCH  16  18
ENDBRANCH  14  16
ENDBRANCH   1  14
TORSDOF 5
ENDMDL
MODEL 5
REMARK VINA RESULT:      -7.5      4.160      6.719
REMARK  5 active torsions:
REMARK  status: ('A' for Active; 'I' for Inactive)
REMARK    1  A    between atoms: C_8  and  N_9 
REMARK       I    between atoms: N_9  and  C_10 
REMARK    2  A    between atoms: C_10  and  C_11 
REMARK    3  A    between atoms: C_11  and  N_12 
REMARK    4  A    between atoms: N_12  and  C_13 
REMARK    5  A    between atoms: C_13  and  C_14 
ROOT
HETATM    1  C   UNL     1      39.923 -13.388   3.857  1.00  0.00     0.372 C 
ENDROOT
BRANCH   1   2
HETATM    2  C   UNL     1      40.409 -12.896   5.229  1.00  0.00     0.250 C 
HETATM    3  N   UNL     1      41.634 -12.266   5.155  1.00  0.00    -0.322 N 
HETATM    4  H   UNL     1      42.021 -12.213   4.216  1.00  0.00     0.169 HD
HETATM    5  O   UNL     1      39.719 -13.058   6.228  1.00  0.00    -0.271 OA
BRANCH   3   6
HETATM    6  C   UNL     1      42.392 -11.742   6.184  1.00  0.00     0.085 A 
HETATM    7  C   UNL     1      43.346 -12.501   6.837  1.00  0.00     0.052 A 
HETATM    8  C   UNL     1      43.797 -13.903   6.673  1.00  0.00     0.072 C 
HETATM    9  N   UNL     1      43.886 -11.686   7.790  1.00  0.00    -0.280 N 
HETATM   10  H   UNL     1      44.615 -11.903   8.462  1.00  0.00     0.189 HD
HETATM   11  N   UNL     1      43.360 -10.459   7.812  1.00  0.00    -0.177 NA
HETATM   12  C   UNL     1      42.444 -10.472   6.831  1.00  0.00     0.079 A 
HETATM   13  C   UNL     1      41.669  -9.229   6.588  1.00  0.00     0.075 C 
ENDBRANCH   3   6
ENDBRANCH   1   2
BRANCH   1  14
HETATM   14  N   UNL     1      39.987 -14.872   3.776  1.00  0.00     0.100 N 
HETATM   15  H   UNL     1      39.057 -15.193   3.492  1.00  0.00     0.317 HD
BRANCH  14  16
HETATM   16  C   UNL     1      40.937 -15.310   2.735  1.00  0.00     0.250 C 
HETATM   17  C   UNL     1      40.143 -15.912   1.570  1.00  0.00     0.048 C 
BRANCH  16  18
HETATM   18  C   UNL     1      41.960 -16.317   3.236  1.00  0.00    -0.024 A 
HETATM   19  C   UNL     1      42.199 -16.500   4.611  1.00  0.00     0.036 A 
HETATM   20  C   UNL     1      43.130 -17.443   5.048  1.00  0.00     0.073 A 
HETATM   21 CL   UNL     1      43.404 -17.643   6.735  1.00  0.00    -0.081 Cl
HETATM   22  C   UNL     1      43.826 -18.212   4.119  1.00  0.00     0.138 A 
HETATM   23  F   UNL     1      44.722 -19.128   4.518  1.00  0.00    -0.204 F 
HETATM   24  C   UNL     1      43.601 -18.050   2.756  1.00  0.00     0.044 A 
HETATM   25  C   UNL     1      42.671 -17.106   2.315  1.00  0.00     0.012 A 
ENDBRANCH  16  18
ENDBRANCH  14  16
ENDBRANCH   1  14
TORSDOF 5
ENDMDL
MODEL 6
REMARK VINA RESULT:      -7.4      4.137      6.158
REMARK  5 active torsions:
REMARK  status: ('A' for Active; 'I' for Inactive)
REMARK    1  A    between atoms: C_8  and  N_9 
REMARK       I    between atoms: N_9  and  C_10 
REMARK    2  A    between atoms: C_10  and  C_11 
REMARK    3  A    between atoms: C_11  and  N_12 
REMARK    4  A    between atoms: N_12  and  C_13 
REMARK    5  A    between atoms: C_13  and  C_14 
ROOT
HETATM    1  C   UNL     1      40.832 -13.995   2.999  1.00  0.00     0.372 C 
ENDROOT
BRANCH   1   2
HETATM    2  C   UNL     1      40.885 -13.259   4.347  1.00  0.00     0.250 C 
HETATM    3  N   UNL     1      42.116 -12.685   4.582  1.00  0.00    -0.322 N 
HETATM    4  H   UNL     1      42.791 -12.823   3.834  1.00  0.00     0.169 HD
HETATM    5  O   UNL     1      39.895 -13.211   5.068  1.00  0.00    -0.271 OA
BRANCH   3   6
HETATM    6  C   UNL     1      42.540 -11.991   5.699  1.00  0.00     0.085 A 
HETATM    7  C   UNL     1      43.314 -12.595   6.674  1.00  0.00     0.052 A 
HETATM    8  C   UNL     1      43.857 -13.965   6.817  1.00  0.00     0.072 C 
HETATM    9  N   UNL     1      43.535 -11.638   7.622  1.00  0.00    -0.280 N 
HETATM   10  H   UNL     1      44.062 -11.720   8.485  1.00  0.00     0.189 HD
HETATM   11  N   UNL     1      42.966 -10.462   7.346  1.00  0.00    -0.177 NA
HETATM   12  C   UNL     1      42.354 -10.657   6.167  1.00  0.00     0.079 A 
HETATM   13  C   UNL     1      41.618  -9.514   5.570  1.00  0.00     0.075 C 
ENDBRANCH   3   6
ENDBRANCH   1   2
BRANCH   1  14
HETATM   14  N   UNL     1      41.226 -15.420   3.160  1.00  0.00     0.100 N 
HETATM   15  H   UNL     1      40.756 -15.943   2.416  1.00  0.00     0.317 HD
BRANCH  14  16
HETATM   16  C   UNL     1      42.679 -15.598   2.967  1.00  0.00     0.250 C 
HETATM   17  C   UNL     1      43.003 -15.404   1.481  1.00  0.00     0.048 C 
BRANCH  16  18
HETATM   18  C   UNL     1      43.189 -16.952   3.432  1.00  0.00    -0.024 A 
HETATM   19  C   UNL     1      43.299 -18.040   2.546  1.00  0.00     0.036 A 
HETATM   20  C   UNL     1      43.787 -19.269   2.992  1.00  0.00     0.073 A 
HETATM   21 CL   UNL     1      43.907 -20.583   1.886  1.00  0.00    -0.081 Cl
HETATM   22  C   UNL     1      44.173 -19.422   4.320  1.00  0.00     0.138 A 
HETATM   23  F   UNL     1      44.650 -20.593   4.768  1.00  0.00    -0.204 F 
HETATM   24  C   UNL     1      44.077 -18.357   5.211  1.00  0.00     0.044 A 
HETATM   25  C   UNL     1      43.587 -17.126   4.769  1.00  0.00     0.012 A 
ENDBRANCH  16  18
ENDBRANCH  14  16
ENDBRANCH   1  14
TORSDOF 5
ENDMDL
MODEL 7
REMARK VINA RESULT:      -7.2     14.990     17.089
REMARK  5 active torsions:
REMARK  status: ('A' for Active; 'I' for Inactive)
REMARK    1  A    between atoms: C_8  and  N_9 
REMARK       I    between atoms: N_9  and  C_10 
REMARK    2  A    between atoms: C_10  and  C_11 
REMARK    3  A    between atoms: C_11  and  N_12 
REMARK    4  A    between atoms: N_12  and  C_13 
REMARK    5  A    between atoms: C_13  and  C_14 
ROOT
HETATM    1  C   UNL     1      45.119 -29.432   2.404  1.00  0.00     0.372 C 
ENDROOT
BRANCH   1   2
HETATM    2  C   UNL     1      46.500 -28.974   1.908  1.00  0.00     0.250 C 
HETATM    3  N   UNL     1      47.234 -30.012   1.373  1.00  0.00    -0.322 N 
HETATM    4  H   UNL     1      46.754 -30.908   1.377  1.00  0.00     0.169 HD
HETATM    5  O   UNL     1      46.832 -27.798   1.990  1.00  0.00    -0.271 OA
BRANCH   3   6
HETATM    6  C   UNL     1      48.523 -29.984   0.876  1.00  0.00     0.085 A 
HETATM    7  C   UNL     1      49.615 -30.229   1.689  1.00  0.00     0.052 A 
HETATM    8  C   UNL     1      49.742 -30.550   3.129  1.00  0.00     0.072 C 
HETATM    9  N   UNL     1      50.713 -30.109   0.885  1.00  0.00    -0.280 N 
HETATM   10  H   UNL     1      51.690 -30.218   1.138  1.00  0.00     0.189 HD
HETATM   11  N   UNL     1      50.425 -29.805  -0.382  1.00  0.00    -0.177 NA
HETATM   12  C   UNL     1      49.085 -29.728  -0.409  1.00  0.00     0.079 A 
HETATM   13  C   UNL     1      48.434 -29.403  -1.704  1.00  0.00     0.075 C 
ENDBRANCH   3   6
ENDBRANCH   1   2
BRANCH   1  14
HETATM   14  N   UNL     1      44.038 -28.840   1.572  1.00  0.00     0.100 N 
HETATM   15  H   UNL     1      44.486 -28.180   0.929  1.00  0.00     0.317 HD
BRANCH  14  16
HETATM   16  C   UNL     1      43.376 -29.869   0.747  1.00  0.00     0.250 C 
HETATM   17  C   UNL     1      43.452 -31.212   1.483  1.00  0.00     0.048 C 
BRANCH  16  18
HETATM   18  C   UNL     1      43.976 -30.009  -0.642  1.00  0.00    -0.024 A 
HETATM   19  C   UNL     1      44.272 -28.881  -1.432  1.00  0.00     0.036 A 
HETATM   20  C   UNL     1      44.841 -29.033  -2.698  1.00  0.00     0.073 A 
HETATM   21 CL   UNL     1      45.188 -27.637  -3.642  1.00  0.00    -0.081 Cl
HETATM   22  C   UNL     1      45.122 -30.307  -3.183  1.00  0.00     0.138 A 
HETATM   23  F   UNL     1      45.673 -30.475  -4.395  1.00  0.00    -0.204 F 
HETATM   24  C   UNL     1      44.842 -31.434  -2.417  1.00  0.00     0.044 A 
HETATM   25  C   UNL     1      44.271 -31.285  -1.150  1.00  0.00     0.012 A 
ENDBRANCH  16  18
ENDBRANCH  14  16
ENDBRANCH   1  14
TORSDOF 5
ENDMDL
MODEL 8
REMARK VINA RESULT:      -7.1      4.162      7.383
REMARK  5 active torsions:
REMARK  status: ('A' for Active; 'I' for Inactive)
REMARK    1  A    between atoms: C_8  and  N_9 
REMARK       I    between atoms: N_9  and  C_10 
REMARK    2  A    between atoms: C_10  and  C_11 
REMARK    3  A    between atoms: C_11  and  N_12 
REMARK    4  A    between atoms: N_12  and  C_13 
REMARK    5  A    between atoms: C_13  and  C_14 
ROOT
HETATM    1  C   UNL     1      39.949 -15.634   2.067  1.00  0.00     0.372 C 
ENDROOT
BRANCH   1   2
HETATM    2  C   UNL     1      40.752 -16.197   3.251  1.00  0.00     0.250 C 
HETATM    3  N   UNL     1      42.060 -16.473   2.912  1.00  0.00    -0.322 N 
HETATM    4  H   UNL     1      42.296 -16.257   1.947  1.00  0.00     0.169 HD
HETATM    5  O   UNL     1      40.227 -16.332   4.349  1.00  0.00    -0.271 OA
BRANCH   3   6
HETATM    6  C   UNL     1      43.051 -17.027   3.699  1.00  0.00     0.085 A 
HETATM    7  C   UNL     1      43.622 -18.248   3.389  1.00  0.00     0.052 A 
HETATM    8  C   UNL     1      43.395 -19.210   2.285  1.00  0.00     0.072 C 
HETATM    9  N   UNL     1      44.540 -18.492   4.370  1.00  0.00    -0.280 N 
HETATM   10  H   UNL     1      45.149 -19.297   4.472  1.00  0.00     0.189 HD
HETATM   11  N   UNL     1      44.611 -17.531   5.294  1.00  0.00    -0.177 NA
HETATM   12  C   UNL     1      43.708 -16.621   4.898  1.00  0.00     0.079 A 
HETATM   13  C   UNL     1      43.542 -15.401   5.727  1.00  0.00     0.075 C 
ENDBRANCH   3   6
ENDBRANCH   1   2
BRANCH   1  14
HETATM   14  N   UNL     1      38.963 -14.623   2.532  1.00  0.00     0.100 N 
HETATM   15  H   UNL     1      38.820 -14.787   3.533  1.00  0.00     0.317 HD
BRANCH  14  16
HETATM   16  C   UNL     1      39.493 -13.253   2.388  1.00  0.00     0.250 C 
HETATM   17  C   UNL     1      40.286 -13.169   1.078  1.00  0.00     0.048 C 
BRANCH  16  18
HETATM   18  C   UNL     1      40.372 -12.820   3.550  1.00  0.00    -0.024 A 
HETATM   19  C   UNL     1      41.714 -12.441   3.355  1.00  0.00     0.036 A 
HETATM   20  C   UNL     1      42.497 -12.029   4.435  1.00  0.00     0.073 A 
HETATM   21 CL   UNL     1      44.135 -11.576   4.167  1.00  0.00    -0.081 Cl
HETATM   22  C   UNL     1      41.948 -11.987   5.713  1.00  0.00     0.138 A 
HETATM   23  F   UNL     1      42.681 -11.590   6.764  1.00  0.00    -0.204 F 
HETATM   24  C   UNL     1      40.622 -12.353   5.926  1.00  0.00     0.044 A 
HETATM   25  C   UNL     1      39.837 -12.767   4.848  1.00  0.00     0.012 A 
ENDBRANCH  16  18
ENDBRANCH  14  16
ENDBRANCH   1  14
TORSDOF 5
ENDMDL
MODEL 9
REMARK VINA RESULT:      -7.1     14.625     17.020
REMARK  5 active torsions:
REMARK  status: ('A' for Active; 'I' for Inactive)
REMARK    1  A    between atoms: C_8  and  N_9 
REMARK       I    between atoms: N_9  and  C_10 
REMARK    2  A    between atoms: C_10  and  C_11 
REMARK    3  A    between atoms: C_11  and  N_12 
REMARK    4  A    between atoms: N_12  and  C_13 
REMARK    5  A    between atoms: C_13  and  C_14 
ROOT
HETATM    1  C   UNL     1      45.016 -29.829   2.195  1.00  0.00     0.372 C 
ENDROOT
BRANCH   1   2
HETATM    2  C   UNL     1      46.439 -29.263   2.067  1.00  0.00     0.250 C 
HETATM    3  N   UNL     1      47.392 -30.257   1.994  1.00  0.00    -0.322 N 
HETATM    4  H   UNL     1      47.015 -31.201   2.024  1.00  0.00     0.169 HD
HETATM    5  O   UNL     1      46.625 -28.053   2.018  1.00  0.00    -0.271 OA
BRANCH   3   6
HETATM    6  C   UNL     1      48.765 -30.125   1.921  1.00  0.00     0.085 A 
HETATM    7  C   UNL     1      49.411 -29.951   0.710  1.00  0.00     0.052 A 
HETATM    8  C   UNL     1      48.920 -29.862  -0.685  1.00  0.00     0.072 C 
HETATM    9  N   UNL     1      50.742 -29.871   1.004  1.00  0.00    -0.280 N 
HETATM   10  H   UNL     1      51.519 -29.745   0.364  1.00  0.00     0.189 HD
HETATM   11  N   UNL     1      51.016 -29.980   2.306  1.00  0.00    -0.177 NA
HETATM   12  C   UNL     1      49.815 -30.133   2.887  1.00  0.00     0.079 A 
HETATM   13  C   UNL     1      49.772 -30.280   4.364  1.00  0.00     0.075 C 
ENDBRANCH   3   6
ENDBRANCH   1   2
BRANCH   1  14
HETATM   14  N   UNL     1      44.051 -29.009   1.414  1.00  0.00     0.100 N 
HETATM   15  H   UNL     1      44.570 -28.202   1.056  1.00  0.00     0.317 HD
BRANCH  14  16
HETATM   16  C   UNL     1      43.541 -29.752   0.246  1.00  0.00     0.250 C 
HETATM   17  C   UNL     1      43.916 -31.231   0.403  1.00  0.00     0.048 C 
BRANCH  16  18
HETATM   18  C   UNL     1      44.065 -29.227  -1.081  1.00  0.00    -0.024 A 
HETATM   19  C   UNL     1      43.773 -29.876  -2.295  1.00  0.00     0.036 A 
HETATM   20  C   UNL     1      44.250 -29.364  -3.503  1.00  0.00     0.073 A 
HETATM   21 CL   UNL     1      43.881 -30.182  -4.972  1.00  0.00    -0.081 Cl
HETATM   22  C   UNL     1      45.015 -28.202  -3.510  1.00  0.00     0.138 A 
HETATM   23  F   UNL     1      45.479 -27.691  -4.661  1.00  0.00    -0.204 F 
HETATM   24  C   UNL     1      45.311 -27.542  -2.321  1.00  0.00     0.044 A 
HETATM   25  C   UNL     1      44.836 -28.053  -1.110  1.00  0.00     0.012 A 
ENDBRANCH  16  18
ENDBRANCH  14  16
ENDBRANCH   1  14
TORSDOF 5
ENDMDL
MODEL 10
REMARK VINA RESULT:      -7.1      3.581      4.402
REMARK  5 active torsions:
REMARK  status: ('A' for Active; 'I' for Inactive)
REMARK    1  A    between atoms: C_8  and  N_9 
REMARK       I    between atoms: N_9  and  C_10 
REMARK    2  A    between atoms: C_10  and  C_11 
REMARK    3  A    between atoms: C_11  and  N_12 
REMARK    4  A    between atoms: N_12  and  C_13 
REMARK    5  A    between atoms: C_13  and  C_14 
ROOT
HETATM    1  C   UNL     1      40.095 -15.310   2.678  1.00  0.00     0.372 C 
ENDROOT
BRANCH   1   2
HETATM    2  C   UNL     1      40.484 -14.107   3.551  1.00  0.00     0.250 C 
HETATM    3  N   UNL     1      40.602 -12.945   2.818  1.00  0.00    -0.322 N 
HETATM    4  H   UNL     1      40.406 -13.055   1.827  1.00  0.00     0.169 HD
HETATM    5  O   UNL     1      40.631 -14.238   4.761  1.00  0.00    -0.271 OA
BRANCH   3   6
HETATM    6  C   UNL     1      40.977 -11.690   3.256  1.00  0.00     0.085 A 
HETATM    7  C   UNL     1      40.058 -10.665   3.388  1.00  0.00     0.052 A 
HETATM    8  C   UNL     1      38.599 -10.590   3.143  1.00  0.00     0.072 C 
HETATM    9  N   UNL     1      40.765  -9.581   3.822  1.00  0.00    -0.280 N 
HETATM   10  H   UNL     1      40.421  -8.648   4.026  1.00  0.00     0.189 HD
HETATM   11  N   UNL     1      42.070  -9.815   3.981  1.00  0.00    -0.177 NA
HETATM   12  C   UNL     1      42.220 -11.105   3.642  1.00  0.00     0.079 A 
HETATM   13  C   UNL     1      43.583 -11.688   3.718  1.00  0.00     0.075 C 
ENDBRANCH   3   6
ENDBRANCH   1   2
BRANCH   1  14
HETATM   14  N   UNL     1      41.264 -15.794   1.896  1.00  0.00     0.100 N 
HETATM   15  H   UNL     1      41.326 -15.204   1.061  1.00  0.00     0.317 HD
BRANCH  14  16
HETATM   16  C   UNL     1      42.522 -15.614   2.648  1.00  0.00     0.250 C 
HETATM   17  C   UNL     1      43.553 -14.951   1.728  1.00  0.00     0.048 C 
BRANCH  16  18
HETATM   18  C   UNL     1      43.085 -16.913   3.201  1.00  0.00    -0.024 A 
HETATM   19  C   UNL     1      43.221 -18.058   2.394  1.00  0.00     0.036 A 
HETATM   20  C   UNL     1      43.758 -19.235   2.919  1.00  0.00     0.073 A 
HETATM   21 CL   UNL     1      43.907 -20.620   1.909  1.00  0.00    -0.081 Cl
HETATM   22  C   UNL     1      44.168 -19.277   4.248  1.00  0.00     0.138 A 
HETATM   23  F   UNL     1      44.692 -20.396   4.771  1.00  0.00    -0.204 F 
HETATM   24  C   UNL     1      44.048 -18.154   5.062  1.00  0.00     0.044 A 
HETATM   25  C   UNL     1      43.508 -16.976   4.540  1.00  0.00     0.012 A 
ENDBRANCH  16  18
ENDBRANCH  14  16
ENDBRANCH   1  14
TORSDOF 5
ENDMDL
