MODEL 1
REMARK VINA RESULT:      -9.7      0.000      0.000
REMARK  7 active torsions:
REMARK  status: ('A' for Active; 'I' for Inactive)
REMARK    1  A    between atoms: C_3  and  N_4 
REMARK    2  A    between atoms: C_5  and  S_6 
REMARK    3  A    between atoms: S_6  and  C_7 
REMARK    4  A    between atoms: C_7  and  C_8 
REMARK       I    between atoms: C_8  and  N_9 
REMARK    5  A    between atoms: N_9  and  C_10 
REMARK    6  A    between atoms: C_13  and  C_14 
REMARK       I    between atoms: C_14  and  N_15 
REMARK    7  A    between atoms: C_22  and  C_23 
ROOT
HETATM    1  N   UNL     1      42.316 -11.494   5.340  1.00  0.00    -0.271 N 
HETATM    2  C   UNL     1      42.456 -11.198   3.995  1.00  0.00     0.197 C 
HETATM    3  N   UNL     1      42.088  -9.958   3.768  1.00  0.00    -0.122 NA
HETATM    4  N   UNL     1      41.811  -9.378   4.973  1.00  0.00    -0.128 NA
HETATM    5  C   UNL     1      42.029 -10.268   5.926  1.00  0.00     0.171 C 
ENDROOT
BRANCH   2   6
HETATM    6  S   UNL     1      42.910 -12.328   2.761  1.00  0.00    -0.080 SA
BRANCH   6   7
HETATM    7  C   UNL     1      41.333 -13.147   2.405  1.00  0.00     0.185 C 
BRANCH   7   8
HETATM    8  C   UNL     1      41.354 -14.620   2.790  1.00  0.00     0.231 C 
HETATM    9  N   UNL     1      42.630 -15.101   3.022  1.00  0.00    -0.327 N 
HETATM   10  H   UNL     1      43.356 -14.395   3.153  1.00  0.00     0.169 HD
HETATM   11  O   UNL     1      40.314 -15.272   2.838  1.00  0.00    -0.272 OA
BRANCH   9  12
HETATM   12  C   UNL     1      43.039 -16.436   3.197  1.00  0.00     0.034 A 
HETATM   13  C   UNL     1      42.813 -17.312   2.127  1.00  0.00     0.030 A 
HETATM   14  C   UNL     1      43.127 -18.672   2.235  1.00  0.00     0.019 A 
HETATM   15  C   UNL     1      43.672 -19.168   3.422  1.00  0.00     0.032 A 
HETATM   16  C   UNL     1      43.932 -18.290   4.479  1.00  0.00     0.019 A 
HETATM   17  C   UNL     1      43.611 -16.931   4.369  1.00  0.00     0.030 A 
BRANCH  15  18
HETATM   18  C   UNL     1      43.996 -20.608   3.600  1.00  0.00     0.249 C 
HETATM   19  N   UNL     1      44.351 -21.019   4.856  1.00  0.00    -0.366 N 
HETATM   20  H   UNL     1      44.614 -20.370   5.584  1.00  0.00     0.159 HD
HETATM   21  H   UNL     1      44.687 -21.971   4.933  1.00  0.00     0.159 HD
HETATM   22  O   UNL     1      43.994 -21.393   2.662  1.00  0.00    -0.268 OA
ENDBRANCH  15  18
ENDBRANCH   9  12
ENDBRANCH   7   8
ENDBRANCH   6   7
ENDBRANCH   2   6
BRANCH   1  23
HETATM   23  C   UNL     1      42.334 -12.773   5.952  1.00  0.00     0.049 A 
HETATM   24  C   UNL     1      41.140 -13.504   6.146  1.00  0.00    -0.035 A 
HETATM   25  C   UNL     1      39.784 -13.050   5.675  1.00  0.00     0.050 C 
HETATM   26  C   UNL     1      41.222 -14.743   6.804  1.00  0.00     0.009 A 
HETATM   27  C   UNL     1      42.451 -15.260   7.216  1.00  0.00     0.001 A 
HETATM   28  C   UNL     1      43.623 -14.545   6.985  1.00  0.00     0.002 A 
HETATM   29  C   UNL     1      43.569 -13.303   6.354  1.00  0.00     0.031 A 
ENDBRANCH   1  23
BRANCH   5  30
HETATM   30  C   UNL     1      42.028  -9.905   7.380  1.00  0.00     0.040 A 
HETATM   31  C   UNL     1      43.159  -9.899   8.256  1.00  0.00     0.006 A 
HETATM   32  C   UNL     1      42.698  -9.520   9.519  1.00  0.00     0.043 A 
HETATM   33  C   UNL     1      44.537 -10.165   8.104  1.00  0.00     0.015 A 
HETATM   34  C   UNL     1      43.541  -9.396  10.631  1.00  0.00     0.030 A 
HETATM   35  N   UNL     1      41.342  -9.322   9.415  1.00  0.00    -0.364 N 
HETATM   36  C   UNL     1      44.899  -9.665  10.449  1.00  0.00     0.002 A 
HETATM   37  C   UNL     1      45.394 -10.044   9.205  1.00  0.00     0.001 A 
HETATM   38  H   UNL     1      40.742  -9.053  10.183  1.00  0.00     0.165 HD
HETATM   39  C   UNL     1      40.925  -9.557   8.131  1.00  0.00     0.104 A 
ENDBRANCH   5  30
TORSDOF 7
ENDMDL
MODEL 2
REMARK VINA RESULT:      -9.2      3.183      6.749
REMARK  7 active torsions:
REMARK  status: ('A' for Active; 'I' for Inactive)
REMARK    1  A    between atoms: C_3  and  N_4 
REMARK    2  A    between atoms: C_5  and  S_6 
REMARK    3  A    between atoms: S_6  and  C_7 
REMARK    4  A    between atoms: C_7  and  C_8 
REMARK       I    between atoms: C_8  and  N_9 
REMARK    5  A    between atoms: N_9  and  C_10 
REMARK    6  A    between atoms: C_13  and  C_14 
REMARK       I    between atoms: C_14  and  N_15 
REMARK    7  A    between atoms: C_22  and  C_23 
ROOT
HETATM    1  N   UNL     1      41.745 -13.107   6.017  1.00  0.00    -0.271 N 
HETATM    2  C   UNL     1      40.518 -12.476   6.113  1.00  0.00     0.197 C 
HETATM    3  N   UNL     1      39.553 -13.329   5.852  1.00  0.00    -0.122 NA
HETATM    4  N   UNL     1      40.117 -14.562   5.695  1.00  0.00    -0.128 NA
HETATM    5  C   UNL     1      41.422 -14.452   5.877  1.00  0.00     0.171 C 
ENDROOT
BRANCH   2   6
HETATM    6  S   UNL     1      40.280 -10.782   6.393  1.00  0.00    -0.080 SA
BRANCH   6   7
HETATM    7  C   UNL     1      38.966 -10.388   5.208  1.00  0.00     0.185 C 
BRANCH   7   8
HETATM    8  C   UNL     1      39.407 -10.619   3.769  1.00  0.00     0.231 C 
HETATM    9  N   UNL     1      38.810 -11.725   3.191  1.00  0.00    -0.327 N 
HETATM   10  H   UNL     1      37.993 -12.096   3.678  1.00  0.00     0.169 HD
HETATM   11  O   UNL     1      40.238  -9.886   3.240  1.00  0.00    -0.272 OA
BRANCH   9  12
HETATM   12  C   UNL     1      39.126 -12.345   1.968  1.00  0.00     0.034 A 
HETATM   13  C   UNL     1      38.633 -11.738   0.805  1.00  0.00     0.030 A 
HETATM   14  C   UNL     1      38.841 -12.319  -0.451  1.00  0.00     0.019 A 
HETATM   15  C   UNL     1      39.548 -13.520  -0.554  1.00  0.00     0.032 A 
HETATM   16  C   UNL     1      40.072 -14.110   0.601  1.00  0.00     0.019 A 
HETATM   17  C   UNL     1      39.856 -13.528   1.857  1.00  0.00     0.030 A 
BRANCH  15  18
HETATM   18  C   UNL     1      39.772 -14.195  -1.858  1.00  0.00     0.249 C 
HETATM   19  N   UNL     1      40.865 -13.809  -2.584  1.00  0.00    -0.366 N 
HETATM   20  H   UNL     1      41.374 -12.959  -2.385  1.00  0.00     0.159 HD
HETATM   21  H   UNL     1      40.933 -14.187  -3.521  1.00  0.00     0.159 HD
HETATM   22  O   UNL     1      38.993 -15.030  -2.297  1.00  0.00    -0.268 OA
ENDBRANCH  15  18
ENDBRANCH   9  12
ENDBRANCH   7   8
ENDBRANCH   6   7
ENDBRANCH   2   6
BRANCH   1  23
HETATM   23  C   UNL     1      43.027 -12.504   5.946  1.00  0.00     0.049 A 
HETATM   24  C   UNL     1      43.573 -12.098   4.708  1.00  0.00    -0.035 A 
HETATM   25  C   UNL     1      42.848 -12.193   3.391  1.00  0.00     0.050 C 
HETATM   26  C   UNL     1      44.868 -11.553   4.702  1.00  0.00     0.009 A 
HETATM   27  C   UNL     1      45.580 -11.377   5.890  1.00  0.00     0.001 A 
HETATM   28  C   UNL     1      45.014 -11.748   7.106  1.00  0.00     0.002 A 
HETATM   29  C   UNL     1      43.740 -12.312   7.139  1.00  0.00     0.031 A 
ENDBRANCH   1  23
BRANCH   5  30
HETATM   30  C   UNL     1      42.323 -15.645   5.987  1.00  0.00     0.040 A 
HETATM   31  C   UNL     1      42.760 -16.482   4.913  1.00  0.00     0.006 A 
HETATM   32  C   UNL     1      43.565 -17.479   5.471  1.00  0.00     0.043 A 
HETATM   33  C   UNL     1      42.566 -16.491   3.515  1.00  0.00     0.015 A 
HETATM   34  C   UNL     1      44.180 -18.477   4.706  1.00  0.00     0.030 A 
HETATM   35  N   UNL     1      43.599 -17.262   6.829  1.00  0.00    -0.364 N 
HETATM   36  C   UNL     1      43.969 -18.460   3.325  1.00  0.00     0.002 A 
HETATM   37  C   UNL     1      43.175 -17.482   2.735  1.00  0.00     0.001 A 
HETATM   38  H   UNL     1      44.098 -17.843   7.489  1.00  0.00     0.165 HD
HETATM   39  C   UNL     1      42.848 -16.162   7.152  1.00  0.00     0.104 A 
ENDBRANCH   5  30
TORSDOF 7
ENDMDL
MODEL 3
REMARK VINA RESULT:      -8.8      3.061      5.370
REMARK  7 active torsions:
REMARK  status: ('A' for Active; 'I' for Inactive)
REMARK    1  A    between atoms: C_3  and  N_4 
REMARK    2  A    between atoms: C_5  and  S_6 
REMARK    3  A    between atoms: S_6  and  C_7 
REMARK    4  A    between atoms: C_7  and  C_8 
REMARK       I    between atoms: C_8  and  N_9 
REMARK    5  A    between atoms: N_9  and  C_10 
REMARK    6  A    between atoms: C_13  and  C_14 
REMARK       I    between atoms: C_14  and  N_15 
REMARK    7  A    between atoms: C_22  and  C_23 
ROOT
HETATM    1  N   UNL     1      42.896  -9.381   9.891  1.00  0.00    -0.271 N 
HETATM    2  C   UNL     1      43.665 -10.223   9.108  1.00  0.00     0.197 C 
HETATM    3  N   UNL     1      44.241 -11.133   9.860  1.00  0.00    -0.122 NA
HETATM    4  N   UNL     1      43.771 -10.981  11.133  1.00  0.00    -0.128 NA
HETATM    5  C   UNL     1      42.899  -9.987  11.142  1.00  0.00     0.171 C 
ENDROOT
BRANCH   2   6
HETATM    6  S   UNL     1      43.950 -10.031   7.409  1.00  0.00    -0.080 SA
BRANCH   6   7
HETATM    7  C   UNL     1      42.654 -11.075   6.692  1.00  0.00     0.185 C 
BRANCH   7   8
HETATM    8  C   UNL     1      43.229 -12.189   5.827  1.00  0.00     0.231 C 
HETATM    9  N   UNL     1      42.693 -13.431   6.117  1.00  0.00    -0.327 N 
HETATM   10  H   UNL     1      41.834 -13.428   6.670  1.00  0.00     0.169 HD
HETATM   11  O   UNL     1      44.105 -11.954   4.999  1.00  0.00    -0.272 OA
BRANCH   9  12
HETATM   12  C   UNL     1      43.124 -14.692   5.666  1.00  0.00     0.034 A 
HETATM   13  C   UNL     1      42.542 -15.176   4.488  1.00  0.00     0.030 A 
HETATM   14  C   UNL     1      42.861 -16.449   4.000  1.00  0.00     0.019 A 
HETATM   15  C   UNL     1      43.771 -17.252   4.693  1.00  0.00     0.032 A 
HETATM   16  C   UNL     1      44.381 -16.758   5.850  1.00  0.00     0.019 A 
HETATM   17  C   UNL     1      44.054 -15.486   6.339  1.00  0.00     0.030 A 
BRANCH  15  18
HETATM   18  C   UNL     1      44.123 -18.621   4.236  1.00  0.00     0.249 C 
HETATM   19  N   UNL     1      44.075 -19.624   5.166  1.00  0.00    -0.366 N 
HETATM   20  H   UNL     1      44.036 -19.439   6.158  1.00  0.00     0.159 HD
HETATM   21  H   UNL     1      44.436 -20.522   4.869  1.00  0.00     0.159 HD
HETATM   22  O   UNL     1      44.486 -18.848   3.090  1.00  0.00    -0.268 OA
ENDBRANCH  15  18
ENDBRANCH   9  12
ENDBRANCH   7   8
ENDBRANCH   6   7
ENDBRANCH   2   6
BRANCH   1  23
HETATM   23  C   UNL     1      42.344  -8.125   9.530  1.00  0.00     0.049 A 
HETATM   24  C   UNL     1      41.052  -8.032   8.967  1.00  0.00    -0.035 A 
HETATM   25  C   UNL     1      40.130  -9.205   8.766  1.00  0.00     0.050 C 
HETATM   26  C   UNL     1      40.586  -6.762   8.585  1.00  0.00     0.009 A 
HETATM   27  C   UNL     1      41.358  -5.618   8.796  1.00  0.00     0.001 A 
HETATM   28  C   UNL     1      42.615  -5.722   9.386  1.00  0.00     0.002 A 
HETATM   29  C   UNL     1      43.112  -6.971   9.754  1.00  0.00     0.031 A 
ENDBRANCH   1  23
BRANCH   5  30
HETATM   30  C   UNL     1      42.034  -9.686  12.328  1.00  0.00     0.040 A 
HETATM   31  C   UNL     1      42.278  -8.695  13.329  1.00  0.00     0.006 A 
HETATM   32  C   UNL     1      41.231  -8.775  14.251  1.00  0.00     0.043 A 
HETATM   33  C   UNL     1      43.278  -7.721  13.543  1.00  0.00     0.015 A 
HETATM   34  C   UNL     1      41.136  -7.939  15.370  1.00  0.00     0.030 A 
HETATM   35  N   UNL     1      40.398  -9.787  13.833  1.00  0.00    -0.364 N 
HETATM   36  C   UNL     1      42.140  -6.985  15.555  1.00  0.00     0.002 A 
HETATM   37  C   UNL     1      43.197  -6.876  14.656  1.00  0.00     0.001 A 
HETATM   38  H   UNL     1      39.562 -10.077  14.320  1.00  0.00     0.165 HD
HETATM   39  C   UNL     1      40.876 -10.347  12.677  1.00  0.00     0.104 A 
ENDBRANCH   5  30
TORSDOF 7
ENDMDL
MODEL 4
REMARK VINA RESULT:      -8.8      3.962      9.351
REMARK  7 active torsions:
REMARK  status: ('A' for Active; 'I' for Inactive)
REMARK    1  A    between atoms: C_3  and  N_4 
REMARK    2  A    between atoms: C_5  and  S_6 
REMARK    3  A    between atoms: S_6  and  C_7 
REMARK    4  A    between atoms: C_7  and  C_8 
REMARK       I    between atoms: C_8  and  N_9 
REMARK    5  A    between atoms: N_9  and  C_10 
REMARK    6  A    between atoms: C_13  and  C_14 
REMARK       I    between atoms: C_14  and  N_15 
REMARK    7  A    between atoms: C_22  and  C_23 
ROOT
HETATM    1  N   UNL     1      41.845 -12.626   6.122  1.00  0.00    -0.271 N 
HETATM    2  C   UNL     1      40.678 -11.890   6.018  1.00  0.00     0.197 C 
HETATM    3  N   UNL     1      39.682 -12.674   5.672  1.00  0.00    -0.122 NA
HETATM    4  N   UNL     1      40.147 -13.958   5.658  1.00  0.00    -0.128 NA
HETATM    5  C   UNL     1      41.422 -13.946   6.010  1.00  0.00     0.171 C 
ENDROOT
BRANCH   2   6
HETATM    6  S   UNL     1      40.561 -10.167   6.175  1.00  0.00    -0.080 SA
BRANCH   6   7
HETATM    7  C   UNL     1      39.568  -9.996   7.682  1.00  0.00     0.185 C 
BRANCH   7   8
HETATM    8  C   UNL     1      40.313  -9.242   8.775  1.00  0.00     0.231 C 
HETATM    9  N   UNL     1      40.430  -9.965   9.948  1.00  0.00    -0.327 N 
HETATM   10  H   UNL     1      40.241 -10.966   9.876  1.00  0.00     0.169 HD
HETATM   11  O   UNL     1      40.713  -8.096   8.588  1.00  0.00    -0.272 OA
BRANCH   9  12
HETATM   12  C   UNL     1      40.870  -9.517  11.207  1.00  0.00     0.034 A 
HETATM   13  C   UNL     1      39.890  -9.036  12.085  1.00  0.00     0.030 A 
HETATM   14  C   UNL     1      40.241  -8.510  13.334  1.00  0.00     0.019 A 
HETATM   15  C   UNL     1      41.585  -8.458  13.715  1.00  0.00     0.032 A 
HETATM   16  C   UNL     1      42.562  -8.969  12.855  1.00  0.00     0.019 A 
HETATM   17  C   UNL     1      42.207  -9.490  11.604  1.00  0.00     0.030 A 
BRANCH  15  18
HETATM   18  C   UNL     1      42.016  -7.882  15.015  1.00  0.00     0.249 C 
HETATM   19  N   UNL     1      41.304  -8.243  16.126  1.00  0.00    -0.366 N 
HETATM   20  H   UNL     1      40.397  -8.682  16.068  1.00  0.00     0.159 HD
HETATM   21  H   UNL     1      41.531  -7.747  16.979  1.00  0.00     0.159 HD
HETATM   22  O   UNL     1      42.937  -7.081  15.095  1.00  0.00    -0.268 OA
ENDBRANCH  15  18
ENDBRANCH   9  12
ENDBRANCH   7   8
ENDBRANCH   6   7
ENDBRANCH   2   6
BRANCH   1  23
HETATM   23  C   UNL     1      43.174 -12.138   6.195  1.00  0.00     0.049 A 
HETATM   24  C   UNL     1      43.932 -11.913   5.025  1.00  0.00    -0.035 A 
HETATM   25  C   UNL     1      43.403 -12.091   3.627  1.00  0.00     0.050 C 
HETATM   26  C   UNL     1      45.260 -11.476   5.170  1.00  0.00     0.009 A 
HETATM   27  C   UNL     1      45.803 -11.230   6.432  1.00  0.00     0.001 A 
HETATM   28  C   UNL     1      45.032 -11.421   7.575  1.00  0.00     0.002 A 
HETATM   29  C   UNL     1      43.719 -11.875   7.462  1.00  0.00     0.031 A 
ENDBRANCH   1  23
BRANCH   5  30
HETATM   30  C   UNL     1      42.187 -15.200   6.303  1.00  0.00     0.040 A 
HETATM   31  C   UNL     1      42.708 -16.123   5.342  1.00  0.00     0.006 A 
HETATM   32  C   UNL     1      43.328 -17.152   6.055  1.00  0.00     0.043 A 
HETATM   33  C   UNL     1      42.728 -16.186   3.932  1.00  0.00     0.015 A 
HETATM   34  C   UNL     1      43.963 -18.234   5.433  1.00  0.00     0.030 A 
HETATM   35  N   UNL     1      43.174 -16.871   7.393  1.00  0.00    -0.364 N 
HETATM   36  C   UNL     1      43.967 -18.268   4.037  1.00  0.00     0.002 A 
HETATM   37  C   UNL     1      43.360 -17.260   3.294  1.00  0.00     0.001 A 
HETATM   38  H   UNL     1      43.514 -17.456   8.144  1.00  0.00     0.165 HD
HETATM   39  C   UNL     1      42.481 -15.699   7.554  1.00  0.00     0.104 A 
ENDBRANCH   5  30
TORSDOF 7
ENDMDL
MODEL 5
REMARK VINA RESULT:      -8.7      3.882      9.485
REMARK  7 active torsions:
REMARK  status: ('A' for Active; 'I' for Inactive)
REMARK    1  A    between atoms: C_3  and  N_4 
REMARK    2  A    between atoms: C_5  and  S_6 
REMARK    3  A    between atoms: S_6  and  C_7 
REMARK    4  A    between atoms: C_7  and  C_8 
REMARK       I    between atoms: C_8  and  N_9 
REMARK    5  A    between atoms: N_9  and  C_10 
REMARK    6  A    between atoms: C_13  and  C_14 
REMARK       I    between atoms: C_14  and  N_15 
REMARK    7  A    between atoms: C_22  and  C_23 
ROOT
HETATM    1  N   UNL     1      42.963 -12.677   4.912  1.00  0.00    -0.271 N 
HETATM    2  C   UNL     1      43.955 -11.993   5.593  1.00  0.00     0.197 C 
HETATM    3  N   UNL     1      44.692 -11.312   4.746  1.00  0.00    -0.122 NA
HETATM    4  N   UNL     1      44.131 -11.438   3.508  1.00  0.00    -0.128 NA
HETATM    5  C   UNL     1      43.045 -12.185   3.614  1.00  0.00     0.171 C 
ENDROOT
BRANCH   2   6
HETATM    6  S   UNL     1      44.277 -12.121   7.292  1.00  0.00    -0.080 SA
BRANCH   6   7
HETATM    7  C   UNL     1      43.957 -10.431   7.861  1.00  0.00     0.185 C 
BRANCH   7   8
HETATM    8  C   UNL     1      43.919 -10.337   9.381  1.00  0.00     0.231 C 
HETATM    9  N   UNL     1      42.809  -9.661   9.853  1.00  0.00    -0.327 N 
HETATM   10  H   UNL     1      42.048  -9.529   9.185  1.00  0.00     0.169 HD
HETATM   11  O   UNL     1      44.829 -10.801  10.063  1.00  0.00    -0.272 OA
BRANCH   9  12
HETATM   12  C   UNL     1      42.553  -9.217  11.164  1.00  0.00     0.034 A 
HETATM   13  C   UNL     1      43.137  -8.002  11.545  1.00  0.00     0.030 A 
HETATM   14  C   UNL     1      42.991  -7.514  12.849  1.00  0.00     0.019 A 
HETATM   15  C   UNL     1      42.255  -8.244  13.787  1.00  0.00     0.032 A 
HETATM   16  C   UNL     1      41.641  -9.439  13.400  1.00  0.00     0.019 A 
HETATM   17  C   UNL     1      41.795  -9.927  12.095  1.00  0.00     0.030 A 
BRANCH  15  18
HETATM   18  C   UNL     1      42.094  -7.787  15.192  1.00  0.00     0.249 C 
HETATM   19  N   UNL     1      42.877  -6.744  15.605  1.00  0.00    -0.366 N 
HETATM   20  H   UNL     1      43.687  -6.437  15.086  1.00  0.00     0.159 HD
HETATM   21  H   UNL     1      42.844  -6.528  16.594  1.00  0.00     0.159 HD
HETATM   22  O   UNL     1      41.330  -8.342  15.970  1.00  0.00    -0.268 OA
ENDBRANCH  15  18
ENDBRANCH   9  12
ENDBRANCH   7   8
ENDBRANCH   6   7
ENDBRANCH   2   6
BRANCH   1  23
HETATM   23  C   UNL     1      42.145 -13.728   5.398  1.00  0.00     0.049 A 
HETATM   24  C   UNL     1      40.810 -13.489   5.792  1.00  0.00    -0.035 A 
HETATM   25  C   UNL     1      40.118 -12.157   5.673  1.00  0.00     0.050 C 
HETATM   26  C   UNL     1      40.070 -14.565   6.312  1.00  0.00     0.009 A 
HETATM   27  C   UNL     1      40.622 -15.844   6.397  1.00  0.00     0.001 A 
HETATM   28  C   UNL     1      41.927 -16.072   5.970  1.00  0.00     0.002 A 
HETATM   29  C   UNL     1      42.692 -15.019   5.471  1.00  0.00     0.031 A 
ENDBRANCH   1  23
BRANCH   5  30
HETATM   30  C   UNL     1      42.070 -12.352   2.489  1.00  0.00     0.040 A 
HETATM   31  C   UNL     1      41.510 -13.583   2.024  1.00  0.00     0.006 A 
HETATM   32  C   UNL     1      40.670 -13.274   0.951  1.00  0.00     0.043 A 
HETATM   33  C   UNL     1      41.619 -14.936   2.413  1.00  0.00     0.015 A 
HETATM   34  C   UNL     1      39.940 -14.242   0.251  1.00  0.00     0.030 A 
HETATM   35  N   UNL     1      40.734 -11.913   0.764  1.00  0.00    -0.364 N 
HETATM   36  C   UNL     1      40.069 -15.572   0.660  1.00  0.00     0.002 A 
HETATM   37  C   UNL     1      40.895 -15.917   1.725  1.00  0.00     0.001 A 
HETATM   38  H   UNL     1      40.235 -11.410   0.043  1.00  0.00     0.165 HD
HETATM   39  C   UNL     1      41.580 -11.347   1.682  1.00  0.00     0.104 A 
ENDBRANCH   5  30
TORSDOF 7
ENDMDL
MODEL 6
REMARK VINA RESULT:      -8.7      3.189      5.526
REMARK  7 active torsions:
REMARK  status: ('A' for Active; 'I' for Inactive)
REMARK    1  A    between atoms: C_3  and  N_4 
REMARK    2  A    between atoms: C_5  and  S_6 
REMARK    3  A    between atoms: S_6  and  C_7 
REMARK    4  A    between atoms: C_7  and  C_8 
REMARK       I    between atoms: C_8  and  N_9 
REMARK    5  A    between atoms: N_9  and  C_10 
REMARK    6  A    between atoms: C_13  and  C_14 
REMARK       I    between atoms: C_14  and  N_15 
REMARK    7  A    between atoms: C_22  and  C_23 
ROOT
HETATM    1  N   UNL     1      42.822 -13.766   4.327  1.00  0.00    -0.271 N 
HETATM    2  C   UNL     1      42.868 -13.946   2.956  1.00  0.00     0.197 C 
HETATM    3  N   UNL     1      42.478 -12.849   2.346  1.00  0.00    -0.122 NA
HETATM    4  N   UNL     1      42.281 -11.890   3.298  1.00  0.00    -0.128 NA
HETATM    5  C   UNL     1      42.568 -12.408   4.480  1.00  0.00     0.171 C 
ENDROOT
BRANCH   2   6
HETATM    6  S   UNL     1      43.242 -15.435   2.151  1.00  0.00    -0.080 SA
BRANCH   6   7
HETATM    7  C   UNL     1      41.716 -16.383   2.390  1.00  0.00     0.185 C 
BRANCH   7   8
HETATM    8  C   UNL     1      40.500 -15.660   1.828  1.00  0.00     0.231 C 
HETATM    9  N   UNL     1      40.753 -15.032   0.622  1.00  0.00    -0.327 N 
HETATM   10  H   UNL     1      41.606 -15.319   0.140  1.00  0.00     0.169 HD
HETATM   11  O   UNL     1      39.439 -15.640   2.446  1.00  0.00    -0.272 OA
BRANCH   9  12
HETATM   12  C   UNL     1      39.937 -14.120  -0.073  1.00  0.00     0.034 A 
HETATM   13  C   UNL     1      39.409 -14.549  -1.297  1.00  0.00     0.030 A 
HETATM   14  C   UNL     1      38.640 -13.687  -2.089  1.00  0.00     0.019 A 
HETATM   15  C   UNL     1      38.393 -12.381  -1.658  1.00  0.00     0.032 A 
HETATM   16  C   UNL     1      38.890 -11.961  -0.420  1.00  0.00     0.019 A 
HETATM   17  C   UNL     1      39.663 -12.825   0.366  1.00  0.00     0.030 A 
BRANCH  15  18
HETATM   18  C   UNL     1      37.610 -11.416  -2.472  1.00  0.00     0.249 C 
HETATM   19  N   UNL     1      38.213 -10.903  -3.588  1.00  0.00    -0.366 N 
HETATM   20  H   UNL     1      39.208 -10.973  -3.745  1.00  0.00     0.159 HD
HETATM   21  H   UNL     1      37.715 -10.157  -4.058  1.00  0.00     0.159 HD
HETATM   22  O   UNL     1      36.488 -11.053  -2.144  1.00  0.00    -0.268 OA
ENDBRANCH  15  18
ENDBRANCH   9  12
ENDBRANCH   7   8
ENDBRANCH   6   7
ENDBRANCH   2   6
BRANCH   1  23
HETATM   23  C   UNL     1      42.887 -14.762   5.334  1.00  0.00     0.049 A 
HETATM   24  C   UNL     1      41.729 -15.170   6.032  1.00  0.00    -0.035 A 
HETATM   25  C   UNL     1      40.342 -14.662   5.739  1.00  0.00     0.050 C 
HETATM   26  C   UNL     1      41.872 -16.126   7.053  1.00  0.00     0.009 A 
HETATM   27  C   UNL     1      43.116 -16.688   7.342  1.00  0.00     0.001 A 
HETATM   28  C   UNL     1      44.243 -16.303   6.621  1.00  0.00     0.002 A 
HETATM   29  C   UNL     1      44.134 -15.341   5.618  1.00  0.00     0.031 A 
ENDBRANCH   1  23
BRANCH   5  30
HETATM   30  C   UNL     1      42.665 -11.574   5.722  1.00  0.00     0.040 A 
HETATM   31  C   UNL     1      43.861 -11.244   6.434  1.00  0.00     0.006 A 
HETATM   32  C   UNL     1      43.483 -10.470   7.534  1.00  0.00     0.043 A 
HETATM   33  C   UNL     1      45.235 -11.513   6.250  1.00  0.00     0.015 A 
HETATM   34  C   UNL     1      44.404  -9.956   8.455  1.00  0.00     0.030 A 
HETATM   35  N   UNL     1      42.114 -10.352   7.498  1.00  0.00    -0.364 N 
HETATM   36  C   UNL     1      45.757 -10.239   8.246  1.00  0.00     0.002 A 
HETATM   37  C   UNL     1      46.169 -11.005   7.161  1.00  0.00     0.001 A 
HETATM   38  H   UNL     1      41.564  -9.853   8.184  1.00  0.00     0.165 HD
HETATM   39  C   UNL     1      41.609 -11.019   6.412  1.00  0.00     0.104 A 
ENDBRANCH   5  30
TORSDOF 7
ENDMDL
MODEL 7
REMARK VINA RESULT:      -8.6      4.076      9.542
REMARK  7 active torsions:
REMARK  status: ('A' for Active; 'I' for Inactive)
REMARK    1  A    between atoms: C_3  and  N_4 
REMARK    2  A    between atoms: C_5  and  S_6 
REMARK    3  A    between atoms: S_6  and  C_7 
REMARK    4  A    between atoms: C_7  and  C_8 
REMARK       I    between atoms: C_8  and  N_9 
REMARK    5  A    between atoms: N_9  and  C_10 
REMARK    6  A    between atoms: C_13  and  C_14 
REMARK       I    between atoms: C_14  and  N_15 
REMARK    7  A    between atoms: C_22  and  C_23 
ROOT
HETATM    1  N   UNL     1      43.116 -12.848   4.914  1.00  0.00    -0.271 N 
HETATM    2  C   UNL     1      43.789 -11.793   5.504  1.00  0.00     0.197 C 
HETATM    3  N   UNL     1      44.455 -11.121   4.593  1.00  0.00    -0.122 NA
HETATM    4  N   UNL     1      44.140 -11.646   3.373  1.00  0.00    -0.128 NA
HETATM    5  C   UNL     1      43.271 -12.627   3.551  1.00  0.00     0.171 C 
ENDROOT
BRANCH   2   6
HETATM    6  S   UNL     1      43.868 -11.480   7.208  1.00  0.00    -0.080 SA
BRANCH   6   7
HETATM    7  C   UNL     1      45.382 -10.491   7.335  1.00  0.00     0.185 C 
BRANCH   7   8
HETATM    8  C   UNL     1      45.235  -9.344   8.325  1.00  0.00     0.231 C 
HETATM    9  N   UNL     1      44.272  -9.582   9.289  1.00  0.00    -0.327 N 
HETATM   10  H   UNL     1      43.962 -10.550   9.381  1.00  0.00     0.169 HD
HETATM   11  O   UNL     1      45.904  -8.321   8.207  1.00  0.00    -0.272 OA
BRANCH   9  12
HETATM   12  C   UNL     1      43.735  -8.678  10.225  1.00  0.00     0.034 A 
HETATM   13  C   UNL     1      43.852  -9.024  11.577  1.00  0.00     0.030 A 
HETATM   14  C   UNL     1      43.291  -8.218  12.575  1.00  0.00     0.019 A 
HETATM   15  C   UNL     1      42.602  -7.054  12.224  1.00  0.00     0.032 A 
HETATM   16  C   UNL     1      42.513  -6.688  10.877  1.00  0.00     0.019 A 
HETATM   17  C   UNL     1      43.072  -7.500   9.882  1.00  0.00     0.030 A 
BRANCH  15  18
HETATM   18  C   UNL     1      41.961  -6.179  13.240  1.00  0.00     0.249 C 
HETATM   19  N   UNL     1      41.034  -6.754  14.066  1.00  0.00    -0.366 N 
HETATM   20  H   UNL     1      40.618  -7.652  13.869  1.00  0.00     0.159 HD
HETATM   21  H   UNL     1      40.520  -6.120  14.665  1.00  0.00     0.159 HD
HETATM   22  O   UNL     1      42.210  -4.983  13.315  1.00  0.00    -0.268 OA
ENDBRANCH  15  18
ENDBRANCH   9  12
ENDBRANCH   7   8
ENDBRANCH   6   7
ENDBRANCH   2   6
BRANCH   1  23
HETATM   23  C   UNL     1      42.520 -13.964   5.557  1.00  0.00     0.049 A 
HETATM   24  C   UNL     1      41.144 -13.973   5.873  1.00  0.00    -0.035 A 
HETATM   25  C   UNL     1      40.185 -12.870   5.509  1.00  0.00     0.050 C 
HETATM   26  C   UNL     1      40.627 -15.089   6.554  1.00  0.00     0.009 A 
HETATM   27  C   UNL     1      41.441 -16.177   6.872  1.00  0.00     0.001 A 
HETATM   28  C   UNL     1      42.788 -16.169   6.522  1.00  0.00     0.002 A 
HETATM   29  C   UNL     1      43.332 -15.066   5.865  1.00  0.00     0.031 A 
ENDBRANCH   1  23
BRANCH   5  30
HETATM   30  C   UNL     1      42.553 -13.283   2.411  1.00  0.00     0.040 A 
HETATM   31  C   UNL     1      41.379 -12.798   1.754  1.00  0.00     0.006 A 
HETATM   32  C   UNL     1      41.044 -13.730   0.769  1.00  0.00     0.043 A 
HETATM   33  C   UNL     1      40.567 -11.650   1.885  1.00  0.00     0.015 A 
HETATM   34  C   UNL     1      39.945 -13.574  -0.085  1.00  0.00     0.030 A 
HETATM   35  N   UNL     1      41.968 -14.746   0.839  1.00  0.00    -0.364 N 
HETATM   36  C   UNL     1      39.161 -12.428   0.069  1.00  0.00     0.002 A 
HETATM   37  C   UNL     1      39.465 -11.478   1.038  1.00  0.00     0.001 A 
HETATM   38  H   UNL     1      41.963 -15.567   0.250  1.00  0.00     0.165 HD
HETATM   39  C   UNL     1      42.879 -14.490   1.830  1.00  0.00     0.104 A 
ENDBRANCH   5  30
TORSDOF 7
ENDMDL
MODEL 8
REMARK VINA RESULT:      -8.6      3.709      9.658
REMARK  7 active torsions:
REMARK  status: ('A' for Active; 'I' for Inactive)
REMARK    1  A    between atoms: C_3  and  N_4 
REMARK    2  A    between atoms: C_5  and  S_6 
REMARK    3  A    between atoms: S_6  and  C_7 
REMARK    4  A    between atoms: C_7  and  C_8 
REMARK       I    between atoms: C_8  and  N_9 
REMARK    5  A    between atoms: N_9  and  C_10 
REMARK    6  A    between atoms: C_13  and  C_14 
REMARK       I    between atoms: C_14  and  N_15 
REMARK    7  A    between atoms: C_22  and  C_23 
ROOT
HETATM    1  N   UNL     1      42.798 -13.011   5.071  1.00  0.00    -0.271 N 
HETATM    2  C   UNL     1      43.490 -12.572   6.186  1.00  0.00     0.197 C 
HETATM    3  N   UNL     1      43.784 -13.590   6.961  1.00  0.00    -0.122 NA
HETATM    4  N   UNL     1      43.398 -14.730   6.318  1.00  0.00    -0.128 NA
HETATM    5  C   UNL     1      42.883 -14.396   5.146  1.00  0.00     0.171 C 
ENDROOT
BRANCH   2   6
HETATM    6  S   UNL     1      43.802 -10.913   6.585  1.00  0.00    -0.080 SA
BRANCH   6   7
HETATM    7  C   UNL     1      42.220 -10.397   7.302  1.00  0.00     0.185 C 
BRANCH   7   8
HETATM    8  C   UNL     1      42.407  -9.437   8.469  1.00  0.00     0.231 C 
HETATM    9  N   UNL     1      42.584 -10.083   9.679  1.00  0.00    -0.327 N 
HETATM   10  H   UNL     1      42.813 -11.077   9.625  1.00  0.00     0.169 HD
HETATM   11  O   UNL     1      42.358  -8.222   8.297  1.00  0.00    -0.272 OA
BRANCH   9  12
HETATM   12  C   UNL     1      42.584  -9.527  10.971  1.00  0.00     0.034 A 
HETATM   13  C   UNL     1      41.460  -9.779  11.769  1.00  0.00     0.030 A 
HETATM   14  C   UNL     1      41.343  -9.213  13.044  1.00  0.00     0.019 A 
HETATM   15  C   UNL     1      42.356  -8.384  13.533  1.00  0.00     0.032 A 
HETATM   16  C   UNL     1      43.495  -8.159  12.753  1.00  0.00     0.019 A 
HETATM   17  C   UNL     1      43.606  -8.722  11.476  1.00  0.00     0.030 A 
BRANCH  15  18
HETATM   18  C   UNL     1      42.269  -7.733  14.866  1.00  0.00     0.249 C 
HETATM   19  N   UNL     1      43.145  -6.714  15.124  1.00  0.00    -0.366 N 
HETATM   20  H   UNL     1      43.963  -6.548  14.556  1.00  0.00     0.159 HD
HETATM   21  H   UNL     1      43.155  -6.368  16.075  1.00  0.00     0.159 HD
HETATM   22  O   UNL     1      41.483  -8.115  15.722  1.00  0.00    -0.268 OA
ENDBRANCH  15  18
ENDBRANCH   9  12
ENDBRANCH   7   8
ENDBRANCH   6   7
ENDBRANCH   2   6
BRANCH   1  23
HETATM   23  C   UNL     1      42.063 -12.229   4.144  1.00  0.00     0.049 A 
HETATM   24  C   UNL     1      40.671 -12.039   4.294  1.00  0.00    -0.035 A 
HETATM   25  C   UNL     1      39.865 -12.566   5.451  1.00  0.00     0.050 C 
HETATM   26  C   UNL     1      39.995 -11.294   3.312  1.00  0.00     0.009 A 
HETATM   27  C   UNL     1      40.684 -10.722   2.241  1.00  0.00     0.001 A 
HETATM   28  C   UNL     1      42.061 -10.888   2.127  1.00  0.00     0.002 A 
HETATM   29  C   UNL     1      42.754 -11.640   3.074  1.00  0.00     0.031 A 
ENDBRANCH   1  23
BRANCH   5  30
HETATM   30  C   UNL     1      42.552 -15.410   4.094  1.00  0.00     0.040 A 
HETATM   31  C   UNL     1      43.171 -16.687   3.918  1.00  0.00     0.006 A 
HETATM   32  C   UNL     1      42.569 -17.287   2.810  1.00  0.00     0.043 A 
HETATM   33  C   UNL     1      44.179 -17.406   4.596  1.00  0.00     0.015 A 
HETATM   34  C   UNL     1      42.921 -18.561   2.348  1.00  0.00     0.030 A 
HETATM   35  N   UNL     1      41.634 -16.402   2.326  1.00  0.00    -0.364 N 
HETATM   36  C   UNL     1      43.922 -19.248   3.040  1.00  0.00     0.002 A 
HETATM   37  C   UNL     1      44.544 -18.681   4.149  1.00  0.00     0.001 A 
HETATM   38  H   UNL     1      41.054 -16.568   1.515  1.00  0.00     0.165 HD
HETATM   39  C   UNL     1      41.620 -15.264   3.088  1.00  0.00     0.104 A 
ENDBRANCH   5  30
TORSDOF 7
ENDMDL
MODEL 9
REMARK VINA RESULT:      -8.5      3.476      9.672
REMARK  7 active torsions:
REMARK  status: ('A' for Active; 'I' for Inactive)
REMARK    1  A    between atoms: C_3  and  N_4 
REMARK    2  A    between atoms: C_5  and  S_6 
REMARK    3  A    between atoms: S_6  and  C_7 
REMARK    4  A    between atoms: C_7  and  C_8 
REMARK       I    between atoms: C_8  and  N_9 
REMARK    5  A    between atoms: N_9  and  C_10 
REMARK    6  A    between atoms: C_13  and  C_14 
REMARK       I    between atoms: C_14  and  N_15 
REMARK    7  A    between atoms: C_22  and  C_23 
ROOT
HETATM    1  N   UNL     1      42.963 -14.463   4.873  1.00  0.00    -0.271 N 
HETATM    2  C   UNL     1      43.509 -13.831   5.975  1.00  0.00     0.197 C 
HETATM    3  N   UNL     1      44.080 -14.714   6.762  1.00  0.00    -0.122 NA
HETATM    4  N   UNL     1      44.025 -15.927   6.137  1.00  0.00    -0.128 NA
HETATM    5  C   UNL     1      43.432 -15.768   4.965  1.00  0.00     0.171 C 
ENDROOT
BRANCH   2   6
HETATM    6  S   UNL     1      43.346 -12.145   6.349  1.00  0.00    -0.080 SA
BRANCH   6   7
HETATM    7  C   UNL     1      45.064 -11.667   6.671  1.00  0.00     0.185 C 
BRANCH   7   8
HETATM    8  C   UNL     1      45.201 -10.850   7.949  1.00  0.00     0.231 C 
HETATM    9  N   UNL     1      43.994 -10.651   8.596  1.00  0.00    -0.327 N 
HETATM   10  H   UNL     1      43.225 -11.254   8.300  1.00  0.00     0.169 HD
HETATM   11  O   UNL     1      46.292 -10.409   8.301  1.00  0.00    -0.272 OA
BRANCH   9  12
HETATM   12  C   UNL     1      43.716  -9.791   9.674  1.00  0.00     0.034 A 
HETATM   13  C   UNL     1      43.693 -10.366  10.952  1.00  0.00     0.030 A 
HETATM   14  C   UNL     1      43.361  -9.601  12.076  1.00  0.00     0.019 A 
HETATM   15  C   UNL     1      43.046  -8.248  11.930  1.00  0.00     0.032 A 
HETATM   16  C   UNL     1      43.102  -7.663  10.661  1.00  0.00     0.019 A 
HETATM   17  C   UNL     1      43.429  -8.433   9.537  1.00  0.00     0.030 A 
BRANCH  15  18
HETATM   18  C   UNL     1      42.658  -7.398  13.085  1.00  0.00     0.249 C 
HETATM   19  N   UNL     1      41.443  -6.773  13.022  1.00  0.00    -0.366 N 
HETATM   20  H   UNL     1      40.924  -6.684  12.161  1.00  0.00     0.159 HD
HETATM   21  H   UNL     1      41.249  -6.103  13.757  1.00  0.00     0.159 HD
HETATM   22  O   UNL     1      43.405  -7.220  14.038  1.00  0.00    -0.268 OA
ENDBRANCH  15  18
ENDBRANCH   9  12
ENDBRANCH   7   8
ENDBRANCH   6   7
ENDBRANCH   2   6
BRANCH   1  23
HETATM   23  C   UNL     1      42.034 -13.932   3.941  1.00  0.00     0.049 A 
HETATM   24  C   UNL     1      40.654 -13.880   4.238  1.00  0.00    -0.035 A 
HETATM   25  C   UNL     1      40.055 -14.298   5.555  1.00  0.00     0.050 C 
HETATM   26  C   UNL     1      39.782 -13.388   3.251  1.00  0.00     0.009 A 
HETATM   27  C   UNL     1      40.269 -12.924   2.028  1.00  0.00     0.001 A 
HETATM   28  C   UNL     1      41.636 -12.948   1.764  1.00  0.00     0.002 A 
HETATM   29  C   UNL     1      42.521 -13.451   2.716  1.00  0.00     0.031 A 
ENDBRANCH   1  23
BRANCH   5  30
HETATM   30  C   UNL     1      43.394 -16.850   3.929  1.00  0.00     0.040 A 
HETATM   31  C   UNL     1      43.625 -18.244   4.147  1.00  0.00     0.006 A 
HETATM   32  C   UNL     1      43.510 -18.878   2.907  1.00  0.00     0.043 A 
HETATM   33  C   UNL     1      43.911 -19.042   5.277  1.00  0.00     0.015 A 
HETATM   34  C   UNL     1      43.665 -20.260   2.741  1.00  0.00     0.030 A 
HETATM   35  N   UNL     1      43.236 -17.904   1.976  1.00  0.00    -0.364 N 
HETATM   36  C   UNL     1      43.946 -21.022   3.878  1.00  0.00     0.002 A 
HETATM   37  C   UNL     1      44.068 -20.425   5.129  1.00  0.00     0.001 A 
HETATM   38  H   UNL     1      43.115 -18.075   0.987  1.00  0.00     0.165 HD
HETATM   39  C   UNL     1      43.170 -16.676   2.580  1.00  0.00     0.104 A 
ENDBRANCH   5  30
TORSDOF 7
ENDMDL
MODEL 10
REMARK VINA RESULT:      -8.4      3.860      9.205
REMARK  7 active torsions:
REMARK  status: ('A' for Active; 'I' for Inactive)
REMARK    1  A    between atoms: C_3  and  N_4 
REMARK    2  A    between atoms: C_5  and  S_6 
REMARK    3  A    between atoms: S_6  and  C_7 
REMARK    4  A    between atoms: C_7  and  C_8 
REMARK       I    between atoms: C_8  and  N_9 
REMARK    5  A    between atoms: N_9  and  C_10 
REMARK    6  A    between atoms: C_13  and  C_14 
REMARK       I    between atoms: C_14  and  N_15 
REMARK    7  A    between atoms: C_22  and  C_23 
ROOT
HETATM    1  N   UNL     1      42.600 -12.869   4.475  1.00  0.00    -0.271 N 
HETATM    2  C   UNL     1      43.619 -12.172   5.098  1.00  0.00     0.197 C 
HETATM    3  N   UNL     1      44.219 -11.386   4.234  1.00  0.00    -0.122 NA
HETATM    4  N   UNL     1      43.533 -11.460   3.056  1.00  0.00    -0.128 NA
HETATM    5  C   UNL     1      42.510 -12.282   3.218  1.00  0.00     0.171 C 
ENDROOT
BRANCH   2   6
HETATM    6  S   UNL     1      44.134 -12.400   6.739  1.00  0.00    -0.080 SA
BRANCH   6   7
HETATM    7  C   UNL     1      44.490 -10.700   7.258  1.00  0.00     0.185 C 
BRANCH   7   8
HETATM    8  C   UNL     1      44.472 -10.549   8.773  1.00  0.00     0.231 C 
HETATM    9  N   UNL     1      43.298  -9.992   9.247  1.00  0.00    -0.327 N 
HETATM   10  H   UNL     1      42.513  -9.980   8.593  1.00  0.00     0.169 HD
HETATM   11  O   UNL     1      45.445 -10.872   9.449  1.00  0.00    -0.272 OA
BRANCH   9  12
HETATM   12  C   UNL     1      43.016  -9.529  10.546  1.00  0.00     0.034 A 
HETATM   13  C   UNL     1      43.113  -8.148  10.759  1.00  0.00     0.030 A 
HETATM   14  C   UNL     1      42.915  -7.603  12.033  1.00  0.00     0.019 A 
HETATM   15  C   UNL     1      42.618  -8.442  13.111  1.00  0.00     0.032 A 
HETATM   16  C   UNL     1      42.486  -9.817  12.894  1.00  0.00     0.019 A 
HETATM   17  C   UNL     1      42.691 -10.359  11.618  1.00  0.00     0.030 A 
BRANCH  15  18
HETATM   18  C   UNL     1      42.428  -7.920  14.489  1.00  0.00     0.249 C 
HETATM   19  N   UNL     1      43.082  -6.763  14.816  1.00  0.00    -0.366 N 
HETATM   20  H   UNL     1      43.837  -6.393  14.257  1.00  0.00     0.159 HD
HETATM   21  H   UNL     1      43.042  -6.490  15.790  1.00  0.00     0.159 HD
HETATM   22  O   UNL     1      41.755  -8.514  15.319  1.00  0.00    -0.268 OA
ENDBRANCH  15  18
ENDBRANCH   9  12
ENDBRANCH   7   8
ENDBRANCH   6   7
ENDBRANCH   2   6
BRANCH   1  23
HETATM   23  C   UNL     1      41.901 -14.003   4.961  1.00  0.00     0.049 A 
HETATM   24  C   UNL     1      42.213 -15.302   4.503  1.00  0.00    -0.035 A 
HETATM   25  C   UNL     1      43.327 -15.615   3.540  1.00  0.00     0.050 C 
HETATM   26  C   UNL     1      41.448 -16.377   4.988  1.00  0.00     0.009 A 
HETATM   27  C   UNL     1      40.438 -16.175   5.930  1.00  0.00     0.001 A 
HETATM   28  C   UNL     1      40.167 -14.893   6.400  1.00  0.00     0.002 A 
HETATM   29  C   UNL     1      40.894 -13.805   5.919  1.00  0.00     0.031 A 
ENDBRANCH   1  23
BRANCH   5  30
HETATM   30  C   UNL     1      41.428 -12.431   2.193  1.00  0.00     0.040 A 
HETATM   31  C   UNL     1      40.178 -11.736   2.167  1.00  0.00     0.006 A 
HETATM   32  C   UNL     1      39.474 -12.198   1.052  1.00  0.00     0.043 A 
HETATM   33  C   UNL     1      39.573 -10.747   2.972  1.00  0.00     0.015 A 
HETATM   34  C   UNL     1      38.203 -11.724   0.705  1.00  0.00     0.030 A 
HETATM   35  N   UNL     1      40.259 -13.146   0.439  1.00  0.00    -0.364 N 
HETATM   36  C   UNL     1      37.630 -10.746   1.521  1.00  0.00     0.002 A 
HETATM   37  C   UNL     1      38.303 -10.262   2.639  1.00  0.00     0.001 A 
HETATM   38  H   UNL     1      39.993 -13.660  -0.390  1.00  0.00     0.165 HD
HETATM   39  C   UNL     1      41.437 -13.299   1.121  1.00  0.00     0.104 A 
ENDBRANCH   5  30
TORSDOF 7
ENDMDL
