MODEL 1
REMARK VINA RESULT:      -8.9      0.000      0.000
REMARK  3 active torsions:
REMARK  status: ('A' for Active; 'I' for Inactive)
REMARK    1  A    between atoms: C_5  and  C_6 
REMARK       I    between atoms: C_6  and  N_7 
REMARK    2  A    between atoms: N_7  and  C_8 
REMARK    3  A    between atoms: C_13  and  C_14 
ROOT
HETATM    1  C   UNL     1      42.412 -13.977   2.006  1.00  0.00     0.137 A 
HETATM    2  N   UNL     1      41.834 -13.719   0.788  1.00  0.00    -0.262 N 
HETATM    3  H   UNL     1      41.723 -14.380   0.023  1.00  0.00     0.191 HD
HETATM    4  N   UNL     1      41.357 -12.464   0.668  1.00  0.00    -0.185 NA
HETATM    5  C   UNL     1      41.674 -11.901   1.837  1.00  0.00     0.155 A 
HETATM    6  C   UNL     1      42.348 -12.788   2.708  1.00  0.00     0.039 A 
ENDROOT
BRANCH   1   7
HETATM    7  N   UNL     1      42.913 -15.214   2.374  1.00  0.00    -0.307 N 
HETATM    8  C   UNL     1      42.095 -16.318   2.532  1.00  0.00     0.258 C 
HETATM    9  O   UNL     1      40.875 -16.305   2.381  1.00  0.00    -0.267 OA
HETATM   10  H   UNL     1      43.900 -15.275   2.595  1.00  0.00     0.170 HD
BRANCH   8  11
HETATM   11  C   UNL     1      42.765 -17.565   2.979  1.00  0.00     0.044 A 
HETATM   12  C   UNL     1      43.091 -17.826   4.335  1.00  0.00     0.008 A 
HETATM   13  C   UNL     1      43.675 -19.060   4.645  1.00  0.00     0.043 A 
HETATM   14  C   UNL     1      43.010 -17.106   5.566  1.00  0.00     0.032 A 
HETATM   15  C   UNL     1      43.975 -20.027   3.676  1.00  0.00     0.030 A 
HETATM   16  N   UNL     1      43.875 -19.095   6.007  1.00  0.00    -0.365 N 
HETATM   17  C   UNL     1      43.682 -19.729   2.344  1.00  0.00     0.003 A 
HETATM   18  C   UNL     1      43.088 -18.519   1.998  1.00  0.00     0.018 A 
HETATM   19  H   UNL     1      44.280 -19.877   6.505  1.00  0.00     0.165 HD
HETATM   20  C   UNL     1      43.479 -17.917   6.572  1.00  0.00     0.089 A 
ENDBRANCH   8  11
ENDBRANCH   1   7
BRANCH   6  21
HETATM   21  C   UNL     1      42.878 -12.569   4.037  1.00  0.00    -0.018 A 
HETATM   22  C   UNL     1      43.998 -11.746   4.218  1.00  0.00     0.052 A 
HETATM   23  C   UNL     1      44.474 -11.575   5.501  1.00  0.00     0.105 A 
HETATM   24  C   UNL     1      43.874 -12.174   6.582  1.00  0.00     0.105 A 
HETATM   25  O   UNL     1      45.552 -10.824   5.852  1.00  0.00    -0.323 OA
HETATM   26  O   UNL     1      44.498 -11.875   7.752  1.00  0.00    -0.323 OA
HETATM   27  C   UNL     1      42.763 -12.977   6.443  1.00  0.00     0.040 A 
HETATM   28  C   UNL     1      45.557 -11.014   7.283  1.00  0.00     0.352 A 
HETATM   29  C   UNL     1      42.258 -13.174   5.152  1.00  0.00     0.015 A 
ENDBRANCH   6  21
TORSDOF 3
ENDMDL
MODEL 2
REMARK VINA RESULT:      -8.5      2.882      6.985
REMARK  3 active torsions:
REMARK  status: ('A' for Active; 'I' for Inactive)
REMARK    1  A    between atoms: C_5  and  C_6 
REMARK       I    between atoms: C_6  and  N_7 
REMARK    2  A    between atoms: N_7  and  C_8 
REMARK    3  A    between atoms: C_13  and  C_14 
ROOT
HETATM    1  C   UNL     1      42.984 -15.675   5.932  1.00  0.00     0.137 A 
HETATM    2  N   UNL     1      43.030 -14.845   7.025  1.00  0.00    -0.262 N 
HETATM    3  H   UNL     1      42.782 -13.859   7.043  1.00  0.00     0.191 HD
HETATM    4  N   UNL     1      43.416 -15.463   8.159  1.00  0.00    -0.185 NA
HETATM    5  C   UNL     1      43.654 -16.716   7.762  1.00  0.00     0.155 A 
HETATM    6  C   UNL     1      43.418 -16.907   6.381  1.00  0.00     0.039 A 
ENDROOT
BRANCH   1   7
HETATM    7  N   UNL     1      42.556 -15.272   4.679  1.00  0.00    -0.307 N 
HETATM    8  C   UNL     1      41.221 -15.038   4.400  1.00  0.00     0.258 C 
HETATM    9  O   UNL     1      40.308 -15.175   5.212  1.00  0.00    -0.267 OA
HETATM   10  H   UNL     1      43.248 -15.219   3.940  1.00  0.00     0.170 HD
BRANCH   8  11
HETATM   11  C   UNL     1      40.906 -14.662   2.999  1.00  0.00     0.044 A 
HETATM   12  C   UNL     1      41.213 -13.391   2.450  1.00  0.00     0.008 A 
HETATM   13  C   UNL     1      40.916 -13.168   1.101  1.00  0.00     0.043 A 
HETATM   14  C   UNL     1      41.758 -12.165   2.943  1.00  0.00     0.032 A 
HETATM   15  C   UNL     1      40.306 -14.130   0.285  1.00  0.00     0.030 A 
HETATM   16  N   UNL     1      41.322 -11.888   0.790  1.00  0.00    -0.365 N 
HETATM   17  C   UNL     1      39.976 -15.358   0.859  1.00  0.00     0.003 A 
HETATM   18  C   UNL     1      40.269 -15.623   2.193  1.00  0.00     0.018 A 
HETATM   19  H   UNL     1      41.232 -11.466  -0.125  1.00  0.00     0.165 HD
HETATM   20  C   UNL     1      41.830 -11.273   1.899  1.00  0.00     0.089 A 
ENDBRANCH   8  11
ENDBRANCH   1   7
BRANCH   6  21
HETATM   21  C   UNL     1      43.576 -18.090   5.562  1.00  0.00    -0.018 A 
HETATM   22  C   UNL     1      43.592 -17.977   4.164  1.00  0.00     0.052 A 
HETATM   23  C   UNL     1      43.734 -19.131   3.424  1.00  0.00     0.105 A 
HETATM   24  C   UNL     1      43.869 -20.362   4.020  1.00  0.00     0.105 A 
HETATM   25  O   UNL     1      43.757 -19.205   2.067  1.00  0.00    -0.323 OA
HETATM   26  O   UNL     1      43.996 -21.366   3.113  1.00  0.00    -0.323 OA
HETATM   27  C   UNL     1      43.872 -20.508   5.391  1.00  0.00     0.040 A 
HETATM   28  C   UNL     1      43.931 -20.625   1.876  1.00  0.00     0.352 A 
HETATM   29  C   UNL     1      43.726 -19.354   6.170  1.00  0.00     0.015 A 
ENDBRANCH   6  21
TORSDOF 3
ENDMDL
MODEL 3
REMARK VINA RESULT:      -8.4      1.931      2.328
REMARK  3 active torsions:
REMARK  status: ('A' for Active; 'I' for Inactive)
REMARK    1  A    between atoms: C_5  and  C_6 
REMARK       I    between atoms: C_6  and  N_7 
REMARK    2  A    between atoms: N_7  and  C_8 
REMARK    3  A    between atoms: C_13  and  C_14 
ROOT
HETATM    1  C   UNL     1      40.988 -14.239   0.774  1.00  0.00     0.137 A 
HETATM    2  N   UNL     1      40.563 -14.362  -0.526  1.00  0.00    -0.262 N 
HETATM    3  H   UNL     1      40.833 -15.092  -1.181  1.00  0.00     0.191 HD
HETATM    4  N   UNL     1      39.678 -13.417  -0.900  1.00  0.00    -0.185 NA
HETATM    5  C   UNL     1      39.567 -12.652   0.190  1.00  0.00     0.155 A 
HETATM    6  C   UNL     1      40.372 -13.103   1.261  1.00  0.00     0.039 A 
ENDROOT
BRANCH   1   7
HETATM    7  N   UNL     1      41.846 -15.133   1.390  1.00  0.00    -0.307 N 
HETATM    8  C   UNL     1      41.411 -16.020   2.358  1.00  0.00     0.258 C 
HETATM    9  O   UNL     1      40.253 -16.089   2.766  1.00  0.00    -0.267 OA
HETATM   10  H   UNL     1      42.832 -15.074   1.160  1.00  0.00     0.170 HD
BRANCH   8  11
HETATM   11  C   UNL     1      42.454 -16.883   2.967  1.00  0.00     0.044 A 
HETATM   12  C   UNL     1      43.083 -16.583   4.202  1.00  0.00     0.008 A 
HETATM   13  C   UNL     1      44.015 -17.498   4.704  1.00  0.00     0.043 A 
HETATM   14  C   UNL     1      43.047 -15.502   5.136  1.00  0.00     0.032 A 
HETATM   15  C   UNL     1      44.372 -18.673   4.028  1.00  0.00     0.030 A 
HETATM   16  N   UNL     1      44.468 -17.012   5.911  1.00  0.00    -0.365 N 
HETATM   17  C   UNL     1      43.770 -18.925   2.795  1.00  0.00     0.003 A 
HETATM   18  C   UNL     1      42.827 -18.046   2.270  1.00  0.00     0.018 A 
HETATM   19  H   UNL     1      45.148 -17.479   6.497  1.00  0.00     0.165 HD
HETATM   20  C   UNL     1      43.890 -15.804   6.179  1.00  0.00     0.089 A 
ENDBRANCH   8  11
ENDBRANCH   1   7
BRANCH   6  21
HETATM   21  C   UNL     1      40.556 -12.552   2.587  1.00  0.00    -0.018 A 
HETATM   22  C   UNL     1      41.742 -11.874   2.905  1.00  0.00     0.052 A 
HETATM   23  C   UNL     1      41.877 -11.376   4.183  1.00  0.00     0.105 A 
HETATM   24  C   UNL     1      40.887 -11.517   5.125  1.00  0.00     0.105 A 
HETATM   25  O   UNL     1      42.961 -10.708   4.662  1.00  0.00    -0.323 OA
HETATM   26  O   UNL     1      41.222 -10.954   6.317  1.00  0.00    -0.323 OA
HETATM   27  C   UNL     1      39.704 -12.164   4.843  1.00  0.00     0.040 A 
HETATM   28  C   UNL     1      42.535 -10.437   6.014  1.00  0.00     0.352 A 
HETATM   29  C   UNL     1      39.537 -12.685   3.555  1.00  0.00     0.015 A 
ENDBRANCH   6  21
TORSDOF 3
ENDMDL
MODEL 4
REMARK VINA RESULT:      -8.3     14.761     16.711
REMARK  3 active torsions:
REMARK  status: ('A' for Active; 'I' for Inactive)
REMARK    1  A    between atoms: C_5  and  C_6 
REMARK       I    between atoms: C_6  and  N_7 
REMARK    2  A    between atoms: N_7  and  C_8 
REMARK    3  A    between atoms: C_13  and  C_14 
ROOT
HETATM    1  C   UNL     1      44.535 -29.832   1.852  1.00  0.00     0.137 A 
HETATM    2  N   UNL     1      43.712 -29.863   2.951  1.00  0.00    -0.262 N 
HETATM    3  H   UNL     1      43.986 -30.104   3.901  1.00  0.00     0.191 HD
HETATM    4  N   UNL     1      42.442 -29.497   2.689  1.00  0.00    -0.185 NA
HETATM    5  C   UNL     1      42.456 -29.259   1.374  1.00  0.00     0.155 A 
HETATM    6  C   UNL     1      43.728 -29.466   0.793  1.00  0.00     0.039 A 
ENDROOT
BRANCH   1   7
HETATM    7  N   UNL     1      45.891 -30.107   1.899  1.00  0.00    -0.307 N 
HETATM    8  C   UNL     1      46.839 -29.108   2.028  1.00  0.00     0.258 C 
HETATM    9  O   UNL     1      46.577 -27.908   2.097  1.00  0.00    -0.267 OA
HETATM   10  H   UNL     1      46.180 -31.069   1.764  1.00  0.00     0.170 HD
BRANCH   8  11
HETATM   11  C   UNL     1      48.256 -29.549   2.011  1.00  0.00     0.044 A 
HETATM   12  C   UNL     1      48.950 -29.879   0.820  1.00  0.00     0.008 A 
HETATM   13  C   UNL     1      50.301 -30.232   0.923  1.00  0.00     0.043 A 
HETATM   14  C   UNL     1      48.616 -29.990  -0.565  1.00  0.00     0.032 A 
HETATM   15  C   UNL     1      50.981 -30.300   2.146  1.00  0.00     0.030 A 
HETATM   16  N   UNL     1      50.764 -30.482  -0.350  1.00  0.00    -0.365 N 
HETATM   17  C   UNL     1      50.265 -30.011   3.308  1.00  0.00     0.003 A 
HETATM   18  C   UNL     1      48.924 -29.641   3.245  1.00  0.00     0.018 A 
HETATM   19  H   UNL     1      51.714 -30.753  -0.571  1.00  0.00     0.165 HD
HETATM   20  C   UNL     1      49.752 -30.342  -1.256  1.00  0.00     0.089 A 
ENDBRANCH   8  11
ENDBRANCH   1   7
BRANCH   6  21
HETATM   21  C   UNL     1      44.156 -29.343  -0.584  1.00  0.00    -0.018 A 
HETATM   22  C   UNL     1      43.911 -30.386  -1.490  1.00  0.00     0.052 A 
HETATM   23  C   UNL     1      44.346 -30.230  -2.788  1.00  0.00     0.105 A 
HETATM   24  C   UNL     1      44.989 -29.090  -3.205  1.00  0.00     0.105 A 
HETATM   25  O   UNL     1      44.203 -31.142  -3.787  1.00  0.00    -0.323 OA
HETATM   26  O   UNL     1      45.332 -29.139  -4.519  1.00  0.00    -0.323 OA
HETATM   27  C   UNL     1      45.234 -28.039  -2.346  1.00  0.00     0.040 A 
HETATM   28  C   UNL     1      44.825 -30.440  -4.884  1.00  0.00     0.352 A 
HETATM   29  C   UNL     1      44.808 -28.170  -1.019  1.00  0.00     0.015 A 
ENDBRANCH   6  21
TORSDOF 3
ENDMDL
MODEL 5
REMARK VINA RESULT:      -8.2      2.033      2.824
REMARK  3 active torsions:
REMARK  status: ('A' for Active; 'I' for Inactive)
REMARK    1  A    between atoms: C_5  and  C_6 
REMARK       I    between atoms: C_6  and  N_7 
REMARK    2  A    between atoms: N_7  and  C_8 
REMARK    3  A    between atoms: C_13  and  C_14 
ROOT
HETATM    1  C   UNL     1      41.155 -14.507   1.600  1.00  0.00     0.137 A 
HETATM    2  N   UNL     1      41.013 -14.734   0.253  1.00  0.00    -0.262 N 
HETATM    3  H   UNL     1      41.276 -15.582  -0.245  1.00  0.00     0.191 HD
HETATM    4  N   UNL     1      40.433 -13.715  -0.411  1.00  0.00    -0.185 NA
HETATM    5  C   UNL     1      40.233 -12.801   0.542  1.00  0.00     0.155 A 
HETATM    6  C   UNL     1      40.677 -13.229   1.814  1.00  0.00     0.039 A 
ENDROOT
BRANCH   1   7
HETATM    7  N   UNL     1      41.666 -15.439   2.487  1.00  0.00    -0.307 N 
HETATM    8  C   UNL     1      42.954 -15.931   2.373  1.00  0.00     0.258 C 
HETATM    9  O   UNL     1      43.743 -15.610   1.487  1.00  0.00    -0.267 OA
HETATM   10  H   UNL     1      41.040 -15.808   3.193  1.00  0.00     0.170 HD
BRANCH   8  11
HETATM   11  C   UNL     1      43.346 -16.962   3.366  1.00  0.00     0.044 A 
HETATM   12  C   UNL     1      43.444 -18.342   3.052  1.00  0.00     0.008 A 
HETATM   13  C   UNL     1      43.874 -19.216   4.057  1.00  0.00     0.043 A 
HETATM   14  C   UNL     1      43.173 -19.156   1.910  1.00  0.00     0.032 A 
HETATM   15  C   UNL     1      44.181 -18.792   5.358  1.00  0.00     0.030 A 
HETATM   16  N   UNL     1      43.916 -20.483   3.519  1.00  0.00    -0.365 N 
HETATM   17  C   UNL     1      44.036 -17.436   5.653  1.00  0.00     0.003 A 
HETATM   18  C   UNL     1      43.625 -16.534   4.676  1.00  0.00     0.018 A 
HETATM   19  H   UNL     1      44.199 -21.311   4.025  1.00  0.00     0.165 HD
HETATM   20  C   UNL     1      43.490 -20.457   2.221  1.00  0.00     0.089 A 
ENDBRANCH   8  11
ENDBRANCH   1   7
BRANCH   6  21
HETATM   21  C   UNL     1      40.666 -12.540   3.087  1.00  0.00    -0.018 A 
HETATM   22  C   UNL     1      41.810 -11.857   3.524  1.00  0.00     0.052 A 
HETATM   23  C   UNL     1      41.757 -11.225   4.748  1.00  0.00     0.105 A 
HETATM   24  C   UNL     1      40.622 -11.241   5.523  1.00  0.00     0.105 A 
HETATM   25  O   UNL     1      42.774 -10.532   5.327  1.00  0.00    -0.323 OA
HETATM   26  O   UNL     1      40.782 -10.558   6.688  1.00  0.00    -0.323 OA
HETATM   27  C   UNL     1      39.476 -11.889   5.118  1.00  0.00     0.040 A 
HETATM   28  C   UNL     1      42.146 -10.106   6.554  1.00  0.00     0.352 A 
HETATM   29  C   UNL     1      39.499 -12.545   3.882  1.00  0.00     0.015 A 
ENDBRANCH   6  21
TORSDOF 3
ENDMDL
MODEL 6
REMARK VINA RESULT:      -8.1      3.815      7.345
REMARK  3 active torsions:
REMARK  status: ('A' for Active; 'I' for Inactive)
REMARK    1  A    between atoms: C_5  and  C_6 
REMARK       I    between atoms: C_6  and  N_7 
REMARK    2  A    between atoms: N_7  and  C_8 
REMARK    3  A    between atoms: C_13  and  C_14 
ROOT
HETATM    1  C   UNL     1      39.740 -13.703   3.236  1.00  0.00     0.137 A 
HETATM    2  N   UNL     1      39.147 -12.748   4.024  1.00  0.00    -0.262 N 
HETATM    3  H   UNL     1      38.428 -12.089   3.733  1.00  0.00     0.191 HD
HETATM    4  N   UNL     1      39.574 -12.757   5.302  1.00  0.00    -0.185 NA
HETATM    5  C   UNL     1      40.491 -13.727   5.313  1.00  0.00     0.155 A 
HETATM    6  C   UNL     1      40.653 -14.344   4.051  1.00  0.00     0.039 A 
ENDROOT
BRANCH   1   7
HETATM    7  N   UNL     1      39.411 -13.918   1.908  1.00  0.00    -0.307 N 
HETATM    8  C   UNL     1      39.664 -12.977   0.927  1.00  0.00     0.258 C 
HETATM    9  O   UNL     1      40.179 -11.879   1.135  1.00  0.00    -0.267 OA
HETATM   10  H   UNL     1      38.909 -14.769   1.681  1.00  0.00     0.170 HD
BRANCH   8  11
HETATM   11  C   UNL     1      39.209 -13.325  -0.441  1.00  0.00     0.044 A 
HETATM   12  C   UNL     1      38.389 -12.474  -1.226  1.00  0.00     0.008 A 
HETATM   13  C   UNL     1      38.066 -12.886  -2.524  1.00  0.00     0.043 A 
HETATM   14  C   UNL     1      37.723 -11.226  -1.029  1.00  0.00     0.032 A 
HETATM   15  C   UNL     1      38.491 -14.107  -3.065  1.00  0.00     0.030 A 
HETATM   16  N   UNL     1      37.294 -11.898  -3.094  1.00  0.00    -0.365 N 
HETATM   17  C   UNL     1      39.262 -14.945  -2.259  1.00  0.00     0.003 A 
HETATM   18  C   UNL     1      39.616 -14.564  -0.968  1.00  0.00     0.018 A 
HETATM   19  H   UNL     1      36.924 -11.933  -4.035  1.00  0.00     0.165 HD
HETATM   20  C   UNL     1      37.078 -10.892  -2.197  1.00  0.00     0.089 A 
ENDBRANCH   8  11
ENDBRANCH   1   7
BRANCH   6  21
HETATM   21  C   UNL     1      41.547 -15.404   3.637  1.00  0.00    -0.018 A 
HETATM   22  C   UNL     1      42.098 -16.269   4.594  1.00  0.00     0.052 A 
HETATM   23  C   UNL     1      42.953 -17.257   4.156  1.00  0.00     0.105 A 
HETATM   24  C   UNL     1      43.258 -17.414   2.825  1.00  0.00     0.105 A 
HETATM   25  O   UNL     1      43.582 -18.168   4.945  1.00  0.00    -0.323 OA
HETATM   26  O   UNL     1      44.116 -18.446   2.608  1.00  0.00    -0.323 OA
HETATM   27  C   UNL     1      42.723 -16.592   1.856  1.00  0.00     0.040 A 
HETATM   28  C   UNL     1      44.313 -18.923   3.956  1.00  0.00     0.352 A 
HETATM   29  C   UNL     1      41.854 -15.576   2.271  1.00  0.00     0.015 A 
ENDBRANCH   6  21
TORSDOF 3
ENDMDL
MODEL 7
REMARK VINA RESULT:      -8.1      4.459      6.396
REMARK  3 active torsions:
REMARK  status: ('A' for Active; 'I' for Inactive)
REMARK    1  A    between atoms: C_5  and  C_6 
REMARK       I    between atoms: C_6  and  N_7 
REMARK    2  A    between atoms: N_7  and  C_8 
REMARK    3  A    between atoms: C_13  and  C_14 
ROOT
HETATM    1  C   UNL     1      44.636 -11.018   8.078  1.00  0.00     0.137 A 
HETATM    2  N   UNL     1      45.744 -10.701   7.332  1.00  0.00    -0.262 N 
HETATM    3  H   UNL     1      46.097 -11.219   6.530  1.00  0.00     0.191 HD
HETATM    4  N   UNL     1      46.359  -9.569   7.726  1.00  0.00    -0.185 NA
HETATM    5  C   UNL     1      45.635  -9.175   8.777  1.00  0.00     0.155 A 
HETATM    6  C   UNL     1      44.557 -10.046   9.057  1.00  0.00     0.039 A 
ENDROOT
BRANCH   1   7
HETATM    7  N   UNL     1      43.814 -12.100   7.815  1.00  0.00    -0.307 N 
HETATM    8  C   UNL     1      43.546 -12.521   6.526  1.00  0.00     0.258 C 
HETATM    9  O   UNL     1      43.987 -11.980   5.513  1.00  0.00    -0.267 OA
HETATM   10  H   UNL     1      43.352 -12.541   8.602  1.00  0.00     0.170 HD
BRANCH   8  11
HETATM   11  C   UNL     1      42.607 -13.663   6.396  1.00  0.00     0.044 A 
HETATM   12  C   UNL     1      43.022 -15.018   6.454  1.00  0.00     0.008 A 
HETATM   13  C   UNL     1      42.039 -16.011   6.372  1.00  0.00     0.043 A 
HETATM   14  C   UNL     1      44.271 -15.705   6.549  1.00  0.00     0.032 A 
HETATM   15  C   UNL     1      40.676 -15.725   6.208  1.00  0.00     0.030 A 
HETATM   16  N   UNL     1      42.669 -17.231   6.475  1.00  0.00    -0.365 N 
HETATM   17  C   UNL     1      40.298 -14.385   6.112  1.00  0.00     0.003 A 
HETATM   18  C   UNL     1      41.245 -13.369   6.204  1.00  0.00     0.018 A 
HETATM   19  H   UNL     1      42.194 -18.124   6.453  1.00  0.00     0.165 HD
HETATM   20  C   UNL     1      44.020 -17.057   6.579  1.00  0.00     0.089 A 
ENDBRANCH   8  11
ENDBRANCH   1   7
BRANCH   6  21
HETATM   21  C   UNL     1      43.563  -9.993  10.108  1.00  0.00    -0.018 A 
HETATM   22  C   UNL     1      42.318  -9.394   9.866  1.00  0.00     0.052 A 
HETATM   23  C   UNL     1      41.407  -9.358  10.900  1.00  0.00     0.105 A 
HETATM   24  C   UNL     1      41.687  -9.898  12.132  1.00  0.00     0.105 A 
HETATM   25  O   UNL     1      40.166  -8.807  10.843  1.00  0.00    -0.323 OA
HETATM   26  O   UNL     1      40.655  -9.756  13.006  1.00  0.00    -0.323 OA
HETATM   27  C   UNL     1      42.894 -10.507  12.401  1.00  0.00     0.040 A 
HETATM   28  C   UNL     1      39.692  -9.069  12.180  1.00  0.00     0.352 A 
HETATM   29  C   UNL     1      43.842 -10.556  11.372  1.00  0.00     0.015 A 
ENDBRANCH   6  21
TORSDOF 3
ENDMDL
MODEL 8
REMARK VINA RESULT:      -8.1      3.009      5.821
REMARK  3 active torsions:
REMARK  status: ('A' for Active; 'I' for Inactive)
REMARK    1  A    between atoms: C_5  and  C_6 
REMARK       I    between atoms: C_6  and  N_7 
REMARK    2  A    between atoms: N_7  and  C_8 
REMARK    3  A    between atoms: C_13  and  C_14 
ROOT
HETATM    1  C   UNL     1      42.013 -12.246   2.068  1.00  0.00     0.137 A 
HETATM    2  N   UNL     1      42.250 -11.306   3.040  1.00  0.00    -0.262 N 
HETATM    3  H   UNL     1      42.706 -11.469   3.935  1.00  0.00     0.191 HD
HETATM    4  N   UNL     1      41.846 -10.065   2.706  1.00  0.00    -0.185 NA
HETATM    5  C   UNL     1      41.307 -10.232   1.495  1.00  0.00     0.155 A 
HETATM    6  C   UNL     1      41.365 -11.573   1.050  1.00  0.00     0.039 A 
ENDROOT
BRANCH   1   7
HETATM    7  N   UNL     1      42.399 -13.572   2.168  1.00  0.00    -0.307 N 
HETATM    8  C   UNL     1      42.243 -14.295   3.336  1.00  0.00     0.258 C 
HETATM    9  O   UNL     1      41.773 -13.839   4.377  1.00  0.00    -0.267 OA
HETATM   10  H   UNL     1      42.870 -13.985   1.371  1.00  0.00     0.170 HD
BRANCH   8  11
HETATM   11  C   UNL     1      42.751 -15.689   3.310  1.00  0.00     0.044 A 
HETATM   12  C   UNL     1      43.302 -16.334   4.447  1.00  0.00     0.008 A 
HETATM   13  C   UNL     1      43.700 -17.670   4.316  1.00  0.00     0.043 A 
HETATM   14  C   UNL     1      43.617 -15.956   5.788  1.00  0.00     0.032 A 
HETATM   15  C   UNL     1      43.605 -18.380   3.112  1.00  0.00     0.030 A 
HETATM   16  N   UNL     1      44.174 -18.085   5.541  1.00  0.00    -0.365 N 
HETATM   17  C   UNL     1      43.098 -17.711   1.998  1.00  0.00     0.003 A 
HETATM   18  C   UNL     1      42.677 -16.388   2.092  1.00  0.00     0.018 A 
HETATM   19  H   UNL     1      44.523 -19.015   5.735  1.00  0.00     0.165 HD
HETATM   20  C   UNL     1      44.131 -17.055   6.437  1.00  0.00     0.089 A 
ENDBRANCH   8  11
ENDBRANCH   1   7
BRANCH   6  21
HETATM   21  C   UNL     1      40.879 -12.171  -0.175  1.00  0.00    -0.018 A 
HETATM   22  C   UNL     1      40.116 -13.347  -0.126  1.00  0.00     0.052 A 
HETATM   23  C   UNL     1      39.683 -13.887  -1.318  1.00  0.00     0.105 A 
HETATM   24  C   UNL     1      39.970 -13.299  -2.526  1.00  0.00     0.105 A 
HETATM   25  O   UNL     1      38.949 -15.023  -1.453  1.00  0.00    -0.323 OA
HETATM   26  O   UNL     1      39.450 -13.990  -3.575  1.00  0.00    -0.323 OA
HETATM   27  C   UNL     1      40.705 -12.136  -2.611  1.00  0.00     0.040 A 
HETATM   28  C   UNL     1      38.799 -15.079  -2.887  1.00  0.00     0.352 A 
HETATM   29  C   UNL     1      41.162 -11.565  -1.418  1.00  0.00     0.015 A 
ENDBRANCH   6  21
TORSDOF 3
ENDMDL
MODEL 9
REMARK VINA RESULT:      -8.0      2.624      6.697
REMARK  3 active torsions:
REMARK  status: ('A' for Active; 'I' for Inactive)
REMARK    1  A    between atoms: C_5  and  C_6 
REMARK       I    between atoms: C_6  and  N_7 
REMARK    2  A    between atoms: N_7  and  C_8 
REMARK    3  A    between atoms: C_13  and  C_14 
ROOT
HETATM    1  C   UNL     1      42.237 -13.310   3.092  1.00  0.00     0.137 A 
HETATM    2  N   UNL     1      41.678 -12.576   2.076  1.00  0.00    -0.262 N 
HETATM    3  H   UNL     1      41.475 -11.579   2.095  1.00  0.00     0.191 HD
HETATM    4  N   UNL     1      41.429 -13.292   0.962  1.00  0.00    -0.185 NA
HETATM    5  C   UNL     1      41.813 -14.526   1.298  1.00  0.00     0.155 A 
HETATM    6  C   UNL     1      42.310 -14.606   2.619  1.00  0.00     0.039 A 
ENDROOT
BRANCH   1   7
HETATM    7  N   UNL     1      42.633 -12.770   4.304  1.00  0.00    -0.307 N 
HETATM    8  C   UNL     1      43.547 -11.735   4.382  1.00  0.00     0.258 C 
HETATM    9  O   UNL     1      44.093 -11.217   3.409  1.00  0.00    -0.267 OA
HETATM   10  H   UNL     1      42.284 -13.206   5.149  1.00  0.00     0.170 HD
BRANCH   8  11
HETATM   11  C   UNL     1      43.915 -11.294   5.750  1.00  0.00     0.044 A 
HETATM   12  C   UNL     1      43.005 -10.654   6.629  1.00  0.00     0.008 A 
HETATM   13  C   UNL     1      43.450 -10.330   7.916  1.00  0.00     0.043 A 
HETATM   14  C   UNL     1      41.658 -10.183   6.546  1.00  0.00     0.032 A 
HETATM   15  C   UNL     1      44.756 -10.583   8.357  1.00  0.00     0.030 A 
HETATM   16  N   UNL     1      42.398  -9.747   8.587  1.00  0.00    -0.365 N 
HETATM   17  C   UNL     1      45.645 -11.175   7.460  1.00  0.00     0.003 A 
HETATM   18  C   UNL     1      45.235 -11.526   6.177  1.00  0.00     0.018 A 
HETATM   19  H   UNL     1      42.440  -9.420   9.543  1.00  0.00     0.165 HD
HETATM   20  C   UNL     1      41.311  -9.651   7.766  1.00  0.00     0.089 A 
ENDBRANCH   8  11
ENDBRANCH   1   7
BRANCH   6  21
HETATM   21  C   UNL     1      42.798 -15.746   3.365  1.00  0.00    -0.018 A 
HETATM   22  C   UNL     1      43.034 -16.963   2.711  1.00  0.00     0.052 A 
HETATM   23  C   UNL     1      43.488 -18.024   3.464  1.00  0.00     0.105 A 
HETATM   24  C   UNL     1      43.721 -17.908   4.813  1.00  0.00     0.105 A 
HETATM   25  O   UNL     1      43.754 -19.273   2.995  1.00  0.00    -0.323 OA
HETATM   26  O   UNL     1      44.165 -19.069   5.364  1.00  0.00    -0.323 OA
HETATM   27  C   UNL     1      43.515 -16.723   5.486  1.00  0.00     0.040 A 
HETATM   28  C   UNL     1      44.190 -19.928   4.204  1.00  0.00     0.352 A 
HETATM   29  C   UNL     1      43.049 -15.628   4.749  1.00  0.00     0.015 A 
ENDBRANCH   6  21
TORSDOF 3
ENDMDL
MODEL 10
REMARK VINA RESULT:      -8.0      2.866      7.017
REMARK  3 active torsions:
REMARK  status: ('A' for Active; 'I' for Inactive)
REMARK    1  A    between atoms: C_5  and  C_6 
REMARK       I    between atoms: C_6  and  N_7 
REMARK    2  A    between atoms: N_7  and  C_8 
REMARK    3  A    between atoms: C_13  and  C_14 
ROOT
HETATM    1  C   UNL     1      42.695 -14.029   3.912  1.00  0.00     0.137 A 
HETATM    2  N   UNL     1      42.787 -12.979   4.793  1.00  0.00    -0.262 N 
HETATM    3  H   UNL     1      42.553 -12.008   4.599  1.00  0.00     0.191 HD
HETATM    4  N   UNL     1      43.199 -13.339   6.025  1.00  0.00    -0.185 NA
HETATM    5  C   UNL     1      43.406 -14.653   5.908  1.00  0.00     0.155 A 
HETATM    6  C   UNL     1      43.126 -15.140   4.611  1.00  0.00     0.039 A 
ENDROOT
BRANCH   1   7
HETATM    7  N   UNL     1      42.234 -13.904   2.613  1.00  0.00    -0.307 N 
HETATM    8  C   UNL     1      40.907 -13.637   2.328  1.00  0.00     0.258 C 
HETATM    9  O   UNL     1      40.028 -13.503   3.178  1.00  0.00    -0.267 OA
HETATM   10  H   UNL     1      42.890 -14.085   1.863  1.00  0.00     0.170 HD
BRANCH   8  11
HETATM   11  C   UNL     1      40.549 -13.583   0.889  1.00  0.00     0.044 A 
HETATM   12  C   UNL     1      40.735 -12.428   0.087  1.00  0.00     0.008 A 
HETATM   13  C   UNL     1      40.409 -12.511  -1.272  1.00  0.00     0.043 A 
HETATM   14  C   UNL     1      41.169 -11.085   0.309  1.00  0.00     0.032 A 
HETATM   15  C   UNL     1      39.885 -13.669  -1.861  1.00  0.00     0.030 A 
HETATM   16  N   UNL     1      40.694 -11.291  -1.844  1.00  0.00    -0.365 N 
HETATM   17  C   UNL     1      39.672 -14.779  -1.043  1.00  0.00     0.003 A 
HETATM   18  C   UNL     1      39.998 -14.740   0.310  1.00  0.00     0.018 A 
HETATM   19  H   UNL     1      40.559 -11.072  -2.822  1.00  0.00     0.165 HD
HETATM   20  C   UNL     1      41.151 -10.421  -0.895  1.00  0.00     0.089 A 
ENDBRANCH   8  11
ENDBRANCH   1   7
BRANCH   6  21
HETATM   21  C   UNL     1      43.242 -16.477   4.071  1.00  0.00    -0.018 A 
HETATM   22  C   UNL     1      43.700 -17.524   4.884  1.00  0.00     0.052 A 
HETATM   23  C   UNL     1      43.804 -18.779   4.323  1.00  0.00     0.105 A 
HETATM   24  C   UNL     1      43.462 -19.019   3.014  1.00  0.00     0.105 A 
HETATM   25  O   UNL     1      44.240 -19.898   4.961  1.00  0.00    -0.323 OA
HETATM   26  O   UNL     1      43.638 -20.321   2.663  1.00  0.00    -0.323 OA
HETATM   27  C   UNL     1      42.995 -18.018   2.191  1.00  0.00     0.040 A 
HETATM   28  C   UNL     1      44.126 -20.874   3.904  1.00  0.00     0.352 A 
HETATM   29  C   UNL     1      42.881 -16.731   2.730  1.00  0.00     0.015 A 
ENDBRANCH   6  21
TORSDOF 3
ENDMDL
