MODEL 1
REMARK VINA RESULT:      -8.7      0.000      0.000
REMARK  7 active torsions:
REMARK  status: ('A' for Active; 'I' for Inactive)
REMARK    1  A    between atoms: O_2  and  C_3 
REMARK    2  A    between atoms: C_7  and  C_8 
REMARK    3  A    between atoms: C_8  and  N_9 
REMARK       I    between atoms: N_9  and  C_10 
REMARK    4  A    between atoms: C_10  and  C_12 
REMARK    5  A    between atoms: C_17  and  C_26 
REMARK    6  A    between atoms: C_21  and  C_22 
REMARK    7  A    between atoms: C_22  and  N_23 
ROOT
HETATM    1  C   UNL     1      42.114 -13.407   4.689  1.00  0.00     0.110 A 
HETATM    2  N   UNL     1      42.253 -14.671   5.217  1.00  0.00    -0.351 N 
HETATM    3  H   UNL     1      42.086 -14.885   6.191  1.00  0.00     0.166 HD
HETATM    4  C   UNL     1      42.659 -15.569   4.264  1.00  0.00     0.044 A 
HETATM    5  C   UNL     1      42.943 -16.937   4.377  1.00  0.00     0.042 A 
HETATM    6  C   UNL     1      43.334 -17.635   3.222  1.00  0.00    -0.021 A 
HETATM    7  C   UNL     1      43.426 -16.954   2.004  1.00  0.00     0.013 A 
HETATM    8  C   UNL     1      43.134 -15.584   1.910  1.00  0.00     0.015 A 
HETATM    9  C   UNL     1      42.748 -14.872   3.063  1.00  0.00     0.001 A 
HETATM   10  C   UNL     1      42.387 -13.504   3.324  1.00  0.00     0.015 A 
ENDROOT
BRANCH   1  11
HETATM   11  C   UNL     1      41.711 -12.304   5.537  1.00  0.00     0.269 C 
HETATM   12  N   UNL     1      42.662 -11.337   5.728  1.00  0.00    -0.351 N 
HETATM   13  H   UNL     1      43.603 -11.531   5.387  1.00  0.00     0.163 HD
HETATM   14  O   UNL     1      40.607 -12.271   6.074  1.00  0.00    -0.266 OA
BRANCH  12  15
HETATM   15  C   UNL     1      42.464 -10.212   6.603  1.00  0.00     0.161 C 
BRANCH  15  16
HETATM   16  C   UNL     1      43.483 -10.165   7.711  1.00  0.00    -0.038 A 
HETATM   17  C   UNL     1      44.811 -10.541   7.469  1.00  0.00     0.009 A 
HETATM   18  C   UNL     1      45.755 -10.503   8.493  1.00  0.00     0.003 A 
HETATM   19  C   UNL     1      45.388 -10.082   9.772  1.00  0.00     0.037 A 
HETATM   20  C   UNL     1      44.074  -9.689  10.030  1.00  0.00     0.068 A 
HETATM   21  C   UNL     1      43.131  -9.727   8.996  1.00  0.00     0.045 A 
BRANCH  20  22
HETATM   22  O   UNL     1      43.588  -9.253  11.233  1.00  0.00    -0.356 OA
HETATM   23  C   UNL     1      43.014 -10.235  12.085  1.00  0.00     0.210 C 
ENDBRANCH  20  22
ENDBRANCH  15  16
ENDBRANCH  12  15
ENDBRANCH   1  11
BRANCH  10  24
HETATM   24  C   UNL     1      42.278 -12.424   2.285  1.00  0.00     0.313 C 
BRANCH  24  25
HETATM   25  N   UNL     1      40.897 -12.331   1.766  1.00  0.00     0.084 N 
HETATM   26  C   UNL     1      40.366 -10.969   1.918  1.00  0.00     0.309 C 
HETATM   27  C   UNL     1      40.891 -12.695   0.343  1.00  0.00     0.309 C 
ENDBRANCH  24  25
ENDBRANCH  10  24
BRANCH   6  28
HETATM   28  C   UNL     1      43.649 -19.054   3.283  1.00  0.00     0.010 A 
HETATM   29  C   UNL     1      43.597 -20.055   2.286  1.00  0.00     0.152 A 
HETATM   30  N   UNL     1      43.954 -21.260   2.740  1.00  0.00    -0.187 NA
HETATM   31  N   UNL     1      44.235 -21.035   4.033  1.00  0.00    -0.289 N 
HETATM   32  H   UNL     1      44.532 -21.818   4.604  1.00  0.00     0.188 HD
HETATM   33  C   UNL     1      44.068 -19.732   4.408  1.00  0.00     0.123 A 
ENDBRANCH   6  28
TORSDOF 7
ENDMDL
MODEL 2
REMARK VINA RESULT:      -8.4      3.557      7.980
REMARK  7 active torsions:
REMARK  status: ('A' for Active; 'I' for Inactive)
REMARK    1  A    between atoms: O_2  and  C_3 
REMARK    2  A    between atoms: C_7  and  C_8 
REMARK    3  A    between atoms: C_8  and  N_9 
REMARK       I    between atoms: N_9  and  C_10 
REMARK    4  A    between atoms: C_10  and  C_12 
REMARK    5  A    between atoms: C_17  and  C_26 
REMARK    6  A    between atoms: C_21  and  C_22 
REMARK    7  A    between atoms: C_22  and  N_23 
ROOT
HETATM    1  C   UNL     1      41.801 -13.741   1.494  1.00  0.00     0.110 A 
HETATM    2  N   UNL     1      41.974 -15.043   1.081  1.00  0.00    -0.351 N 
HETATM    3  H   UNL     1      41.722 -15.368   0.157  1.00  0.00     0.166 HD
HETATM    4  C   UNL     1      42.502 -15.819   2.080  1.00  0.00     0.044 A 
HETATM    5  C   UNL     1      42.808 -17.187   2.093  1.00  0.00     0.042 A 
HETATM    6  C   UNL     1      43.361 -17.736   3.262  1.00  0.00    -0.021 A 
HETATM    7  C   UNL     1      43.591 -16.910   4.368  1.00  0.00     0.013 A 
HETATM    8  C   UNL     1      43.280 -15.542   4.335  1.00  0.00     0.015 A 
HETATM    9  C   UNL     1      42.719 -14.982   3.170  1.00  0.00     0.001 A 
HETATM   10  C   UNL     1      42.291 -13.660   2.798  1.00  0.00     0.015 A 
ENDROOT
BRANCH   1  11
HETATM   11  C   UNL     1      41.234 -12.760   0.592  1.00  0.00     0.269 C 
HETATM   12  N   UNL     1      41.274 -13.094  -0.735  1.00  0.00    -0.351 N 
HETATM   13  H   UNL     1      41.814 -13.918  -0.995  1.00  0.00     0.163 HD
HETATM   14  O   UNL     1      40.789 -11.689   0.999  1.00  0.00    -0.266 OA
BRANCH  12  15
HETATM   15  C   UNL     1      40.830 -12.206  -1.776  1.00  0.00     0.161 C 
BRANCH  15  16
HETATM   16  C   UNL     1      39.427 -12.516  -2.231  1.00  0.00    -0.038 A 
HETATM   17  C   UNL     1      39.105 -13.791  -2.714  1.00  0.00     0.009 A 
HETATM   18  C   UNL     1      37.810 -14.079  -3.140  1.00  0.00     0.003 A 
HETATM   19  C   UNL     1      36.817 -13.100  -3.083  1.00  0.00     0.037 A 
HETATM   20  C   UNL     1      37.114 -11.828  -2.592  1.00  0.00     0.068 A 
HETATM   21  C   UNL     1      38.417 -11.546  -2.163  1.00  0.00     0.045 A 
BRANCH  20  22
HETATM   22  O   UNL     1      36.235 -10.786  -2.479  1.00  0.00    -0.356 OA
HETATM   23  C   UNL     1      35.230 -10.686  -3.479  1.00  0.00     0.210 C 
ENDBRANCH  20  22
ENDBRANCH  15  16
ENDBRANCH  12  15
ENDBRANCH   1  11
BRANCH  10  24
HETATM   24  C   UNL     1      42.420 -12.434   3.658  1.00  0.00     0.313 C 
BRANCH  24  25
HETATM   25  N   UNL     1      41.215 -12.247   4.492  1.00  0.00     0.084 N 
HETATM   26  C   UNL     1      41.481 -12.605   5.893  1.00  0.00     0.309 C 
HETATM   27  C   UNL     1      40.796 -10.841   4.426  1.00  0.00     0.309 C 
ENDBRANCH  24  25
ENDBRANCH  10  24
BRANCH   6  28
HETATM   28  C   UNL     1      43.690 -19.151   3.335  1.00  0.00     0.010 A 
HETATM   29  C   UNL     1      43.631 -20.165   2.351  1.00  0.00     0.152 A 
HETATM   30  N   UNL     1      44.004 -21.361   2.816  1.00  0.00    -0.187 NA
HETATM   31  N   UNL     1      44.302 -21.117   4.101  1.00  0.00    -0.289 N 
HETATM   32  H   UNL     1      44.614 -21.892   4.678  1.00  0.00     0.188 HD
HETATM   33  C   UNL     1      44.130 -19.812   4.462  1.00  0.00     0.123 A 
ENDBRANCH   6  28
TORSDOF 7
ENDMDL
MODEL 3
REMARK VINA RESULT:      -8.2      2.786      7.388
REMARK  7 active torsions:
REMARK  status: ('A' for Active; 'I' for Inactive)
REMARK    1  A    between atoms: O_2  and  C_3 
REMARK    2  A    between atoms: C_7  and  C_8 
REMARK    3  A    between atoms: C_8  and  N_9 
REMARK       I    between atoms: N_9  and  C_10 
REMARK    4  A    between atoms: C_10  and  C_12 
REMARK    5  A    between atoms: C_17  and  C_26 
REMARK    6  A    between atoms: C_21  and  C_22 
REMARK    7  A    between atoms: C_22  and  N_23 
ROOT
HETATM    1  C   UNL     1      41.188 -13.650   3.012  1.00  0.00     0.110 A 
HETATM    2  N   UNL     1      41.290 -14.856   2.354  1.00  0.00    -0.351 N 
HETATM    3  H   UNL     1      40.833 -15.044   1.471  1.00  0.00     0.166 HD
HETATM    4  C   UNL     1      42.060 -15.745   3.055  1.00  0.00     0.044 A 
HETATM    5  C   UNL     1      42.395 -17.076   2.763  1.00  0.00     0.042 A 
HETATM    6  C   UNL     1      43.224 -17.767   3.661  1.00  0.00    -0.021 A 
HETATM    7  C   UNL     1      43.691 -17.117   4.809  1.00  0.00     0.013 A 
HETATM    8  C   UNL     1      43.347 -15.784   5.083  1.00  0.00     0.015 A 
HETATM    9  C   UNL     1      42.510 -15.082   4.193  1.00  0.00     0.001 A 
HETATM   10  C   UNL     1      41.973 -13.748   4.162  1.00  0.00     0.015 A 
ENDROOT
BRANCH   1  11
HETATM   11  C   UNL     1      40.398 -12.576   2.448  1.00  0.00     0.269 C 
HETATM   12  N   UNL     1      39.378 -12.972   1.624  1.00  0.00    -0.351 N 
HETATM   13  H   UNL     1      39.342 -13.956   1.362  1.00  0.00     0.163 HD
HETATM   14  O   UNL     1      40.661 -11.396   2.668  1.00  0.00    -0.266 OA
BRANCH  12  15
HETATM   15  C   UNL     1      38.544 -12.039   0.914  1.00  0.00     0.161 C 
BRANCH  15  16
HETATM   16  C   UNL     1      38.996 -11.836  -0.508  1.00  0.00    -0.038 A 
HETATM   17  C   UNL     1      39.494 -10.594  -0.922  1.00  0.00     0.009 A 
HETATM   18  C   UNL     1      39.909 -10.401  -2.238  1.00  0.00     0.003 A 
HETATM   19  C   UNL     1      39.838 -11.449  -3.158  1.00  0.00     0.037 A 
HETATM   20  C   UNL     1      39.359 -12.698  -2.762  1.00  0.00     0.068 A 
HETATM   21  C   UNL     1      38.946 -12.885  -1.437  1.00  0.00     0.045 A 
BRANCH  20  22
HETATM   22  O   UNL     1      39.244 -13.803  -3.560  1.00  0.00    -0.356 OA
HETATM   23  C   UNL     1      38.304 -14.790  -3.155  1.00  0.00     0.210 C 
ENDBRANCH  20  22
ENDBRANCH  15  16
ENDBRANCH  12  15
ENDBRANCH   1  11
BRANCH  10  24
HETATM   24  C   UNL     1      42.273 -12.670   5.165  1.00  0.00     0.313 C 
BRANCH  24  25
HETATM   25  N   UNL     1      43.695 -12.274   5.103  1.00  0.00     0.084 N 
HETATM   26  C   UNL     1      44.004 -11.611   3.828  1.00  0.00     0.309 C 
HETATM   27  C   UNL     1      43.989 -11.353   6.209  1.00  0.00     0.309 C 
ENDBRANCH  24  25
ENDBRANCH  10  24
BRANCH   6  28
HETATM   28  C   UNL     1      43.596 -19.152   3.413  1.00  0.00     0.010 A 
HETATM   29  C   UNL     1      43.624 -19.901   2.213  1.00  0.00     0.152 A 
HETATM   30  N   UNL     1      44.011 -21.165   2.399  1.00  0.00    -0.187 NA
HETATM   31  N   UNL     1      44.233 -21.232   3.721  1.00  0.00    -0.289 N 
HETATM   32  H   UNL     1      44.540 -22.116   4.113  1.00  0.00     0.188 HD
HETATM   33  C   UNL     1      43.998 -20.056   4.373  1.00  0.00     0.123 A 
ENDBRANCH   6  28
TORSDOF 7
ENDMDL
MODEL 4
REMARK VINA RESULT:      -7.7      3.001      8.718
REMARK  7 active torsions:
REMARK  status: ('A' for Active; 'I' for Inactive)
REMARK    1  A    between atoms: O_2  and  C_3 
REMARK    2  A    between atoms: C_7  and  C_8 
REMARK    3  A    between atoms: C_8  and  N_9 
REMARK       I    between atoms: N_9  and  C_10 
REMARK    4  A    between atoms: C_10  and  C_12 
REMARK    5  A    between atoms: C_17  and  C_26 
REMARK    6  A    between atoms: C_21  and  C_22 
REMARK    7  A    between atoms: C_22  and  N_23 
ROOT
HETATM    1  C   UNL     1      41.309 -13.608   3.683  1.00  0.00     0.110 A 
HETATM    2  N   UNL     1      41.695 -12.324   4.000  1.00  0.00    -0.351 N 
HETATM    3  H   UNL     1      41.319 -11.505   3.541  1.00  0.00     0.166 HD
HETATM    4  C   UNL     1      42.649 -12.317   4.983  1.00  0.00     0.044 A 
HETATM    5  C   UNL     1      43.326 -11.241   5.576  1.00  0.00     0.042 A 
HETATM    6  C   UNL     1      44.261 -11.516   6.587  1.00  0.00    -0.021 A 
HETATM    7  C   UNL     1      44.488 -12.842   6.973  1.00  0.00     0.013 A 
HETATM    8  C   UNL     1      43.798 -13.906   6.370  1.00  0.00     0.015 A 
HETATM    9  C   UNL     1      42.862 -13.642   5.350  1.00  0.00     0.001 A 
HETATM   10  C   UNL     1      42.003 -14.463   4.539  1.00  0.00     0.015 A 
ENDROOT
BRANCH   1  11
HETATM   11  C   UNL     1      40.321 -13.837   2.649  1.00  0.00     0.269 C 
HETATM   12  N   UNL     1      40.799 -14.413   1.503  1.00  0.00    -0.351 N 
HETATM   13  H   UNL     1      41.810 -14.502   1.409  1.00  0.00     0.163 HD
HETATM   14  O   UNL     1      39.149 -13.497   2.788  1.00  0.00    -0.266 OA
BRANCH  12  15
HETATM   15  C   UNL     1      39.978 -14.640   0.344  1.00  0.00     0.161 C 
BRANCH  15  16
HETATM   16  C   UNL     1      40.301 -13.691  -0.780  1.00  0.00    -0.038 A 
HETATM   17  C   UNL     1      40.016 -14.041  -2.106  1.00  0.00     0.009 A 
HETATM   18  C   UNL     1      40.318 -13.166  -3.148  1.00  0.00     0.003 A 
HETATM   19  C   UNL     1      40.903 -11.928  -2.880  1.00  0.00     0.037 A 
HETATM   20  C   UNL     1      41.180 -11.554  -1.564  1.00  0.00     0.068 A 
HETATM   21  C   UNL     1      40.872 -12.436  -0.522  1.00  0.00     0.045 A 
BRANCH  20  22
HETATM   22  O   UNL     1      41.744 -10.372  -1.168  1.00  0.00    -0.356 OA
HETATM   23  C   UNL     1      41.082  -9.665  -0.128  1.00  0.00     0.210 C 
ENDBRANCH  20  22
ENDBRANCH  15  16
ENDBRANCH  12  15
ENDBRANCH   1  11
BRANCH  10  24
HETATM   24  C   UNL     1      41.863 -15.955   4.663  1.00  0.00     0.313 C 
BRANCH  24  25
HETATM   25  N   UNL     1      42.986 -16.646   3.997  1.00  0.00     0.084 N 
HETATM   26  C   UNL     1      43.598 -17.642   4.888  1.00  0.00     0.309 C 
HETATM   27  C   UNL     1      42.490 -17.321   2.790  1.00  0.00     0.309 C 
ENDBRANCH  24  25
ENDBRANCH  10  24
BRANCH   6  28
HETATM   28  C   UNL     1      44.999 -10.440   7.230  1.00  0.00     0.010 A 
HETATM   29  C   UNL     1      44.547  -9.256   7.858  1.00  0.00     0.152 A 
HETATM   30  N   UNL     1      45.546  -8.499   8.320  1.00  0.00    -0.187 NA
HETATM   31  N   UNL     1      46.644  -9.196   7.988  1.00  0.00    -0.289 N 
HETATM   32  H   UNL     1      47.550  -8.813   8.236  1.00  0.00     0.188 HD
HETATM   33  C   UNL     1      46.372 -10.363   7.334  1.00  0.00     0.123 A 
ENDBRANCH   6  28
TORSDOF 7
ENDMDL
MODEL 5
REMARK VINA RESULT:      -7.6      1.504      2.124
REMARK  7 active torsions:
REMARK  status: ('A' for Active; 'I' for Inactive)
REMARK    1  A    between atoms: O_2  and  C_3 
REMARK    2  A    between atoms: C_7  and  C_8 
REMARK    3  A    between atoms: C_8  and  N_9 
REMARK       I    between atoms: N_9  and  C_10 
REMARK    4  A    between atoms: C_10  and  C_12 
REMARK    5  A    between atoms: C_17  and  C_26 
REMARK    6  A    between atoms: C_21  and  C_22 
REMARK    7  A    between atoms: C_22  and  N_23 
ROOT
HETATM    1  C   UNL     1      40.711 -13.419   4.545  1.00  0.00     0.110 A 
HETATM    2  N   UNL     1      41.188 -14.610   5.046  1.00  0.00    -0.351 N 
HETATM    3  H   UNL     1      41.209 -14.826   6.034  1.00  0.00     0.166 HD
HETATM    4  C   UNL     1      41.637 -15.430   4.044  1.00  0.00     0.044 A 
HETATM    5  C   UNL     1      42.217 -16.705   4.112  1.00  0.00     0.042 A 
HETATM    6  C   UNL     1      42.580 -17.339   2.913  1.00  0.00    -0.021 A 
HETATM    7  C   UNL     1      42.354 -16.689   1.695  1.00  0.00     0.013 A 
HETATM    8  C   UNL     1      41.769 -15.414   1.646  1.00  0.00     0.015 A 
HETATM    9  C   UNL     1      41.406 -14.765   2.843  1.00  0.00     0.001 A 
HETATM   10  C   UNL     1      40.805 -13.496   3.155  1.00  0.00     0.015 A 
ENDROOT
BRANCH   1  11
HETATM   11  C   UNL     1      40.208 -12.401   5.443  1.00  0.00     0.269 C 
HETATM   12  N   UNL     1      40.982 -11.276   5.544  1.00  0.00    -0.351 N 
HETATM   13  H   UNL     1      41.901 -11.298   5.104  1.00  0.00     0.163 HD
HETATM   14  O   UNL     1      39.179 -12.565   6.095  1.00  0.00    -0.266 OA
BRANCH  12  15
HETATM   15  C   UNL     1      40.678 -10.199   6.448  1.00  0.00     0.161 C 
BRANCH  15  16
HETATM   16  C   UNL     1      41.821  -9.896   7.381  1.00  0.00    -0.038 A 
HETATM   17  C   UNL     1      41.713  -8.862   8.320  1.00  0.00     0.009 A 
HETATM   18  C   UNL     1      42.770  -8.576   9.181  1.00  0.00     0.003 A 
HETATM   19  C   UNL     1      43.948  -9.323   9.121  1.00  0.00     0.037 A 
HETATM   20  C   UNL     1      44.069 -10.367   8.203  1.00  0.00     0.068 A 
HETATM   21  C   UNL     1      43.002 -10.651   7.342  1.00  0.00     0.045 A 
BRANCH  20  22
HETATM   22  O   UNL     1      45.162 -11.175   8.046  1.00  0.00    -0.356 OA
HETATM   23  C   UNL     1      45.342 -11.768   6.767  1.00  0.00     0.210 C 
ENDBRANCH  20  22
ENDBRANCH  15  16
ENDBRANCH  12  15
ENDBRANCH   1  11
BRANCH  10  24
HETATM   24  C   UNL     1      40.325 -12.494   2.144  1.00  0.00     0.313 C 
BRANCH  24  25
HETATM   25  N   UNL     1      41.456 -11.949   1.364  1.00  0.00     0.084 N 
HETATM   26  C   UNL     1      41.065 -11.698  -0.031  1.00  0.00     0.309 C 
HETATM   27  C   UNL     1      41.900 -10.689   1.974  1.00  0.00     0.309 C 
ENDBRANCH  24  25
ENDBRANCH  10  24
BRANCH   6  28
HETATM   28  C   UNL     1      43.194 -18.657   2.926  1.00  0.00     0.010 A 
HETATM   29  C   UNL     1      43.110 -19.725   2.002  1.00  0.00     0.152 A 
HETATM   30  N   UNL     1      43.815 -20.795   2.379  1.00  0.00    -0.187 NA
HETATM   31  N   UNL     1      44.354 -20.417   3.549  1.00  0.00    -0.289 N 
HETATM   32  H   UNL     1      44.942 -21.079   4.043  1.00  0.00     0.188 HD
HETATM   33  C   UNL     1      44.013 -19.148   3.921  1.00  0.00     0.123 A 
ENDBRANCH   6  28
TORSDOF 7
ENDMDL
MODEL 6
REMARK VINA RESULT:      -7.6      2.714      3.876
REMARK  7 active torsions:
REMARK  status: ('A' for Active; 'I' for Inactive)
REMARK    1  A    between atoms: O_2  and  C_3 
REMARK    2  A    between atoms: C_7  and  C_8 
REMARK    3  A    between atoms: C_8  and  N_9 
REMARK       I    between atoms: N_9  and  C_10 
REMARK    4  A    between atoms: C_10  and  C_12 
REMARK    5  A    between atoms: C_17  and  C_26 
REMARK    6  A    between atoms: C_21  and  C_22 
REMARK    7  A    between atoms: C_22  and  N_23 
ROOT
HETATM    1  C   UNL     1      42.779 -13.282   4.286  1.00  0.00     0.110 A 
HETATM    2  N   UNL     1      43.109 -14.432   4.968  1.00  0.00    -0.351 N 
HETATM    3  H   UNL     1      43.310 -14.449   5.959  1.00  0.00     0.166 HD
HETATM    4  C   UNL     1      43.145 -15.516   4.131  1.00  0.00     0.044 A 
HETATM    5  C   UNL     1      43.459 -16.856   4.402  1.00  0.00     0.042 A 
HETATM    6  C   UNL     1      43.406 -17.781   3.347  1.00  0.00    -0.021 A 
HETATM    7  C   UNL     1      43.044 -17.346   2.067  1.00  0.00     0.013 A 
HETATM    8  C   UNL     1      42.731 -16.001   1.815  1.00  0.00     0.015 A 
HETATM    9  C   UNL     1      42.787 -15.063   2.865  1.00  0.00     0.001 A 
HETATM   10  C   UNL     1      42.538 -13.649   2.962  1.00  0.00     0.015 A 
ENDROOT
BRANCH   1  11
HETATM   11  C   UNL     1      42.707 -12.016   4.986  1.00  0.00     0.269 C 
HETATM   12  N   UNL     1      41.462 -11.666   5.432  1.00  0.00    -0.351 N 
HETATM   13  H   UNL     1      40.675 -12.235   5.123  1.00  0.00     0.163 HD
HETATM   14  O   UNL     1      43.695 -11.298   5.125  1.00  0.00    -0.266 OA
BRANCH  12  15
HETATM   15  C   UNL     1      41.190 -10.408   6.076  1.00  0.00     0.161 C 
BRANCH  15  16
HETATM   16  C   UNL     1      40.037  -9.677   5.438  1.00  0.00    -0.038 A 
HETATM   17  C   UNL     1      39.684  -9.936   4.107  1.00  0.00     0.009 A 
HETATM   18  C   UNL     1      38.621  -9.259   3.513  1.00  0.00     0.003 A 
HETATM   19  C   UNL     1      37.891  -8.319   4.242  1.00  0.00     0.037 A 
HETATM   20  C   UNL     1      38.217  -8.058   5.573  1.00  0.00     0.068 A 
HETATM   21  C   UNL     1      39.284  -8.744   6.165  1.00  0.00     0.045 A 
BRANCH  20  22
HETATM   22  O   UNL     1      37.581  -7.168   6.395  1.00  0.00    -0.356 OA
HETATM   23  C   UNL     1      38.341  -6.636   7.472  1.00  0.00     0.210 C 
ENDBRANCH  20  22
ENDBRANCH  15  16
ENDBRANCH  12  15
ENDBRANCH   1  11
BRANCH  10  24
HETATM   24  C   UNL     1      42.052 -12.777   1.839  1.00  0.00     0.313 C 
BRANCH  24  25
HETATM   25  N   UNL     1      40.722 -13.218   1.368  1.00  0.00     0.084 N 
HETATM   26  C   UNL     1      39.735 -13.179   2.457  1.00  0.00     0.309 C 
HETATM   27  C   UNL     1      40.277 -12.334   0.283  1.00  0.00     0.309 C 
ENDBRANCH  24  25
ENDBRANCH  10  24
BRANCH   6  28
HETATM   28  C   UNL     1      43.730 -19.181   3.569  1.00  0.00     0.010 A 
HETATM   29  C   UNL     1      43.702 -20.288   2.689  1.00  0.00     0.152 A 
HETATM   30  N   UNL     1      44.059 -21.432   3.280  1.00  0.00    -0.187 NA
HETATM   31  N   UNL     1      44.316 -21.062   4.544  1.00  0.00    -0.289 N 
HETATM   32  H   UNL     1      44.609 -21.775   5.203  1.00  0.00     0.188 HD
HETATM   33  C   UNL     1      44.135 -19.728   4.769  1.00  0.00     0.123 A 
ENDBRANCH   6  28
TORSDOF 7
ENDMDL
MODEL 7
REMARK VINA RESULT:      -7.6      1.577      2.179
REMARK  7 active torsions:
REMARK  status: ('A' for Active; 'I' for Inactive)
REMARK    1  A    between atoms: O_2  and  C_3 
REMARK    2  A    between atoms: C_7  and  C_8 
REMARK    3  A    between atoms: C_8  and  N_9 
REMARK       I    between atoms: N_9  and  C_10 
REMARK    4  A    between atoms: C_10  and  C_12 
REMARK    5  A    between atoms: C_17  and  C_26 
REMARK    6  A    between atoms: C_21  and  C_22 
REMARK    7  A    between atoms: C_22  and  N_23 
ROOT
HETATM    1  C   UNL     1      42.432 -11.803   5.575  1.00  0.00     0.110 A 
HETATM    2  N   UNL     1      42.606 -13.059   6.112  1.00  0.00    -0.351 N 
HETATM    3  H   UNL     1      42.561 -13.246   7.105  1.00  0.00     0.166 HD
HETATM    4  C   UNL     1      42.861 -13.988   5.139  1.00  0.00     0.044 A 
HETATM    5  C   UNL     1      43.121 -15.362   5.249  1.00  0.00     0.042 A 
HETATM    6  C   UNL     1      43.341 -16.096   4.072  1.00  0.00    -0.021 A 
HETATM    7  C   UNL     1      43.292 -15.445   2.835  1.00  0.00     0.013 A 
HETATM    8  C   UNL     1      43.027 -14.069   2.744  1.00  0.00     0.015 A 
HETATM    9  C   UNL     1      42.812 -13.321   3.919  1.00  0.00     0.001 A 
HETATM   10  C   UNL     1      42.525 -11.938   4.189  1.00  0.00     0.015 A 
ENDROOT
BRANCH   1  11
HETATM   11  C   UNL     1      42.172 -10.670   6.438  1.00  0.00     0.269 C 
HETATM   12  N   UNL     1      43.281 -10.099   7.002  1.00  0.00    -0.351 N 
HETATM   13  H   UNL     1      44.169 -10.588   6.891  1.00  0.00     0.163 HD
HETATM   14  O   UNL     1      41.029 -10.285   6.673  1.00  0.00    -0.266 OA
BRANCH  12  15
HETATM   15  C   UNL     1      43.205  -9.017   7.948  1.00  0.00     0.161 C 
BRANCH  15  16
HETATM   16  C   UNL     1      43.061  -9.507   9.365  1.00  0.00    -0.038 A 
HETATM   17  C   UNL     1      44.126 -10.157  10.001  1.00  0.00     0.009 A 
HETATM   18  C   UNL     1      43.994 -10.616  11.311  1.00  0.00     0.003 A 
HETATM   19  C   UNL     1      42.799 -10.424  12.006  1.00  0.00     0.037 A 
HETATM   20  C   UNL     1      41.732  -9.764  11.395  1.00  0.00     0.068 A 
HETATM   21  C   UNL     1      41.872  -9.304  10.080  1.00  0.00     0.045 A 
BRANCH  20  22
HETATM   22  O   UNL     1      40.515  -9.509  11.966  1.00  0.00    -0.356 OA
HETATM   23  C   UNL     1      40.269 -10.094  13.238  1.00  0.00     0.210 C 
ENDBRANCH  20  22
ENDBRANCH  15  16
ENDBRANCH  12  15
ENDBRANCH   1  11
BRANCH  10  24
HETATM   24  C   UNL     1      42.310 -10.878   3.145  1.00  0.00     0.313 C 
BRANCH  24  25
HETATM   25  N   UNL     1      40.916 -10.389   3.170  1.00  0.00     0.084 N 
HETATM   26  C   UNL     1      40.731  -9.268   2.238  1.00  0.00     0.309 C 
HETATM   27  C   UNL     1      40.014 -11.485   2.790  1.00  0.00     0.309 C 
ENDBRANCH  24  25
ENDBRANCH  10  24
BRANCH   6  28
HETATM   28  C   UNL     1      43.625 -17.522   4.128  1.00  0.00     0.010 A 
HETATM   29  C   UNL     1      43.680 -18.494   3.101  1.00  0.00     0.152 A 
HETATM   30  N   UNL     1      43.959 -19.718   3.560  1.00  0.00    -0.187 NA
HETATM   31  N   UNL     1      44.082 -19.534   4.883  1.00  0.00    -0.289 N 
HETATM   32  H   UNL     1      44.294 -20.339   5.463  1.00  0.00     0.188 HD
HETATM   33  C   UNL     1      43.890 -18.240   5.275  1.00  0.00     0.123 A 
ENDBRANCH   6  28
TORSDOF 7
ENDMDL
MODEL 8
REMARK VINA RESULT:      -7.5      2.744      4.675
REMARK  7 active torsions:
REMARK  status: ('A' for Active; 'I' for Inactive)
REMARK    1  A    between atoms: O_2  and  C_3 
REMARK    2  A    between atoms: C_7  and  C_8 
REMARK    3  A    between atoms: C_8  and  N_9 
REMARK       I    between atoms: N_9  and  C_10 
REMARK    4  A    between atoms: C_10  and  C_12 
REMARK    5  A    between atoms: C_17  and  C_26 
REMARK    6  A    between atoms: C_21  and  C_22 
REMARK    7  A    between atoms: C_22  and  N_23 
ROOT
HETATM    1  C   UNL     1      43.446 -10.817   7.641  1.00  0.00     0.110 A 
HETATM    2  N   UNL     1      44.054 -12.052   7.669  1.00  0.00    -0.351 N 
HETATM    3  H   UNL     1      44.830 -12.272   8.279  1.00  0.00     0.166 HD
HETATM    4  C   UNL     1      43.486 -12.910   6.764  1.00  0.00     0.044 A 
HETATM    5  C   UNL     1      43.812 -14.238   6.452  1.00  0.00     0.042 A 
HETATM    6  C   UNL     1      43.049 -14.901   5.477  1.00  0.00    -0.021 A 
HETATM    7  C   UNL     1      41.994 -14.227   4.853  1.00  0.00     0.013 A 
HETATM    8  C   UNL     1      41.680 -12.898   5.181  1.00  0.00     0.015 A 
HETATM    9  C   UNL     1      42.444 -12.220   6.152  1.00  0.00     0.001 A 
HETATM   10  C   UNL     1      42.404 -10.898   6.716  1.00  0.00     0.015 A 
ENDROOT
BRANCH   1  11
HETATM   11  C   UNL     1      43.911  -9.756   8.509  1.00  0.00     0.269 C 
HETATM   12  N   UNL     1      44.051 -10.098   9.827  1.00  0.00    -0.351 N 
HETATM   13  H   UNL     1      43.689 -11.006  10.117  1.00  0.00     0.163 HD
HETATM   14  O   UNL     1      44.123  -8.621   8.087  1.00  0.00    -0.266 OA
BRANCH  12  15
HETATM   15  C   UNL     1      44.425  -9.150  10.843  1.00  0.00     0.161 C 
BRANCH  15  16
HETATM   16  C   UNL     1      43.397  -9.054  11.941  1.00  0.00    -0.038 A 
HETATM   17  C   UNL     1      42.383 -10.014  12.047  1.00  0.00     0.009 A 
HETATM   18  C   UNL     1      41.428  -9.926  13.058  1.00  0.00     0.003 A 
HETATM   19  C   UNL     1      41.477  -8.880  13.982  1.00  0.00     0.037 A 
HETATM   20  C   UNL     1      42.489  -7.922  13.902  1.00  0.00     0.068 A 
HETATM   21  C   UNL     1      43.446  -8.019  12.885  1.00  0.00     0.045 A 
BRANCH  20  22
HETATM   22  O   UNL     1      42.651  -6.856  14.744  1.00  0.00    -0.356 OA
HETATM   23  C   UNL     1      42.099  -6.980  16.048  1.00  0.00     0.210 C 
ENDBRANCH  20  22
ENDBRANCH  15  16
ENDBRANCH  12  15
ENDBRANCH   1  11
BRANCH  10  24
HETATM   24  C   UNL     1      41.379  -9.848   6.391  1.00  0.00     0.313 C 
BRANCH  24  25
HETATM   25  N   UNL     1      40.195  -9.980   7.265  1.00  0.00     0.084 N 
HETATM   26  C   UNL     1      39.921  -8.724   7.978  1.00  0.00     0.309 C 
HETATM   27  C   UNL     1      39.027 -10.333   6.446  1.00  0.00     0.309 C 
ENDBRANCH  24  25
ENDBRANCH  10  24
BRANCH   6  28
HETATM   28  C   UNL     1      43.349 -16.275   5.107  1.00  0.00     0.010 A 
HETATM   29  C   UNL     1      43.626 -17.408   5.907  1.00  0.00     0.152 A 
HETATM   30  N   UNL     1      43.872 -18.506   5.185  1.00  0.00    -0.187 NA
HETATM   31  N   UNL     1      43.754 -18.079   3.918  1.00  0.00    -0.289 N 
HETATM   32  H   UNL     1      43.904 -18.747   3.170  1.00  0.00     0.188 HD
HETATM   33  C   UNL     1      43.443 -16.753   3.817  1.00  0.00     0.123 A 
ENDBRANCH   6  28
TORSDOF 7
ENDMDL
MODEL 9
REMARK VINA RESULT:      -7.5      3.021      6.747
REMARK  7 active torsions:
REMARK  status: ('A' for Active; 'I' for Inactive)
REMARK    1  A    between atoms: O_2  and  C_3 
REMARK    2  A    between atoms: C_7  and  C_8 
REMARK    3  A    between atoms: C_8  and  N_9 
REMARK       I    between atoms: N_9  and  C_10 
REMARK    4  A    between atoms: C_10  and  C_12 
REMARK    5  A    between atoms: C_17  and  C_26 
REMARK    6  A    between atoms: C_21  and  C_22 
REMARK    7  A    between atoms: C_22  and  N_23 
ROOT
HETATM    1  C   UNL     1      40.986 -13.796   3.289  1.00  0.00     0.110 A 
HETATM    2  N   UNL     1      41.056 -15.006   2.635  1.00  0.00    -0.351 N 
HETATM    3  H   UNL     1      40.510 -15.222   1.812  1.00  0.00     0.166 HD
HETATM    4  C   UNL     1      41.932 -15.859   3.254  1.00  0.00     0.044 A 
HETATM    5  C   UNL     1      42.279 -17.181   2.939  1.00  0.00     0.042 A 
HETATM    6  C   UNL     1      43.228 -17.831   3.744  1.00  0.00    -0.021 A 
HETATM    7  C   UNL     1      43.797 -17.150   4.826  1.00  0.00     0.013 A 
HETATM    8  C   UNL     1      43.439 -15.826   5.124  1.00  0.00     0.015 A 
HETATM    9  C   UNL     1      42.482 -15.165   4.327  1.00  0.00     0.001 A 
HETATM   10  C   UNL     1      41.897 -13.851   4.344  1.00  0.00     0.015 A 
ENDROOT
BRANCH   1  11
HETATM   11  C   UNL     1      40.099 -12.758   2.807  1.00  0.00     0.269 C 
HETATM   12  N   UNL     1      40.173 -12.504   1.464  1.00  0.00    -0.351 N 
HETATM   13  H   UNL     1      40.927 -12.949   0.943  1.00  0.00     0.163 HD
HETATM   14  O   UNL     1      39.366 -12.129   3.568  1.00  0.00    -0.266 OA
BRANCH  12  15
HETATM   15  C   UNL     1      39.425 -11.452   0.828  1.00  0.00     0.161 C 
BRANCH  15  16
HETATM   16  C   UNL     1      39.928 -11.153  -0.561  1.00  0.00    -0.038 A 
HETATM   17  C   UNL     1      39.671 -12.040  -1.613  1.00  0.00     0.009 A 
HETATM   18  C   UNL     1      40.139 -11.768  -2.897  1.00  0.00     0.003 A 
HETATM   19  C   UNL     1      40.863 -10.602  -3.149  1.00  0.00     0.037 A 
HETATM   20  C   UNL     1      41.116  -9.697  -2.117  1.00  0.00     0.068 A 
HETATM   21  C   UNL     1      40.641  -9.976  -0.830  1.00  0.00     0.045 A 
BRANCH  20  22
HETATM   22  O   UNL     1      41.805  -8.521  -2.232  1.00  0.00    -0.356 OA
HETATM   23  C   UNL     1      41.977  -7.761  -1.043  1.00  0.00     0.210 C 
ENDBRANCH  20  22
ENDBRANCH  15  16
ENDBRANCH  12  15
ENDBRANCH   1  11
BRANCH  10  24
HETATM   24  C   UNL     1      42.269 -12.750   5.297  1.00  0.00     0.313 C 
BRANCH  24  25
HETATM   25  N   UNL     1      43.072 -11.713   4.616  1.00  0.00     0.084 N 
HETATM   26  C   UNL     1      42.371 -10.421   4.609  1.00  0.00     0.309 C 
HETATM   27  C   UNL     1      44.356 -11.561   5.314  1.00  0.00     0.309 C 
ENDBRANCH  24  25
ENDBRANCH  10  24
BRANCH   6  28
HETATM   28  C   UNL     1      43.619 -19.205   3.469  1.00  0.00     0.010 A 
HETATM   29  C   UNL     1      43.630 -19.938   2.259  1.00  0.00     0.152 A 
HETATM   30  N   UNL     1      44.046 -21.198   2.419  1.00  0.00    -0.187 NA
HETATM   31  N   UNL     1      44.303 -21.277   3.734  1.00  0.00    -0.289 N 
HETATM   32  H   UNL     1      44.636 -22.159   4.107  1.00  0.00     0.188 HD
HETATM   33  C   UNL     1      44.063 -20.113   4.407  1.00  0.00     0.123 A 
ENDBRANCH   6  28
TORSDOF 7
ENDMDL
MODEL 10
REMARK VINA RESULT:      -7.3     16.384     19.315
REMARK  7 active torsions:
REMARK  status: ('A' for Active; 'I' for Inactive)
REMARK    1  A    between atoms: O_2  and  C_3 
REMARK    2  A    between atoms: C_7  and  C_8 
REMARK    3  A    between atoms: C_8  and  N_9 
REMARK       I    between atoms: N_9  and  C_10 
REMARK    4  A    between atoms: C_10  and  C_12 
REMARK    5  A    between atoms: C_17  and  C_26 
REMARK    6  A    between atoms: C_21  and  C_22 
REMARK    7  A    between atoms: C_22  and  N_23 
ROOT
HETATM    1  C   UNL     1      48.229 -29.471   2.776  1.00  0.00     0.110 A 
HETATM    2  N   UNL     1      49.567 -29.415   3.101  1.00  0.00    -0.351 N 
HETATM    3  H   UNL     1      50.214 -28.770   2.669  1.00  0.00     0.166 HD
HETATM    4  C   UNL     1      49.889 -30.347   4.052  1.00  0.00     0.044 A 
HETATM    5  C   UNL     1      51.127 -30.646   4.641  1.00  0.00     0.042 A 
HETATM    6  C   UNL     1      51.177 -31.656   5.615  1.00  0.00    -0.021 A 
HETATM    7  C   UNL     1      50.003 -32.329   5.970  1.00  0.00     0.013 A 
HETATM    8  C   UNL     1      48.772 -32.014   5.372  1.00  0.00     0.015 A 
HETATM    9  C   UNL     1      48.711 -31.007   4.389  1.00  0.00     0.001 A 
HETATM   10  C   UNL     1      47.653 -30.444   3.593  1.00  0.00     0.015 A 
ENDROOT
BRANCH   1  11
HETATM   11  C   UNL     1      47.686 -28.580   1.772  1.00  0.00     0.269 C 
HETATM   12  N   UNL     1      48.180 -28.756   0.507  1.00  0.00    -0.351 N 
HETATM   13  H   UNL     1      48.975 -29.383   0.397  1.00  0.00     0.163 HD
HETATM   14  O   UNL     1      46.871 -27.706   2.056  1.00  0.00    -0.266 OA
BRANCH  12  15
HETATM   15  C   UNL     1      47.814 -27.909  -0.597  1.00  0.00     0.161 C 
BRANCH  15  16
HETATM   16  C   UNL     1      46.710 -28.504  -1.432  1.00  0.00    -0.038 A 
HETATM   17  C   UNL     1      45.385 -28.085  -1.256  1.00  0.00     0.009 A 
HETATM   18  C   UNL     1      44.362 -28.637  -2.024  1.00  0.00     0.003 A 
HETATM   19  C   UNL     1      44.649 -29.610  -2.983  1.00  0.00     0.037 A 
HETATM   20  C   UNL     1      45.964 -30.029  -3.184  1.00  0.00     0.068 A 
HETATM   21  C   UNL     1      46.988 -29.469  -2.411  1.00  0.00     0.045 A 
BRANCH  20  22
HETATM   22  O   UNL     1      46.378 -30.967  -4.091  1.00  0.00    -0.356 OA
HETATM   23  C   UNL     1      47.315 -31.933  -3.631  1.00  0.00     0.210 C 
ENDBRANCH  20  22
ENDBRANCH  15  16
ENDBRANCH  12  15
ENDBRANCH   1  11
BRANCH  10  24
HETATM   24  C   UNL     1      46.200 -30.817   3.696  1.00  0.00     0.313 C 
BRANCH  24  25
HETATM   25  N   UNL     1      45.771 -31.594   2.515  1.00  0.00     0.084 N 
HETATM   26  C   UNL     1      45.240 -32.906   2.909  1.00  0.00     0.309 C 
HETATM   27  C   UNL     1      44.728 -30.847   1.799  1.00  0.00     0.309 C 
ENDBRANCH  24  25
ENDBRANCH  10  24
BRANCH   6  28
HETATM   28  C   UNL     1      52.435 -32.013   6.250  1.00  0.00     0.010 A 
HETATM   29  C   UNL     1      53.218 -31.322   7.204  1.00  0.00     0.152 A 
HETATM   30  N   UNL     1      54.333 -31.978   7.536  1.00  0.00    -0.187 NA
HETATM   31  N   UNL     1      54.270 -33.095   6.794  1.00  0.00    -0.289 N 
HETATM   32  H   UNL     1      55.025 -33.767   6.871  1.00  0.00     0.188 HD
HETATM   33  C   UNL     1      53.156 -33.164   6.007  1.00  0.00     0.123 A 
ENDBRANCH   6  28
TORSDOF 7
ENDMDL
