MODEL 1
REMARK VINA RESULT:      -9.1      0.000      0.000
REMARK  3 active torsions:
REMARK  status: ('A' for Active; 'I' for Inactive)
REMARK    1  A    between atoms: C_3  and  C_4 
REMARK    2  A    between atoms: C_4  and  N_5 
REMARK       I    between atoms: N_5  and  C_6 
REMARK    3  A    between atoms: C_6  and  C_7 
ROOT
HETATM    1  C   UNL     1      43.265 -15.024   5.756  1.00  0.00     0.155 A 
HETATM    2  N   UNL     1      43.413 -15.559   6.992  1.00  0.00    -0.168 NA
HETATM    3  N   UNL     1      43.588 -16.880   6.759  1.00  0.00    -0.276 N 
HETATM    4  H   UNL     1      43.731 -17.495   7.554  1.00  0.00     0.189 HD
HETATM    5  C   UNL     1      43.544 -17.201   5.442  1.00  0.00     0.074 A 
HETATM    6  C   UNL     1      43.328 -16.031   4.766  1.00  0.00     0.031 A 
HETATM    7  C   UNL     1      43.221 -15.991   3.291  1.00  0.00     0.219 A 
HETATM    8  O   UNL     1      43.291 -17.283   2.623  1.00  0.00    -0.346 OA
HETATM    9  C   UNL     1      43.545 -18.423   3.357  1.00  0.00     0.081 A 
HETATM   10  C   UNL     1      43.681 -18.462   4.759  1.00  0.00     0.026 A 
HETATM   11  C   UNL     1      43.661 -19.600   2.618  1.00  0.00     0.038 A 
HETATM   12  C   UNL     1      43.916 -20.810   3.265  1.00  0.00     0.003 A 
HETATM   13  C   UNL     1      44.054 -20.847   4.653  1.00  0.00     0.001 A 
HETATM   14  C   UNL     1      43.936 -19.674   5.405  1.00  0.00     0.016 A 
ENDROOT
BRANCH   1  15
HETATM   15  C   UNL     1      43.069 -13.582   5.544  1.00  0.00     0.272 C 
HETATM   16  N   UNL     1      43.019 -12.866   6.715  1.00  0.00    -0.351 N 
HETATM   17  H   UNL     1      43.099 -13.407   7.572  1.00  0.00     0.163 HD
HETATM   18  O   UNL     1      42.959 -13.087   4.427  1.00  0.00    -0.266 OA
BRANCH  16  19
HETATM   19  C   UNL     1      42.812 -11.440   6.763  1.00  0.00     0.163 C 
BRANCH  19  20
HETATM   20  C   UNL     1      43.976 -10.647   7.318  1.00  0.00    -0.019 A 
HETATM   21  C   UNL     1      45.308 -11.083   7.194  1.00  0.00     0.010 A 
HETATM   22  C   UNL     1      46.365 -10.337   7.722  1.00  0.00     0.001 A 
HETATM   23  C   UNL     1      46.115  -9.139   8.383  1.00  0.00     0.002 A 
HETATM   24  C   UNL     1      44.805  -8.684   8.514  1.00  0.00     0.024 A 
HETATM   25  C   UNL     1      43.745  -9.429   7.986  1.00  0.00     0.042 A 
HETATM   26 CL   UNL     1      42.150  -8.788   8.182  1.00  0.00    -0.084 Cl
ENDBRANCH  19  20
ENDBRANCH  16  19
ENDBRANCH   1  15
TORSDOF 3
ENDMDL
MODEL 2
REMARK VINA RESULT:      -9.0      2.061      2.515
REMARK  3 active torsions:
REMARK  status: ('A' for Active; 'I' for Inactive)
REMARK    1  A    between atoms: C_3  and  C_4 
REMARK    2  A    between atoms: C_4  and  N_5 
REMARK       I    between atoms: N_5  and  C_6 
REMARK    3  A    between atoms: C_6  and  C_7 
ROOT
HETATM    1  C   UNL     1      42.676 -14.829   3.329  1.00  0.00     0.155 A 
HETATM    2  N   UNL     1      42.545 -15.015   1.994  1.00  0.00    -0.168 NA
HETATM    3  N   UNL     1      42.804 -16.330   1.819  1.00  0.00    -0.276 N 
HETATM    4  H   UNL     1      42.757 -16.710   0.879  1.00  0.00     0.189 HD
HETATM    5  C   UNL     1      43.105 -16.975   2.974  1.00  0.00     0.074 A 
HETATM    6  C   UNL     1      43.040 -16.036   3.968  1.00  0.00     0.031 A 
HETATM    7  C   UNL     1      43.310 -16.378   5.382  1.00  0.00     0.219 A 
HETATM    8  O   UNL     1      43.714 -17.756   5.626  1.00  0.00    -0.346 OA
HETATM    9  C   UNL     1      43.727 -18.663   4.587  1.00  0.00     0.081 A 
HETATM   10  C   UNL     1      43.437 -18.350   3.244  1.00  0.00     0.026 A 
HETATM   11  C   UNL     1      44.061 -19.971   4.936  1.00  0.00     0.038 A 
HETATM   12  C   UNL     1      44.104 -20.966   3.959  1.00  0.00     0.003 A 
HETATM   13  C   UNL     1      43.814 -20.656   2.629  1.00  0.00     0.001 A 
HETATM   14  C   UNL     1      43.481 -19.347   2.267  1.00  0.00     0.016 A 
ENDROOT
BRANCH   1  15
HETATM   15  C   UNL     1      42.454 -13.521   3.965  1.00  0.00     0.272 C 
HETATM   16  N   UNL     1      43.405 -12.588   3.626  1.00  0.00    -0.351 N 
HETATM   17  H   UNL     1      44.144 -12.910   3.008  1.00  0.00     0.163 HD
HETATM   18  O   UNL     1      41.514 -13.305   4.722  1.00  0.00    -0.266 OA
BRANCH  16  19
HETATM   19  C   UNL     1      43.411 -11.242   4.142  1.00  0.00     0.163 C 
BRANCH  19  20
HETATM   20  C   UNL     1      43.975 -11.099   5.538  1.00  0.00    -0.019 A 
HETATM   21  C   UNL     1      45.331 -11.339   5.828  1.00  0.00     0.010 A 
HETATM   22  C   UNL     1      45.827 -11.208   7.128  1.00  0.00     0.001 A 
HETATM   23  C   UNL     1      44.980 -10.832   8.166  1.00  0.00     0.002 A 
HETATM   24  C   UNL     1      43.635 -10.585   7.904  1.00  0.00     0.024 A 
HETATM   25  C   UNL     1      43.136 -10.715   6.603  1.00  0.00     0.042 A 
HETATM   26 CL   UNL     1      41.456 -10.379   6.360  1.00  0.00    -0.084 Cl
ENDBRANCH  19  20
ENDBRANCH  16  19
ENDBRANCH   1  15
TORSDOF 3
ENDMDL
MODEL 3
REMARK VINA RESULT:      -9.0      1.552      1.855
REMARK  3 active torsions:
REMARK  status: ('A' for Active; 'I' for Inactive)
REMARK    1  A    between atoms: C_3  and  C_4 
REMARK    2  A    between atoms: C_4  and  N_5 
REMARK       I    between atoms: N_5  and  C_6 
REMARK    3  A    between atoms: C_6  and  C_7 
ROOT
HETATM    1  C   UNL     1      42.817 -14.832   6.537  1.00  0.00     0.155 A 
HETATM    2  N   UNL     1      42.769 -15.406   7.764  1.00  0.00    -0.168 NA
HETATM    3  N   UNL     1      43.021 -16.712   7.526  1.00  0.00    -0.276 N 
HETATM    4  H   UNL     1      43.044 -17.351   8.314  1.00  0.00     0.189 HD
HETATM    5  C   UNL     1      43.211 -16.990   6.211  1.00  0.00     0.074 A 
HETATM    6  C   UNL     1      43.078 -15.803   5.543  1.00  0.00     0.031 A 
HETATM    7  C   UNL     1      43.222 -15.715   4.073  1.00  0.00     0.219 A 
HETATM    8  O   UNL     1      43.444 -16.982   3.390  1.00  0.00    -0.346 OA
HETATM    9  C   UNL     1      43.604 -18.139   4.122  1.00  0.00     0.081 A 
HETATM   10  C   UNL     1      43.500 -18.223   5.525  1.00  0.00     0.026 A 
HETATM   11  C   UNL     1      43.879 -19.287   3.380  1.00  0.00     0.038 A 
HETATM   12  C   UNL     1      44.056 -20.511   4.025  1.00  0.00     0.003 A 
HETATM   13  C   UNL     1      43.957 -20.592   5.414  1.00  0.00     0.001 A 
HETATM   14  C   UNL     1      43.678 -19.449   6.169  1.00  0.00     0.016 A 
ENDROOT
BRANCH   1  15
HETATM   15  C   UNL     1      42.616 -13.389   6.337  1.00  0.00     0.272 C 
HETATM   16  N   UNL     1      43.532 -12.618   7.012  1.00  0.00    -0.351 N 
HETATM   17  H   UNL     1      44.210 -13.123   7.576  1.00  0.00     0.163 HD
HETATM   18  O   UNL     1      41.715 -12.937   5.638  1.00  0.00    -0.266 OA
BRANCH  16  19
HETATM   19  C   UNL     1      43.523 -11.177   6.987  1.00  0.00     0.163 C 
BRANCH  19  20
HETATM   20  C   UNL     1      43.860 -10.516   8.307  1.00  0.00    -0.019 A 
HETATM   21  C   UNL     1      42.867 -10.123   9.224  1.00  0.00     0.010 A 
HETATM   22  C   UNL     1      43.203  -9.507  10.432  1.00  0.00     0.001 A 
HETATM   23  C   UNL     1      44.536  -9.273  10.753  1.00  0.00     0.002 A 
HETATM   24  C   UNL     1      45.537  -9.657   9.864  1.00  0.00     0.024 A 
HETATM   25  C   UNL     1      45.204 -10.275   8.653  1.00  0.00     0.042 A 
HETATM   26 CL   UNL     1      46.506 -10.731   7.610  1.00  0.00    -0.084 Cl
ENDBRANCH  19  20
ENDBRANCH  16  19
ENDBRANCH   1  15
TORSDOF 3
ENDMDL
MODEL 4
REMARK VINA RESULT:      -8.7      1.940      2.502
REMARK  3 active torsions:
REMARK  status: ('A' for Active; 'I' for Inactive)
REMARK    1  A    between atoms: C_3  and  C_4 
REMARK    2  A    between atoms: C_4  and  N_5 
REMARK       I    between atoms: N_5  and  C_6 
REMARK    3  A    between atoms: C_6  and  C_7 
ROOT
HETATM    1  C   UNL     1      41.247 -13.686   4.751  1.00  0.00     0.155 A 
HETATM    2  N   UNL     1      40.558 -13.745   3.587  1.00  0.00    -0.168 NA
HETATM    3  N   UNL     1      40.985 -14.891   3.010  1.00  0.00    -0.276 N 
HETATM    4  H   UNL     1      40.592 -15.155   2.112  1.00  0.00     0.189 HD
HETATM    5  C   UNL     1      41.917 -15.546   3.748  1.00  0.00     0.074 A 
HETATM    6  C   UNL     1      42.117 -14.793   4.873  1.00  0.00     0.031 A 
HETATM    7  C   UNL     1      43.077 -15.200   5.922  1.00  0.00     0.219 A 
HETATM    8  O   UNL     1      43.836 -16.411   5.640  1.00  0.00    -0.346 OA
HETATM    9  C   UNL     1      43.564 -17.144   4.505  1.00  0.00     0.081 A 
HETATM   10  C   UNL     1      42.626 -16.778   3.518  1.00  0.00     0.026 A 
HETATM   11  C   UNL     1      44.296 -18.321   4.359  1.00  0.00     0.038 A 
HETATM   12  C   UNL     1      44.097 -19.136   3.244  1.00  0.00     0.003 A 
HETATM   13  C   UNL     1      43.166 -18.775   2.269  1.00  0.00     0.001 A 
HETATM   14  C   UNL     1      42.429 -17.594   2.403  1.00  0.00     0.016 A 
ENDROOT
BRANCH   1  15
HETATM   15  C   UNL     1      41.067 -12.590   5.715  1.00  0.00     0.272 C 
HETATM   16  N   UNL     1      42.158 -11.759   5.798  1.00  0.00    -0.351 N 
HETATM   17  H   UNL     1      42.952 -12.007   5.215  1.00  0.00     0.163 HD
HETATM   18  O   UNL     1      40.040 -12.449   6.372  1.00  0.00    -0.266 OA
BRANCH  16  19
HETATM   19  C   UNL     1      42.225 -10.628   6.689  1.00  0.00     0.163 C 
BRANCH  19  20
HETATM   20  C   UNL     1      43.614 -10.297   7.193  1.00  0.00    -0.019 A 
HETATM   21  C   UNL     1      44.729 -11.107   6.906  1.00  0.00     0.010 A 
HETATM   22  C   UNL     1      46.000 -10.784   7.389  1.00  0.00     0.001 A 
HETATM   23  C   UNL     1      46.185  -9.646   8.167  1.00  0.00     0.002 A 
HETATM   24  C   UNL     1      45.098  -8.826   8.460  1.00  0.00     0.024 A 
HETATM   25  C   UNL     1      43.825  -9.147   7.978  1.00  0.00     0.042 A 
HETATM   26 CL   UNL     1      42.530  -8.071   8.378  1.00  0.00    -0.084 Cl
ENDBRANCH  19  20
ENDBRANCH  16  19
ENDBRANCH   1  15
TORSDOF 3
ENDMDL
MODEL 5
REMARK VINA RESULT:      -8.5      4.953      7.201
REMARK  3 active torsions:
REMARK  status: ('A' for Active; 'I' for Inactive)
REMARK    1  A    between atoms: C_3  and  C_4 
REMARK    2  A    between atoms: C_4  and  N_5 
REMARK       I    between atoms: N_5  and  C_6 
REMARK    3  A    between atoms: C_6  and  C_7 
ROOT
HETATM    1  C   UNL     1      41.590 -13.852   3.094  1.00  0.00     0.155 A 
HETATM    2  N   UNL     1      41.364 -13.665   4.416  1.00  0.00    -0.168 NA
HETATM    3  N   UNL     1      41.862 -14.780   4.995  1.00  0.00    -0.276 N 
HETATM    4  H   UNL     1      41.811 -14.863   6.006  1.00  0.00     0.189 HD
HETATM    5  C   UNL     1      42.377 -15.662   4.102  1.00  0.00     0.074 A 
HETATM    6  C   UNL     1      42.211 -15.101   2.866  1.00  0.00     0.031 A 
HETATM    7  C   UNL     1      42.660 -15.784   1.633  1.00  0.00     0.219 A 
HETATM    8  O   UNL     1      43.221 -17.115   1.824  1.00  0.00    -0.346 OA
HETATM    9  C   UNL     1      43.394 -17.611   3.098  1.00  0.00     0.081 A 
HETATM   10  C   UNL     1      42.999 -16.949   4.279  1.00  0.00     0.026 A 
HETATM   11  C   UNL     1      44.001 -18.864   3.178  1.00  0.00     0.038 A 
HETATM   12  C   UNL     1      44.221 -19.457   4.422  1.00  0.00     0.003 A 
HETATM   13  C   UNL     1      43.833 -18.799   5.590  1.00  0.00     0.001 A 
HETATM   14  C   UNL     1      43.220 -17.544   5.522  1.00  0.00     0.016 A 
ENDROOT
BRANCH   1  15
HETATM   15  C   UNL     1      41.216 -12.849   2.084  1.00  0.00     0.272 C 
HETATM   16  N   UNL     1      40.017 -13.122   1.471  1.00  0.00    -0.351 N 
HETATM   17  H   UNL     1      39.552 -13.977   1.764  1.00  0.00     0.163 HD
HETATM   18  O   UNL     1      41.918 -11.877   1.826  1.00  0.00    -0.266 OA
BRANCH  16  19
HETATM   19  C   UNL     1      39.454 -12.296   0.433  1.00  0.00     0.163 C 
BRANCH  19  20
HETATM   20  C   UNL     1      38.996 -13.047  -0.799  1.00  0.00    -0.019 A 
HETATM   21  C   UNL     1      39.571 -14.272  -1.188  1.00  0.00     0.010 A 
HETATM   22  C   UNL     1      39.136 -14.942  -2.334  1.00  0.00     0.001 A 
HETATM   23  C   UNL     1      38.117 -14.406  -3.115  1.00  0.00     0.002 A 
HETATM   24  C   UNL     1      37.530 -13.198  -2.749  1.00  0.00     0.024 A 
HETATM   25  C   UNL     1      37.963 -12.525  -1.601  1.00  0.00     0.042 A 
HETATM   26 CL   UNL     1      37.174 -11.035  -1.209  1.00  0.00    -0.084 Cl
ENDBRANCH  19  20
ENDBRANCH  16  19
ENDBRANCH   1  15
TORSDOF 3
ENDMDL
MODEL 6
REMARK VINA RESULT:      -8.4      2.803      3.586
REMARK  3 active torsions:
REMARK  status: ('A' for Active; 'I' for Inactive)
REMARK    1  A    between atoms: C_3  and  C_4 
REMARK    2  A    between atoms: C_4  and  N_5 
REMARK       I    between atoms: N_5  and  C_6 
REMARK    3  A    between atoms: C_6  and  C_7 
ROOT
HETATM    1  C   UNL     1      40.608 -12.462   5.801  1.00  0.00     0.155 A 
HETATM    2  N   UNL     1      39.766 -13.433   6.231  1.00  0.00    -0.168 NA
HETATM    3  N   UNL     1      40.098 -14.510   5.485  1.00  0.00    -0.276 N 
HETATM    4  H   UNL     1      39.596 -15.378   5.640  1.00  0.00     0.189 HD
HETATM    5  C   UNL     1      41.096 -14.261   4.600  1.00  0.00     0.074 A 
HETATM    6  C   UNL     1      41.443 -12.948   4.769  1.00  0.00     0.031 A 
HETATM    7  C   UNL     1      42.511 -12.314   3.965  1.00  0.00     0.219 A 
HETATM    8  O   UNL     1      43.111 -13.161   2.943  1.00  0.00    -0.346 OA
HETATM    9  C   UNL     1      42.743 -14.486   2.845  1.00  0.00     0.081 A 
HETATM   10  C   UNL     1      41.749 -15.104   3.632  1.00  0.00     0.026 A 
HETATM   11  C   UNL     1      43.423 -15.229   1.882  1.00  0.00     0.038 A 
HETATM   12  C   UNL     1      43.124 -16.580   1.700  1.00  0.00     0.003 A 
HETATM   13  C   UNL     1      42.143 -17.192   2.482  1.00  0.00     0.001 A 
HETATM   14  C   UNL     1      41.452 -16.456   3.449  1.00  0.00     0.016 A 
ENDROOT
BRANCH   1  15
HETATM   15  C   UNL     1      40.602 -11.108   6.373  1.00  0.00     0.272 C 
HETATM   16  N   UNL     1      41.743 -10.815   7.082  1.00  0.00    -0.351 N 
HETATM   17  H   UNL     1      42.431 -11.560   7.144  1.00  0.00     0.163 HD
HETATM   18  O   UNL     1      39.663 -10.332   6.227  1.00  0.00    -0.266 OA
BRANCH  16  19
HETATM   19  C   UNL     1      41.957  -9.557   7.752  1.00  0.00     0.163 C 
BRANCH  19  20
HETATM   20  C   UNL     1      43.160  -9.523   8.670  1.00  0.00    -0.019 A 
HETATM   21  C   UNL     1      44.478  -9.485   8.178  1.00  0.00     0.010 A 
HETATM   22  C   UNL     1      45.573  -9.462   9.046  1.00  0.00     0.001 A 
HETATM   23  C   UNL     1      45.375  -9.474  10.423  1.00  0.00     0.002 A 
HETATM   24  C   UNL     1      44.080  -9.508  10.934  1.00  0.00     0.024 A 
HETATM   25  C   UNL     1      42.982  -9.530  10.067  1.00  0.00     0.042 A 
HETATM   26 CL   UNL     1      41.406  -9.560  10.782  1.00  0.00    -0.084 Cl
ENDBRANCH  19  20
ENDBRANCH  16  19
ENDBRANCH   1  15
TORSDOF 3
ENDMDL
MODEL 7
REMARK VINA RESULT:      -8.3      2.991      8.731
REMARK  3 active torsions:
REMARK  status: ('A' for Active; 'I' for Inactive)
REMARK    1  A    between atoms: C_3  and  C_4 
REMARK    2  A    between atoms: C_4  and  N_5 
REMARK       I    between atoms: N_5  and  C_6 
REMARK    3  A    between atoms: C_6  and  C_7 
ROOT
HETATM    1  C   UNL     1      44.274 -11.293   6.487  1.00  0.00     0.155 A 
HETATM    2  N   UNL     1      45.491 -11.483   7.050  1.00  0.00    -0.168 NA
HETATM    3  N   UNL     1      45.394 -10.876   8.254  1.00  0.00    -0.276 N 
HETATM    4  H   UNL     1      46.200 -10.896   8.871  1.00  0.00     0.189 HD
HETATM    5  C   UNL     1      44.183 -10.303   8.469  1.00  0.00     0.074 A 
HETATM    6  C   UNL     1      43.438 -10.545   7.347  1.00  0.00     0.031 A 
HETATM    7  C   UNL     1      42.044 -10.065   7.218  1.00  0.00     0.219 A 
HETATM    8  O   UNL     1      41.553  -9.265   8.332  1.00  0.00    -0.346 OA
HETATM    9  C   UNL     1      42.340  -9.086   9.450  1.00  0.00     0.081 A 
HETATM   10  C   UNL     1      43.656  -9.570   9.591  1.00  0.00     0.026 A 
HETATM   11  C   UNL     1      41.754  -8.363  10.488  1.00  0.00     0.038 A 
HETATM   12  C   UNL     1      42.467  -8.125  11.663  1.00  0.00     0.003 A 
HETATM   13  C   UNL     1      43.769  -8.608  11.804  1.00  0.00     0.001 A 
HETATM   14  C   UNL     1      44.368  -9.331  10.768  1.00  0.00     0.016 A 
ENDROOT
BRANCH   1  15
HETATM   15  C   UNL     1      43.933 -11.821   5.157  1.00  0.00     0.272 C 
HETATM   16  N   UNL     1      43.212 -12.990   5.209  1.00  0.00    -0.351 N 
HETATM   17  H   UNL     1      43.023 -13.355   6.138  1.00  0.00     0.163 HD
HETATM   18  O   UNL     1      44.271 -11.264   4.118  1.00  0.00    -0.266 OA
BRANCH  16  19
HETATM   19  C   UNL     1      42.783 -13.707   4.034  1.00  0.00     0.163 C 
BRANCH  19  20
HETATM   20  C   UNL     1      43.099 -15.187   4.042  1.00  0.00    -0.019 A 
HETATM   21  C   UNL     1      43.469 -15.869   5.216  1.00  0.00     0.010 A 
HETATM   22  C   UNL     1      43.763 -17.235   5.196  1.00  0.00     0.001 A 
HETATM   23  C   UNL     1      43.693 -17.949   4.005  1.00  0.00     0.002 A 
HETATM   24  C   UNL     1      43.324 -17.298   2.830  1.00  0.00     0.024 A 
HETATM   25  C   UNL     1      43.028 -15.930   2.848  1.00  0.00     0.042 A 
HETATM   26 CL   UNL     1      42.568 -15.199   1.348  1.00  0.00    -0.084 Cl
ENDBRANCH  19  20
ENDBRANCH  16  19
ENDBRANCH   1  15
TORSDOF 3
ENDMDL
MODEL 8
REMARK VINA RESULT:      -8.3      5.241      8.187
REMARK  3 active torsions:
REMARK  status: ('A' for Active; 'I' for Inactive)
REMARK    1  A    between atoms: C_3  and  C_4 
REMARK    2  A    between atoms: C_4  and  N_5 
REMARK       I    between atoms: N_5  and  C_6 
REMARK    3  A    between atoms: C_6  and  C_7 
ROOT
HETATM    1  C   UNL     1      40.918 -12.757   2.394  1.00  0.00     0.155 A 
HETATM    2  N   UNL     1      40.357 -11.554   2.663  1.00  0.00    -0.168 NA
HETATM    3  N   UNL     1      39.510 -11.348   1.629  1.00  0.00    -0.276 N 
HETATM    4  H   UNL     1      38.960 -10.495   1.618  1.00  0.00     0.189 HD
HETATM    5  C   UNL     1      39.523 -12.355   0.719  1.00  0.00     0.074 A 
HETATM    6  C   UNL     1      40.426 -13.276   1.175  1.00  0.00     0.031 A 
HETATM    7  C   UNL     1      40.708 -14.525   0.433  1.00  0.00     0.219 A 
HETATM    8  O   UNL     1      40.014 -14.667  -0.839  1.00  0.00    -0.346 OA
HETATM    9  C   UNL     1      39.089 -13.720  -1.227  1.00  0.00     0.081 A 
HETATM   10  C   UNL     1      38.792 -12.545  -0.507  1.00  0.00     0.026 A 
HETATM   11  C   UNL     1      38.429 -13.981  -2.427  1.00  0.00     0.038 A 
HETATM   12  C   UNL     1      37.476 -13.084  -2.911  1.00  0.00     0.003 A 
HETATM   13  C   UNL     1      37.179 -11.923  -2.195  1.00  0.00     0.001 A 
HETATM   14  C   UNL     1      37.837 -11.649  -0.992  1.00  0.00     0.016 A 
ENDROOT
BRANCH   1  15
HETATM   15  C   UNL     1      41.902 -13.382   3.292  1.00  0.00     0.272 C 
HETATM   16  N   UNL     1      41.481 -14.589   3.797  1.00  0.00    -0.351 N 
HETATM   17  H   UNL     1      40.552 -14.890   3.515  1.00  0.00     0.163 HD
HETATM   18  O   UNL     1      42.981 -12.862   3.555  1.00  0.00    -0.266 OA
BRANCH  16  19
HETATM   19  C   UNL     1      42.264 -15.378   4.715  1.00  0.00     0.163 C 
BRANCH  19  20
HETATM   20  C   UNL     1      42.881 -16.623   4.117  1.00  0.00    -0.019 A 
HETATM   21  C   UNL     1      42.453 -17.155   2.886  1.00  0.00     0.010 A 
HETATM   22  C   UNL     1      43.034 -18.312   2.357  1.00  0.00     0.001 A 
HETATM   23  C   UNL     1      44.055 -18.960   3.045  1.00  0.00     0.002 A 
HETATM   24  C   UNL     1      44.498 -18.450   4.263  1.00  0.00     0.024 A 
HETATM   25  C   UNL     1      43.919 -17.292   4.794  1.00  0.00     0.042 A 
HETATM   26 CL   UNL     1      44.535 -16.718   6.306  1.00  0.00    -0.084 Cl
ENDBRANCH  19  20
ENDBRANCH  16  19
ENDBRANCH   1  15
TORSDOF 3
ENDMDL
MODEL 9
REMARK VINA RESULT:      -8.0      2.596      8.617
REMARK  3 active torsions:
REMARK  status: ('A' for Active; 'I' for Inactive)
REMARK    1  A    between atoms: C_3  and  C_4 
REMARK    2  A    between atoms: C_4  and  N_5 
REMARK       I    between atoms: N_5  and  C_6 
REMARK    3  A    between atoms: C_6  and  C_7 
ROOT
HETATM    1  C   UNL     1      43.168 -12.675   5.997  1.00  0.00     0.155 A 
HETATM    2  N   UNL     1      44.344 -12.939   6.614  1.00  0.00    -0.168 NA
HETATM    3  N   UNL     1      44.599 -11.819   7.327  1.00  0.00    -0.276 N 
HETATM    4  H   UNL     1      45.443 -11.788   7.891  1.00  0.00     0.189 HD
HETATM    5  C   UNL     1      43.650 -10.861   7.177  1.00  0.00     0.074 A 
HETATM    6  C   UNL     1      42.716 -11.375   6.319  1.00  0.00     0.031 A 
HETATM    7  C   UNL     1      41.519 -10.603   5.917  1.00  0.00     0.219 A 
HETATM    8  O   UNL     1      41.445  -9.246   6.441  1.00  0.00    -0.346 OA
HETATM    9  C   UNL     1      42.400  -8.799   7.330  1.00  0.00     0.081 A 
HETATM   10  C   UNL     1      43.525  -9.542   7.742  1.00  0.00     0.026 A 
HETATM   11  C   UNL     1      42.203  -7.511   7.826  1.00  0.00     0.038 A 
HETATM   12  C   UNL     1      43.113  -6.963   8.730  1.00  0.00     0.003 A 
HETATM   13  C   UNL     1      44.224  -7.701   9.140  1.00  0.00     0.001 A 
HETATM   14  C   UNL     1      44.434  -8.992   8.647  1.00  0.00     0.016 A 
ENDROOT
BRANCH   1  15
HETATM   15  C   UNL     1      42.503 -13.653   5.122  1.00  0.00     0.272 C 
HETATM   16  N   UNL     1      42.111 -14.791   5.784  1.00  0.00    -0.351 N 
HETATM   17  H   UNL     1      42.341 -14.832   6.773  1.00  0.00     0.163 HD
HETATM   18  O   UNL     1      42.330 -13.457   3.923  1.00  0.00    -0.266 OA
BRANCH  16  19
HETATM   19  C   UNL     1      41.460 -15.900   5.133  1.00  0.00     0.163 C 
BRANCH  19  20
HETATM   20  C   UNL     1      42.392 -16.847   4.409  1.00  0.00    -0.019 A 
HETATM   21  C   UNL     1      43.420 -17.542   5.072  1.00  0.00     0.010 A 
HETATM   22  C   UNL     1      44.273 -18.406   4.380  1.00  0.00     0.001 A 
HETATM   23  C   UNL     1      44.116 -18.596   3.011  1.00  0.00     0.002 A 
HETATM   24  C   UNL     1      43.102 -17.924   2.332  1.00  0.00     0.024 A 
HETATM   25  C   UNL     1      42.247 -17.059   3.024  1.00  0.00     0.042 A 
HETATM   26 CL   UNL     1      41.007 -16.271   2.109  1.00  0.00    -0.084 Cl
ENDBRANCH  19  20
ENDBRANCH  16  19
ENDBRANCH   1  15
TORSDOF 3
ENDMDL
MODEL 10
REMARK VINA RESULT:      -8.0      6.041      8.028
REMARK  3 active torsions:
REMARK  status: ('A' for Active; 'I' for Inactive)
REMARK    1  A    between atoms: C_3  and  C_4 
REMARK    2  A    between atoms: C_4  and  N_5 
REMARK       I    between atoms: N_5  and  C_6 
REMARK    3  A    between atoms: C_6  and  C_7 
ROOT
HETATM    1  C   UNL     1      40.524 -14.429   1.561  1.00  0.00     0.155 A 
HETATM    2  N   UNL     1      39.563 -14.133   2.468  1.00  0.00    -0.168 NA
HETATM    3  N   UNL     1      39.984 -14.735   3.602  1.00  0.00    -0.276 N 
HETATM    4  H   UNL     1      39.416 -14.642   4.438  1.00  0.00     0.189 HD
HETATM    5  C   UNL     1      41.154 -15.406   3.449  1.00  0.00     0.074 A 
HETATM    6  C   UNL     1      41.527 -15.237   2.144  1.00  0.00     0.031 A 
HETATM    7  C   UNL     1      42.769 -15.834   1.605  1.00  0.00     0.219 A 
HETATM    8  O   UNL     1      43.521 -16.662   2.537  1.00  0.00    -0.346 OA
HETATM    9  C   UNL     1      43.112 -16.764   3.850  1.00  0.00     0.081 A 
HETATM   10  C   UNL     1      41.947 -16.171   4.377  1.00  0.00     0.026 A 
HETATM   11  C   UNL     1      43.935 -17.525   4.679  1.00  0.00     0.038 A 
HETATM   12  C   UNL     1      43.610 -17.692   6.025  1.00  0.00     0.003 A 
HETATM   13  C   UNL     1      42.459 -17.101   6.547  1.00  0.00     0.001 A 
HETATM   14  C   UNL     1      41.623 -16.339   5.725  1.00  0.00     0.016 A 
ENDROOT
BRANCH   1  15
HETATM   15  C   UNL     1      40.471 -13.943   0.174  1.00  0.00     0.272 C 
HETATM   16  N   UNL     1      39.572 -14.631  -0.605  1.00  0.00    -0.351 N 
HETATM   17  H   UNL     1      39.078 -15.392  -0.148  1.00  0.00     0.163 HD
HETATM   18  O   UNL     1      41.170 -13.019  -0.230  1.00  0.00    -0.266 OA
BRANCH  16  19
HETATM   19  C   UNL     1      39.361 -14.351  -2.003  1.00  0.00     0.163 C 
BRANCH  19  20
HETATM   20  C   UNL     1      38.752 -12.996  -2.294  1.00  0.00    -0.019 A 
HETATM   21  C   UNL     1      37.415 -12.691  -1.978  1.00  0.00     0.010 A 
HETATM   22  C   UNL     1      36.873 -11.435  -2.265  1.00  0.00     0.001 A 
HETATM   23  C   UNL     1      37.655 -10.457  -2.870  1.00  0.00     0.002 A 
HETATM   24  C   UNL     1      38.982 -10.733  -3.189  1.00  0.00     0.024 A 
HETATM   25  C   UNL     1      39.527 -11.990  -2.902  1.00  0.00     0.042 A 
HETATM   26 CL   UNL     1      41.186 -12.249  -3.320  1.00  0.00    -0.084 Cl
ENDBRANCH  19  20
ENDBRANCH  16  19
ENDBRANCH   1  15
TORSDOF 3
ENDMDL
