MODEL 1
REMARK VINA RESULT:      -9.1      0.000      0.000
REMARK  6 active torsions:
REMARK  status: ('A' for Active; 'I' for Inactive)
REMARK    1  A    between atoms: C_2  and  C_3 
REMARK    2  A    between atoms: C_3  and  C_4 
REMARK       I    between atoms: C_4  and  N_5 
REMARK    3  A    between atoms: N_5  and  C_6 
REMARK    4  A    between atoms: C_8  and  C_9 
REMARK    5  A    between atoms: C_9  and  N_10 
REMARK       I    between atoms: N_10  and  C_11 
REMARK    6  A    between atoms: C_11  and  C_12 
ROOT
HETATM    1  C   UNL     1      43.821 -12.563   5.792  1.00  0.00     0.161 C 
ENDROOT
BRANCH   1   2
HETATM    2  C   UNL     1      44.449 -11.663   6.821  1.00  0.00    -0.038 A 
HETATM    3  C   UNL     1      43.692 -11.212   7.918  1.00  0.00     0.038 A 
HETATM    4  C   UNL     1      44.261 -10.395   8.896  1.00  0.00     0.035 A 
HETATM    5  C   UNL     1      45.606 -10.023   8.768  1.00  0.00     0.029 A 
HETATM    6  C   UNL     1      46.360 -10.443   7.669  1.00  0.00     0.003 A 
HETATM    7  C   UNL     1      45.782 -11.257   6.696  1.00  0.00     0.009 A 
BRANCH   4   8
HETATM    8  N   UNL     1      43.569  -9.927  10.033  1.00  0.00    -0.327 N 
HETATM    9  C   UNL     1      43.522 -10.506  11.287  1.00  0.00     0.226 C 
HETATM   10  O   UNL     1      44.061 -11.558  11.619  1.00  0.00    -0.273 OA
HETATM   11  H   UNL     1      43.013  -9.095   9.889  1.00  0.00     0.169 HD
BRANCH   9  12
HETATM   12  C   UNL     1      42.725  -9.704  12.320  1.00  0.00     0.074 C 
HETATM   13  C   UNL     1      43.347  -8.318  12.491  1.00  0.00     0.020 C 
BRANCH  12  14
HETATM   14  C   UNL     1      41.226  -9.596  12.001  1.00  0.00     0.009 C 
HETATM   15  C   UNL     1      40.343 -10.171  13.101  1.00  0.00     0.006 C 
ENDBRANCH  12  14
ENDBRANCH   9  12
ENDBRANCH   4   8
ENDBRANCH   1   2
BRANCH   1  16
HETATM   16  N   UNL     1      43.706 -13.914   6.265  1.00  0.00    -0.351 N 
HETATM   17  C   UNL     1      43.041 -14.872   5.531  1.00  0.00     0.273 C 
HETATM   18  O   UNL     1      42.396 -14.610   4.520  1.00  0.00    -0.266 OA
HETATM   19  H   UNL     1      44.299 -14.261   7.014  1.00  0.00     0.163 HD
BRANCH  17  20
HETATM   20  C   UNL     1      43.201 -16.235   6.063  1.00  0.00     0.157 A 
HETATM   21  N   UNL     1      43.164 -16.485   7.391  1.00  0.00    -0.168 NA
HETATM   22  N   UNL     1      43.355 -17.813   7.472  1.00  0.00    -0.277 N 
HETATM   23  H   UNL     1      43.366 -18.240   8.391  1.00  0.00     0.189 HD
HETATM   24  C   UNL     1      43.522 -18.437   6.268  1.00  0.00     0.063 A 
HETATM   25  C   UNL     1      43.427 -17.429   5.318  1.00  0.00     0.029 A 
HETATM   26  C   UNL     1      43.750 -19.777   5.941  1.00  0.00     0.032 A 
HETATM   27  C   UNL     1      43.569 -17.765   3.956  1.00  0.00     0.023 A 
HETATM   28  C   UNL     1      43.804 -19.103   3.592  1.00  0.00    -0.061 A 
HETATM   29  C   UNL     1      43.891 -20.089   4.583  1.00  0.00     0.009 A 
HETATM   30  C   UNL     1      43.968 -19.452   2.141  1.00  0.00     0.048 C 
ENDBRANCH  17  20
ENDBRANCH   1  16
TORSDOF 6
ENDMDL
MODEL 2
REMARK VINA RESULT:      -8.7      2.017      2.776
REMARK  6 active torsions:
REMARK  status: ('A' for Active; 'I' for Inactive)
REMARK    1  A    between atoms: C_2  and  C_3 
REMARK    2  A    between atoms: C_3  and  C_4 
REMARK       I    between atoms: C_4  and  N_5 
REMARK    3  A    between atoms: N_5  and  C_6 
REMARK    4  A    between atoms: C_8  and  C_9 
REMARK    5  A    between atoms: C_9  and  N_10 
REMARK       I    between atoms: N_10  and  C_11 
REMARK    6  A    between atoms: C_11  and  C_12 
ROOT
HETATM    1  C   UNL     1      42.705 -11.287   4.985  1.00  0.00     0.161 C 
ENDROOT
BRANCH   1   2
HETATM    2  C   UNL     1      43.713 -11.029   6.072  1.00  0.00    -0.038 A 
HETATM    3  C   UNL     1      43.315 -10.397   7.265  1.00  0.00     0.038 A 
HETATM    4  C   UNL     1      44.228 -10.169   8.295  1.00  0.00     0.035 A 
HETATM    5  C   UNL     1      45.557 -10.575   8.124  1.00  0.00     0.029 A 
HETATM    6  C   UNL     1      45.970 -11.179   6.933  1.00  0.00     0.003 A 
HETATM    7  C   UNL     1      45.052 -11.401   5.909  1.00  0.00     0.009 A 
BRANCH   4   8
HETATM    8  N   UNL     1      43.894  -9.563   9.525  1.00  0.00    -0.327 N 
HETATM    9  C   UNL     1      43.755 -10.178  10.756  1.00  0.00     0.226 C 
HETATM   10  O   UNL     1      43.873 -11.380  10.981  1.00  0.00    -0.273 OA
HETATM   11  H   UNL     1      43.694  -8.573   9.481  1.00  0.00     0.169 HD
BRANCH   9  12
HETATM   12  C   UNL     1      43.443  -9.217  11.907  1.00  0.00     0.074 C 
HETATM   13  C   UNL     1      42.974  -7.875  11.347  1.00  0.00     0.020 C 
BRANCH  12  14
HETATM   14  C   UNL     1      42.433  -9.771  12.923  1.00  0.00     0.009 C 
HETATM   15  C   UNL     1      42.240  -8.857  14.126  1.00  0.00     0.006 C 
ENDBRANCH  12  14
ENDBRANCH   9  12
ENDBRANCH   4   8
ENDBRANCH   1   2
BRANCH   1  16
HETATM   16  N   UNL     1      42.971 -12.517   4.293  1.00  0.00    -0.351 N 
HETATM   17  C   UNL     1      41.946 -13.327   3.859  1.00  0.00     0.273 C 
HETATM   18  O   UNL     1      40.770 -13.131   4.153  1.00  0.00    -0.266 OA
HETATM   19  H   UNL     1      43.887 -12.707   3.895  1.00  0.00     0.163 HD
BRANCH  17  20
HETATM   20  C   UNL     1      42.394 -14.429   2.993  1.00  0.00     0.157 A 
HETATM   21  N   UNL     1      42.421 -14.306   1.648  1.00  0.00    -0.168 NA
HETATM   22  N   UNL     1      42.868 -15.501   1.225  1.00  0.00    -0.277 N 
HETATM   23  H   UNL     1      42.973 -15.648   0.228  1.00  0.00     0.189 HD
HETATM   24  C   UNL     1      43.126 -16.397   2.225  1.00  0.00     0.063 A 
HETATM   25  C   UNL     1      42.825 -15.725   3.403  1.00  0.00     0.029 A 
HETATM   26  C   UNL     1      43.584 -17.716   2.193  1.00  0.00     0.032 A 
HETATM   27  C   UNL     1      42.985 -16.403   4.629  1.00  0.00     0.023 A 
HETATM   28  C   UNL     1      43.439 -17.734   4.632  1.00  0.00    -0.061 A 
HETATM   29  C   UNL     1      43.733 -18.372   3.421  1.00  0.00     0.009 A 
HETATM   30  C   UNL     1      43.594 -18.454   5.940  1.00  0.00     0.048 C 
ENDBRANCH  17  20
ENDBRANCH   1  16
TORSDOF 6
ENDMDL
MODEL 3
REMARK VINA RESULT:      -8.7      1.464      1.670
REMARK  6 active torsions:
REMARK  status: ('A' for Active; 'I' for Inactive)
REMARK    1  A    between atoms: C_2  and  C_3 
REMARK    2  A    between atoms: C_3  and  C_4 
REMARK       I    between atoms: C_4  and  N_5 
REMARK    3  A    between atoms: N_5  and  C_6 
REMARK    4  A    between atoms: C_8  and  C_9 
REMARK    5  A    between atoms: C_9  and  N_10 
REMARK       I    between atoms: N_10  and  C_11 
REMARK    6  A    between atoms: C_11  and  C_12 
ROOT
HETATM    1  C   UNL     1      43.164 -12.515   5.679  1.00  0.00     0.161 C 
ENDROOT
BRANCH   1   2
HETATM    2  C   UNL     1      44.046 -11.682   6.568  1.00  0.00    -0.038 A 
HETATM    3  C   UNL     1      43.481 -10.924   7.610  1.00  0.00     0.038 A 
HETATM    4  C   UNL     1      44.283 -10.161   8.460  1.00  0.00     0.035 A 
HETATM    5  C   UNL     1      45.669 -10.157   8.259  1.00  0.00     0.029 A 
HETATM    6  C   UNL     1      46.239 -10.885   7.211  1.00  0.00     0.003 A 
HETATM    7  C   UNL     1      45.430 -11.641   6.366  1.00  0.00     0.009 A 
BRANCH   4   8
HETATM    8  N   UNL     1      43.787  -9.398   9.538  1.00  0.00    -0.327 N 
HETATM    9  C   UNL     1      43.647  -8.023   9.602  1.00  0.00     0.226 C 
HETATM   10  O   UNL     1      43.962  -7.223   8.725  1.00  0.00    -0.273 OA
HETATM   11  H   UNL     1      43.552  -9.923  10.369  1.00  0.00     0.169 HD
BRANCH   9  12
HETATM   12  C   UNL     1      43.017  -7.516  10.902  1.00  0.00     0.074 C 
HETATM   13  C   UNL     1      41.508  -7.357  10.718  1.00  0.00     0.020 C 
BRANCH  12  14
HETATM   14  C   UNL     1      43.330  -8.388  12.127  1.00  0.00     0.009 C 
HETATM   15  C   UNL     1      43.181  -7.637  13.444  1.00  0.00     0.006 C 
ENDBRANCH  12  14
ENDBRANCH   9  12
ENDBRANCH   4   8
ENDBRANCH   1   2
BRANCH   1  16
HETATM   16  N   UNL     1      43.092 -13.878   6.126  1.00  0.00    -0.351 N 
HETATM   17  C   UNL     1      43.090 -14.923   5.228  1.00  0.00     0.273 C 
HETATM   18  O   UNL     1      43.007 -14.761   4.014  1.00  0.00    -0.266 OA
HETATM   19  H   UNL     1      43.282 -14.124   7.093  1.00  0.00     0.163 HD
BRANCH  17  20
HETATM   20  C   UNL     1      43.224 -16.243   5.864  1.00  0.00     0.157 A 
HETATM   21  N   UNL     1      43.175 -16.390   7.207  1.00  0.00    -0.168 NA
HETATM   22  N   UNL     1      43.343 -17.711   7.392  1.00  0.00    -0.277 N 
HETATM   23  H   UNL     1      43.342 -18.066   8.340  1.00  0.00     0.189 HD
HETATM   24  C   UNL     1      43.504 -18.429   6.240  1.00  0.00     0.063 A 
HETATM   25  C   UNL     1      43.431 -17.495   5.214  1.00  0.00     0.029 A 
HETATM   26  C   UNL     1      43.710 -19.793   6.018  1.00  0.00     0.032 A 
HETATM   27  C   UNL     1      43.574 -17.938   3.883  1.00  0.00     0.023 A 
HETATM   28  C   UNL     1      43.786 -19.304   3.625  1.00  0.00    -0.061 A 
HETATM   29  C   UNL     1      43.851 -20.212   4.689  1.00  0.00     0.009 A 
HETATM   30  C   UNL     1      43.951 -19.766   2.206  1.00  0.00     0.048 C 
ENDBRANCH  17  20
ENDBRANCH   1  16
TORSDOF 6
ENDMDL
MODEL 4
REMARK VINA RESULT:      -8.7      2.327      9.362
REMARK  6 active torsions:
REMARK  status: ('A' for Active; 'I' for Inactive)
REMARK    1  A    between atoms: C_2  and  C_3 
REMARK    2  A    between atoms: C_3  and  C_4 
REMARK       I    between atoms: C_4  and  N_5 
REMARK    3  A    between atoms: N_5  and  C_6 
REMARK    4  A    between atoms: C_8  and  C_9 
REMARK    5  A    between atoms: C_9  and  N_10 
REMARK       I    between atoms: N_10  and  C_11 
REMARK    6  A    between atoms: C_11  and  C_12 
ROOT
HETATM    1  C   UNL     1      41.187 -13.805   6.103  1.00  0.00     0.161 C 
ENDROOT
BRANCH   1   2
HETATM    2  C   UNL     1      41.406 -14.585   4.836  1.00  0.00    -0.038 A 
HETATM    3  C   UNL     1      41.980 -15.869   4.891  1.00  0.00     0.038 A 
HETATM    4  C   UNL     1      42.171 -16.620   3.730  1.00  0.00     0.035 A 
HETATM    5  C   UNL     1      41.786 -16.073   2.499  1.00  0.00     0.029 A 
HETATM    6  C   UNL     1      41.240 -14.789   2.430  1.00  0.00     0.003 A 
HETATM    7  C   UNL     1      41.055 -14.046   3.594  1.00  0.00     0.009 A 
BRANCH   4   8
HETATM    8  N   UNL     1      42.717 -17.921   3.713  1.00  0.00    -0.327 N 
HETATM    9  C   UNL     1      43.921 -18.335   4.252  1.00  0.00     0.226 C 
HETATM   10  O   UNL     1      44.742 -17.621   4.822  1.00  0.00    -0.273 OA
HETATM   11  H   UNL     1      42.178 -18.611   3.208  1.00  0.00     0.169 HD
BRANCH   9  12
HETATM   12  C   UNL     1      44.188 -19.836   4.112  1.00  0.00     0.074 C 
HETATM   13  C   UNL     1      44.005 -20.523   5.465  1.00  0.00     0.020 C 
BRANCH  12  14
HETATM   14  C   UNL     1      43.339 -20.521   3.031  1.00  0.00     0.009 C 
HETATM   15  C   UNL     1      43.926 -20.373   1.633  1.00  0.00     0.006 C 
ENDBRANCH  12  14
ENDBRANCH   9  12
ENDBRANCH   4   8
ENDBRANCH   1   2
BRANCH   1  16
HETATM   16  N   UNL     1      42.228 -12.840   6.321  1.00  0.00    -0.351 N 
HETATM   17  C   UNL     1      43.351 -13.157   7.054  1.00  0.00     0.273 C 
HETATM   18  O   UNL     1      43.469 -14.210   7.673  1.00  0.00    -0.266 OA
HETATM   19  H   UNL     1      42.288 -11.996   5.759  1.00  0.00     0.163 HD
BRANCH  17  20
HETATM   20  C   UNL     1      44.398 -12.125   6.998  1.00  0.00     0.157 A 
HETATM   21  N   UNL     1      45.286 -12.072   5.981  1.00  0.00    -0.168 NA
HETATM   22  N   UNL     1      46.067 -11.023   6.291  1.00  0.00    -0.277 N 
HETATM   23  H   UNL     1      46.822 -10.784   5.659  1.00  0.00     0.189 HD
HETATM   24  C   UNL     1      45.738 -10.396   7.460  1.00  0.00     0.063 A 
HETATM   25  C   UNL     1      44.643 -11.094   7.953  1.00  0.00     0.029 A 
HETATM   26  C   UNL     1      46.302  -9.299   8.116  1.00  0.00     0.032 A 
HETATM   27  C   UNL     1      44.071 -10.684   9.174  1.00  0.00     0.023 A 
HETATM   28  C   UNL     1      44.618  -9.586   9.863  1.00  0.00    -0.061 A 
HETATM   29  C   UNL     1      45.721  -8.909   9.329  1.00  0.00     0.009 A 
HETATM   30  C   UNL     1      44.012  -9.163  11.170  1.00  0.00     0.048 C 
ENDBRANCH  17  20
ENDBRANCH   1  16
TORSDOF 6
ENDMDL
MODEL 5
REMARK VINA RESULT:      -8.5      2.427      9.769
REMARK  6 active torsions:
REMARK  status: ('A' for Active; 'I' for Inactive)
REMARK    1  A    between atoms: C_2  and  C_3 
REMARK    2  A    between atoms: C_3  and  C_4 
REMARK       I    between atoms: C_4  and  N_5 
REMARK    3  A    between atoms: N_5  and  C_6 
REMARK    4  A    between atoms: C_8  and  C_9 
REMARK    5  A    between atoms: C_9  and  N_10 
REMARK       I    between atoms: N_10  and  C_11 
REMARK    6  A    between atoms: C_11  and  C_12 
ROOT
HETATM    1  C   UNL     1      43.251 -10.906   6.444  1.00  0.00     0.161 C 
ENDROOT
BRANCH   1   2
HETATM    2  C   UNL     1      42.268 -11.856   5.816  1.00  0.00    -0.038 A 
HETATM    3  C   UNL     1      42.720 -12.859   4.940  1.00  0.00     0.038 A 
HETATM    4  C   UNL     1      41.828 -13.766   4.365  1.00  0.00     0.035 A 
HETATM    5  C   UNL     1      40.465 -13.659   4.669  1.00  0.00     0.029 A 
HETATM    6  C   UNL     1      40.001 -12.650   5.517  1.00  0.00     0.003 A 
HETATM    7  C   UNL     1      40.899 -11.749   6.085  1.00  0.00     0.009 A 
BRANCH   4   8
HETATM    8  N   UNL     1      42.214 -14.810   3.498  1.00  0.00    -0.327 N 
HETATM    9  C   UNL     1      42.269 -16.162   3.781  1.00  0.00     0.226 C 
HETATM   10  O   UNL     1      42.013 -16.686   4.862  1.00  0.00    -0.273 OA
HETATM   11  H   UNL     1      42.525 -14.520   2.581  1.00  0.00     0.169 HD
BRANCH   9  12
HETATM   12  C   UNL     1      42.673 -17.037   2.592  1.00  0.00     0.074 C 
HETATM   13  C   UNL     1      43.300 -16.170   1.500  1.00  0.00     0.020 C 
BRANCH  12  14
HETATM   14  C   UNL     1      43.601 -18.204   2.964  1.00  0.00     0.009 C 
HETATM   15  C   UNL     1      43.289 -19.480   2.193  1.00  0.00     0.006 C 
ENDBRANCH  12  14
ENDBRANCH   9  12
ENDBRANCH   4   8
ENDBRANCH   1   2
BRANCH   1  16
HETATM   16  N   UNL     1      43.078 -10.823   7.867  1.00  0.00    -0.351 N 
HETATM   17  C   UNL     1      44.160 -10.850   8.719  1.00  0.00     0.273 C 
HETATM   18  O   UNL     1      45.303 -11.085   8.340  1.00  0.00    -0.266 OA
HETATM   19  H   UNL     1      42.201 -10.506   8.272  1.00  0.00     0.163 HD
BRANCH  17  20
HETATM   20  C   UNL     1      43.814 -10.546  10.117  1.00  0.00     0.157 A 
HETATM   21  N   UNL     1      43.837 -11.500  11.075  1.00  0.00    -0.168 NA
HETATM   22  N   UNL     1      43.457 -10.846  12.187  1.00  0.00    -0.277 N 
HETATM   23  H   UNL     1      43.400 -11.368  13.053  1.00  0.00     0.189 HD
HETATM   24  C   UNL     1      43.182  -9.520  12.000  1.00  0.00     0.063 A 
HETATM   25  C   UNL     1      43.406  -9.288  10.649  1.00  0.00     0.029 A 
HETATM   26  C   UNL     1      42.759  -8.527  12.886  1.00  0.00     0.032 A 
HETATM   27  C   UNL     1      43.195  -7.990  10.141  1.00  0.00     0.023 A 
HETATM   28  C   UNL     1      42.764  -6.968  11.005  1.00  0.00    -0.061 A 
HETATM   29  C   UNL     1      42.552  -7.245  12.361  1.00  0.00     0.009 A 
HETATM   30  C   UNL     1      42.527  -5.591  10.454  1.00  0.00     0.048 C 
ENDBRANCH  17  20
ENDBRANCH   1  16
TORSDOF 6
ENDMDL
MODEL 6
REMARK VINA RESULT:      -8.3      5.295      8.366
REMARK  6 active torsions:
REMARK  status: ('A' for Active; 'I' for Inactive)
REMARK    1  A    between atoms: C_2  and  C_3 
REMARK    2  A    between atoms: C_3  and  C_4 
REMARK       I    between atoms: C_4  and  N_5 
REMARK    3  A    between atoms: N_5  and  C_6 
REMARK    4  A    between atoms: C_8  and  C_9 
REMARK    5  A    between atoms: C_9  and  N_10 
REMARK       I    between atoms: N_10  and  C_11 
REMARK    6  A    between atoms: C_11  and  C_12 
ROOT
HETATM    1  C   UNL     1      42.745 -12.768   3.509  1.00  0.00     0.161 C 
ENDROOT
BRANCH   1   2
HETATM    2  C   UNL     1      41.330 -12.478   3.091  1.00  0.00    -0.038 A 
HETATM    3  C   UNL     1      40.922 -12.725   1.767  1.00  0.00     0.038 A 
HETATM    4  C   UNL     1      39.608 -12.485   1.364  1.00  0.00     0.035 A 
HETATM    5  C   UNL     1      38.693 -11.986   2.300  1.00  0.00     0.029 A 
HETATM    6  C   UNL     1      39.093 -11.712   3.611  1.00  0.00     0.003 A 
HETATM    7  C   UNL     1      40.408 -11.953   4.003  1.00  0.00     0.009 A 
BRANCH   4   8
HETATM    8  N   UNL     1      39.124 -12.731   0.061  1.00  0.00    -0.327 N 
HETATM    9  C   UNL     1      39.249 -13.894  -0.676  1.00  0.00     0.226 C 
HETATM   10  O   UNL     1      39.835 -14.914  -0.325  1.00  0.00    -0.273 OA
HETATM   11  H   UNL     1      38.676 -11.946  -0.390  1.00  0.00     0.169 HD
BRANCH   9  12
HETATM   12  C   UNL     1      38.553 -13.850  -2.040  1.00  0.00     0.074 C 
HETATM   13  C   UNL     1      37.558 -12.691  -2.076  1.00  0.00     0.020 C 
BRANCH  12  14
HETATM   14  C   UNL     1      39.522 -13.778  -3.230  1.00  0.00     0.009 C 
HETATM   15  C   UNL     1      40.725 -12.883  -2.963  1.00  0.00     0.006 C 
ENDBRANCH  12  14
ENDBRANCH   9  12
ENDBRANCH   4   8
ENDBRANCH   1   2
BRANCH   1  16
HETATM   16  N   UNL     1      42.854 -14.031   4.184  1.00  0.00    -0.351 N 
HETATM   17  C   UNL     1      43.236 -15.169   3.509  1.00  0.00     0.273 C 
HETATM   18  O   UNL     1      43.367 -15.211   2.289  1.00  0.00    -0.266 OA
HETATM   19  H   UNL     1      42.890 -14.082   5.198  1.00  0.00     0.163 HD
BRANCH  17  20
HETATM   20  C   UNL     1      43.495 -16.317   4.394  1.00  0.00     0.157 A 
HETATM   21  N   UNL     1      43.693 -16.156   5.721  1.00  0.00    -0.168 NA
HETATM   22  N   UNL     1      43.903 -17.407   6.167  1.00  0.00    -0.277 N 
HETATM   23  H   UNL     1      44.078 -17.540   7.156  1.00  0.00     0.189 HD
HETATM   24  C   UNL     1      43.858 -18.370   5.198  1.00  0.00     0.063 A 
HETATM   25  C   UNL     1      43.591 -17.689   4.018  1.00  0.00     0.029 A 
HETATM   26  C   UNL     1      44.031 -19.755   5.259  1.00  0.00     0.032 A 
HETATM   27  C   UNL     1      43.492 -18.424   2.819  1.00  0.00     0.023 A 
HETATM   28  C   UNL     1      43.666 -19.819   2.843  1.00  0.00    -0.061 A 
HETATM   29  C   UNL     1      43.932 -20.466   4.056  1.00  0.00     0.009 A 
HETATM   30  C   UNL     1      43.573 -20.593   1.560  1.00  0.00     0.048 C 
ENDBRANCH  17  20
ENDBRANCH   1  16
TORSDOF 6
ENDMDL
MODEL 7
REMARK VINA RESULT:      -8.2      2.139      2.862
REMARK  6 active torsions:
REMARK  status: ('A' for Active; 'I' for Inactive)
REMARK    1  A    between atoms: C_2  and  C_3 
REMARK    2  A    between atoms: C_3  and  C_4 
REMARK       I    between atoms: C_4  and  N_5 
REMARK    3  A    between atoms: N_5  and  C_6 
REMARK    4  A    between atoms: C_8  and  C_9 
REMARK    5  A    between atoms: C_9  and  N_10 
REMARK       I    between atoms: N_10  and  C_11 
REMARK    6  A    between atoms: C_11  and  C_12 
ROOT
HETATM    1  C   UNL     1      42.566 -12.755   3.313  1.00  0.00     0.161 C 
ENDROOT
BRANCH   1   2
HETATM    2  C   UNL     1      42.331 -11.610   4.260  1.00  0.00    -0.038 A 
HETATM    3  C   UNL     1      42.665 -11.742   5.620  1.00  0.00     0.038 A 
HETATM    4  C   UNL     1      42.476 -10.685   6.512  1.00  0.00     0.035 A 
HETATM    5  C   UNL     1      41.941  -9.483   6.032  1.00  0.00     0.029 A 
HETATM    6  C   UNL     1      41.580  -9.349   4.688  1.00  0.00     0.003 A 
HETATM    7  C   UNL     1      41.770 -10.411   3.806  1.00  0.00     0.009 A 
BRANCH   4   8
HETATM    8  N   UNL     1      42.811 -10.738   7.881  1.00  0.00    -0.327 N 
HETATM    9  C   UNL     1      43.908 -10.171   8.503  1.00  0.00     0.226 C 
HETATM   10  O   UNL     1      44.805  -9.538   7.951  1.00  0.00    -0.273 OA
HETATM   11  H   UNL     1      42.194 -11.295   8.457  1.00  0.00     0.169 HD
BRANCH   9  12
HETATM   12  C   UNL     1      43.942 -10.368  10.021  1.00  0.00     0.074 C 
HETATM   13  C   UNL     1      45.334 -10.035  10.555  1.00  0.00     0.020 C 
BRANCH  12  14
HETATM   14  C   UNL     1      42.862  -9.577  10.775  1.00  0.00     0.009 C 
HETATM   15  C   UNL     1      43.082  -8.071  10.718  1.00  0.00     0.006 C 
ENDBRANCH  12  14
ENDBRANCH   9  12
ENDBRANCH   4   8
ENDBRANCH   1   2
BRANCH   1  16
HETATM   16  N   UNL     1      42.704 -14.003   4.009  1.00  0.00    -0.351 N 
HETATM   17  C   UNL     1      43.202 -15.121   3.377  1.00  0.00     0.273 C 
HETATM   18  O   UNL     1      43.421 -15.164   2.170  1.00  0.00    -0.266 OA
HETATM   19  H   UNL     1      42.672 -14.044   5.024  1.00  0.00     0.163 HD
BRANCH  17  20
HETATM   20  C   UNL     1      43.468 -16.243   4.292  1.00  0.00     0.157 A 
HETATM   21  N   UNL     1      43.660 -16.047   5.615  1.00  0.00    -0.168 NA
HETATM   22  N   UNL     1      43.880 -17.283   6.094  1.00  0.00    -0.277 N 
HETATM   23  H   UNL     1      44.052 -17.389   7.086  1.00  0.00     0.189 HD
HETATM   24  C   UNL     1      43.849 -18.271   5.150  1.00  0.00     0.063 A 
HETATM   25  C   UNL     1      43.580 -17.623   3.952  1.00  0.00     0.029 A 
HETATM   26  C   UNL     1      44.035 -19.653   5.247  1.00  0.00     0.032 A 
HETATM   27  C   UNL     1      43.494 -18.389   2.771  1.00  0.00     0.023 A 
HETATM   28  C   UNL     1      43.681 -19.781   2.832  1.00  0.00    -0.061 A 
HETATM   29  C   UNL     1      43.948 -20.395   4.062  1.00  0.00     0.009 A 
HETATM   30  C   UNL     1      43.602 -20.589   1.569  1.00  0.00     0.048 C 
ENDBRANCH  17  20
ENDBRANCH   1  16
TORSDOF 6
ENDMDL
MODEL 8
REMARK VINA RESULT:      -8.2      5.984      9.779
REMARK  6 active torsions:
REMARK  status: ('A' for Active; 'I' for Inactive)
REMARK    1  A    between atoms: C_2  and  C_3 
REMARK    2  A    between atoms: C_3  and  C_4 
REMARK       I    between atoms: C_4  and  N_5 
REMARK    3  A    between atoms: N_5  and  C_6 
REMARK    4  A    between atoms: C_8  and  C_9 
REMARK    5  A    between atoms: C_9  and  N_10 
REMARK       I    between atoms: N_10  and  C_11 
REMARK    6  A    between atoms: C_11  and  C_12 
ROOT
HETATM    1  C   UNL     1      40.518 -12.593   3.792  1.00  0.00     0.161 C 
ENDROOT
BRANCH   1   2
HETATM    2  C   UNL     1      40.773 -13.868   4.548  1.00  0.00    -0.038 A 
HETATM    3  C   UNL     1      41.470 -14.924   3.932  1.00  0.00     0.038 A 
HETATM    4  C   UNL     1      41.737 -16.107   4.622  1.00  0.00     0.035 A 
HETATM    5  C   UNL     1      41.295 -16.233   5.945  1.00  0.00     0.029 A 
HETATM    6  C   UNL     1      40.579 -15.202   6.558  1.00  0.00     0.003 A 
HETATM    7  C   UNL     1      40.315 -14.025   5.861  1.00  0.00     0.009 A 
BRANCH   4   8
HETATM    8  N   UNL     1      42.450 -17.196   4.076  1.00  0.00    -0.327 N 
HETATM    9  C   UNL     1      43.748 -17.579   4.359  1.00  0.00     0.226 C 
HETATM   10  O   UNL     1      44.519 -17.009   5.126  1.00  0.00    -0.273 OA
HETATM   11  H   UNL     1      41.960 -17.721   3.365  1.00  0.00     0.169 HD
BRANCH   9  12
HETATM   12  C   UNL     1      44.200 -18.849   3.633  1.00  0.00     0.074 C 
HETATM   13  C   UNL     1      44.221 -20.024   4.610  1.00  0.00     0.020 C 
BRANCH  12  14
HETATM   14  C   UNL     1      43.364 -19.185   2.388  1.00  0.00     0.009 C 
HETATM   15  C   UNL     1      43.749 -20.517   1.757  1.00  0.00     0.006 C 
ENDBRANCH  12  14
ENDBRANCH   9  12
ENDBRANCH   4   8
ENDBRANCH   1   2
BRANCH   1  16
HETATM   16  N   UNL     1      39.845 -12.836   2.548  1.00  0.00    -0.351 N 
HETATM   17  C   UNL     1      40.499 -12.695   1.344  1.00  0.00     0.273 C 
HETATM   18  O   UNL     1      41.629 -12.225   1.249  1.00  0.00    -0.266 OA
HETATM   19  H   UNL     1      38.964 -13.341   2.518  1.00  0.00     0.163 HD
BRANCH  17  20
HETATM   20  C   UNL     1      39.723 -13.184   0.193  1.00  0.00     0.157 A 
HETATM   21  N   UNL     1      39.830 -14.459  -0.242  1.00  0.00    -0.168 NA
HETATM   22  N   UNL     1      38.993 -14.511  -1.292  1.00  0.00    -0.277 N 
HETATM   23  H   UNL     1      38.904 -15.388  -1.791  1.00  0.00     0.189 HD
HETATM   24  C   UNL     1      38.353 -13.335  -1.567  1.00  0.00     0.063 A 
HETATM   25  C   UNL     1      38.809 -12.439  -0.609  1.00  0.00     0.029 A 
HETATM   26  C   UNL     1      37.433 -12.989  -2.559  1.00  0.00     0.032 A 
HETATM   27  C   UNL     1      38.328 -11.114  -0.636  1.00  0.00     0.023 A 
HETATM   28  C   UNL     1      37.405 -10.731  -1.625  1.00  0.00    -0.061 A 
HETATM   29  C   UNL     1      36.969 -11.667  -2.570  1.00  0.00     0.009 A 
HETATM   30  C   UNL     1      36.907  -9.315  -1.656  1.00  0.00     0.048 C 
ENDBRANCH  17  20
ENDBRANCH   1  16
TORSDOF 6
ENDMDL
MODEL 9
REMARK VINA RESULT:      -8.2      6.758      9.216
REMARK  6 active torsions:
REMARK  status: ('A' for Active; 'I' for Inactive)
REMARK    1  A    between atoms: C_2  and  C_3 
REMARK    2  A    between atoms: C_3  and  C_4 
REMARK       I    between atoms: C_4  and  N_5 
REMARK    3  A    between atoms: N_5  and  C_6 
REMARK    4  A    between atoms: C_8  and  C_9 
REMARK    5  A    between atoms: C_9  and  N_10 
REMARK       I    between atoms: N_10  and  C_11 
REMARK    6  A    between atoms: C_11  and  C_12 
ROOT
HETATM    1  C   UNL     1      40.590 -14.026  -0.517  1.00  0.00     0.161 C 
ENDROOT
BRANCH   1   2
HETATM    2  C   UNL     1      40.118 -12.598  -0.545  1.00  0.00    -0.038 A 
HETATM    3  C   UNL     1      40.841 -11.632  -1.269  1.00  0.00     0.038 A 
HETATM    4  C   UNL     1      40.409 -10.306  -1.326  1.00  0.00     0.035 A 
HETATM    5  C   UNL     1      39.239  -9.946  -0.645  1.00  0.00     0.029 A 
HETATM    6  C   UNL     1      38.528 -10.891   0.099  1.00  0.00     0.003 A 
HETATM    7  C   UNL     1      38.968 -12.211   0.152  1.00  0.00     0.009 A 
BRANCH   4   8
HETATM    8  N   UNL     1      41.070  -9.292  -2.051  1.00  0.00    -0.327 N 
HETATM    9  C   UNL     1      42.246  -8.647  -1.715  1.00  0.00     0.226 C 
HETATM   10  O   UNL     1      42.907  -8.833  -0.697  1.00  0.00    -0.273 OA
HETATM   11  H   UNL     1      40.597  -8.979  -2.888  1.00  0.00     0.169 HD
BRANCH   9  12
HETATM   12  C   UNL     1      42.725  -7.632  -2.757  1.00  0.00     0.074 C 
HETATM   13  C   UNL     1      41.918  -7.793  -4.045  1.00  0.00     0.020 C 
BRANCH  12  14
HETATM   14  C   UNL     1      42.693  -6.176  -2.268  1.00  0.00     0.009 C 
HETATM   15  C   UNL     1      43.980  -5.756  -1.570  1.00  0.00     0.006 C 
ENDBRANCH  12  14
ENDBRANCH   9  12
ENDBRANCH   4   8
ENDBRANCH   1   2
BRANCH   1  16
HETATM   16  N   UNL     1      41.285 -14.335   0.700  1.00  0.00    -0.351 N 
HETATM   17  C   UNL     1      40.865 -15.358   1.521  1.00  0.00     0.273 C 
HETATM   18  O   UNL     1      39.814 -15.967   1.346  1.00  0.00    -0.266 OA
HETATM   19  H   UNL     1      42.222 -13.982   0.873  1.00  0.00     0.163 HD
BRANCH  17  20
HETATM   20  C   UNL     1      41.810 -15.664   2.607  1.00  0.00     0.157 A 
HETATM   21  N   UNL     1      42.101 -14.759   3.568  1.00  0.00    -0.168 NA
HETATM   22  N   UNL     1      42.989 -15.396   4.350  1.00  0.00    -0.277 N 
HETATM   23  H   UNL     1      43.359 -14.904   5.155  1.00  0.00     0.189 HD
HETATM   24  C   UNL     1      43.296 -16.665   3.945  1.00  0.00     0.063 A 
HETATM   25  C   UNL     1      42.537 -16.876   2.801  1.00  0.00     0.029 A 
HETATM   26  C   UNL     1      44.162 -17.624   4.475  1.00  0.00     0.032 A 
HETATM   27  C   UNL     1      42.645 -18.113   2.134  1.00  0.00     0.023 A 
HETATM   28  C   UNL     1      43.511 -19.100   2.638  1.00  0.00    -0.061 A 
HETATM   29  C   UNL     1      44.256 -18.846   3.796  1.00  0.00     0.009 A 
HETATM   30  C   UNL     1      43.631 -20.410   1.916  1.00  0.00     0.048 C 
ENDBRANCH  17  20
ENDBRANCH   1  16
TORSDOF 6
ENDMDL
MODEL 10
REMARK VINA RESULT:      -8.0      5.700      8.746
REMARK  6 active torsions:
REMARK  status: ('A' for Active; 'I' for Inactive)
REMARK    1  A    between atoms: C_2  and  C_3 
REMARK    2  A    between atoms: C_3  and  C_4 
REMARK       I    between atoms: C_4  and  N_5 
REMARK    3  A    between atoms: N_5  and  C_6 
REMARK    4  A    between atoms: C_8  and  C_9 
REMARK    5  A    between atoms: C_9  and  N_10 
REMARK       I    between atoms: N_10  and  C_11 
REMARK    6  A    between atoms: C_11  and  C_12 
ROOT
HETATM    1  C   UNL     1      40.595 -13.934   3.676  1.00  0.00     0.161 C 
ENDROOT
BRANCH   1   2
HETATM    2  C   UNL     1      40.255 -14.058   2.216  1.00  0.00    -0.038 A 
HETATM    3  C   UNL     1      40.069 -12.902   1.436  1.00  0.00     0.038 A 
HETATM    4  C   UNL     1      39.775 -12.995   0.074  1.00  0.00     0.035 A 
HETATM    5  C   UNL     1      39.663 -14.263  -0.509  1.00  0.00     0.029 A 
HETATM    6  C   UNL     1      39.820 -15.418   0.261  1.00  0.00     0.003 A 
HETATM    7  C   UNL     1      40.111 -15.316   1.620  1.00  0.00     0.009 A 
BRANCH   4   8
HETATM    8  N   UNL     1      39.599 -11.879  -0.772  1.00  0.00    -0.327 N 
HETATM    9  C   UNL     1      40.468 -11.413  -1.741  1.00  0.00     0.226 C 
HETATM   10  O   UNL     1      41.569 -11.884  -2.012  1.00  0.00    -0.273 OA
HETATM   11  H   UNL     1      38.758 -11.343  -0.612  1.00  0.00     0.169 HD
BRANCH   9  12
HETATM   12  C   UNL     1      39.943 -10.209  -2.528  1.00  0.00     0.074 C 
HETATM   13  C   UNL     1      39.762  -9.016  -1.589  1.00  0.00     0.020 C 
BRANCH  12  14
HETATM   14  C   UNL     1      40.812  -9.828  -3.736  1.00  0.00     0.009 C 
HETATM   15  C   UNL     1      41.347  -8.404  -3.657  1.00  0.00     0.006 C 
ENDBRANCH  12  14
ENDBRANCH   9  12
ENDBRANCH   4   8
ENDBRANCH   1   2
BRANCH   1  16
HETATM   16  N   UNL     1      41.195 -15.134   4.188  1.00  0.00    -0.351 N 
HETATM   17  C   UNL     1      42.564 -15.280   4.242  1.00  0.00     0.273 C 
HETATM   18  O   UNL     1      43.342 -14.475   3.738  1.00  0.00    -0.266 OA
HETATM   19  H   UNL     1      40.656 -15.797   4.737  1.00  0.00     0.163 HD
BRANCH  17  20
HETATM   20  C   UNL     1      42.998 -16.475   4.982  1.00  0.00     0.157 A 
HETATM   21  N   UNL     1      43.175 -16.452   6.322  1.00  0.00    -0.168 NA
HETATM   22  N   UNL     1      43.575 -17.702   6.614  1.00  0.00    -0.277 N 
HETATM   23  H   UNL     1      43.772 -17.928   7.581  1.00  0.00     0.189 HD
HETATM   24  C   UNL     1      43.673 -18.534   5.534  1.00  0.00     0.063 A 
HETATM   25  C   UNL     1      43.300 -17.760   4.442  1.00  0.00     0.029 A 
HETATM   26  C   UNL     1      44.055 -19.873   5.426  1.00  0.00     0.032 A 
HETATM   27  C   UNL     1      43.309 -18.347   3.161  1.00  0.00     0.023 A 
HETATM   28  C   UNL     1      43.693 -19.692   3.016  1.00  0.00    -0.061 A 
HETATM   29  C   UNL     1      44.059 -20.436   4.144  1.00  0.00     0.009 A 
HETATM   30  C   UNL     1      43.714 -20.307   1.646  1.00  0.00     0.048 C 
ENDBRANCH  17  20
ENDBRANCH   1  16
TORSDOF 6
ENDMDL
