MODEL 1
REMARK VINA RESULT:      -7.7      0.000      0.000
REMARK  11 active torsions:
REMARK  status: ('A' for Active; 'I' for Inactive)
REMARK    1  A    between atoms: C_2  and  C_3 
REMARK    2  A    between atoms: C_3  and  C_4 
REMARK    3  A    between atoms: C_4  and  O_5 
REMARK    4  A    between atoms: O_5  and  C_6 
REMARK    5  A    between atoms: C_9  and  C_10 
REMARK       I    between atoms: C_10  and  N_11 
REMARK    6  A    between atoms: N_11  and  C_12 
REMARK    7  A    between atoms: C_12  and  C_13 
REMARK       I    between atoms: C_13  and  N_14 
REMARK    8  A    between atoms: N_14  and  N_15 
REMARK    9  A    between atoms: C_16  and  C_17 
REMARK   10  A    between atoms: C_18  and  O_19 
REMARK   11  A    between atoms: C_21  and  O_22 
ROOT
HETATM    1  C   UNL     1      39.426 -14.415  -1.136  1.00  0.00     0.227 C 
ENDROOT
BRANCH   1   2
HETATM    2  N   UNL     1      40.258 -15.030  -0.107  1.00  0.00    -0.348 N 
HETATM    3  C   UNL     1      40.383 -14.477   1.147  1.00  0.00     0.252 C 
HETATM    4  O   UNL     1      39.917 -13.374   1.417  1.00  0.00    -0.268 OA
HETATM    5  H   UNL     1      40.549 -15.986  -0.265  1.00  0.00     0.163 HD
BRANCH   3   6
HETATM    6  C   UNL     1      41.148 -15.243   2.167  1.00  0.00     0.032 A 
HETATM    7  C   UNL     1      40.622 -15.539   3.430  1.00  0.00     0.020 A 
HETATM    8  C   UNL     1      41.350 -16.335   4.323  1.00  0.00     0.038 A 
HETATM    9  C   UNL     1      42.593 -16.851   3.951  1.00  0.00     0.068 A 
HETATM   10  C   UNL     1      43.132 -16.522   2.708  1.00  0.00     0.038 A 
HETATM   11  C   UNL     1      42.410 -15.731   1.812  1.00  0.00     0.020 A 
BRANCH   9  12
HETATM   12  O   UNL     1      43.364 -17.677   4.721  1.00  0.00    -0.351 OA
BRANCH  12  13
HETATM   13  C   UNL     1      44.275 -18.517   4.011  1.00  0.00     0.175 C 
BRANCH  13  14
HETATM   14  C   UNL     1      44.074 -19.963   4.463  1.00  0.00     0.026 C 
BRANCH  14  15
HETATM   15  C   UNL     1      43.861 -20.925   3.294  1.00  0.00    -0.002 C 
HETATM   16  C   UNL     1      43.241 -20.210   2.102  1.00  0.00     0.005 C 
ENDBRANCH  14  15
ENDBRANCH  13  14
ENDBRANCH  12  13
ENDBRANCH   9  12
ENDBRANCH   3   6
ENDBRANCH   1   2
BRANCH   1  17
HETATM   17  C   UNL     1      40.172 -13.468  -2.084  1.00  0.00     0.255 C 
HETATM   18  N   UNL     1      40.387 -12.206  -1.552  1.00  0.00    -0.246 N 
HETATM   19  H   UNL     1      40.019 -11.991  -0.620  1.00  0.00     0.192 HD
HETATM   20  O   UNL     1      40.443 -13.797  -3.238  1.00  0.00    -0.270 OA
BRANCH  18  21
HETATM   21  N   UNL     1      40.983 -11.236  -2.295  1.00  0.00    -0.184 NA
HETATM   22  C   UNL     1      40.951 -10.049  -1.775  1.00  0.00     0.153 C 
BRANCH  22  23
HETATM   23  C   UNL     1      41.545  -8.899  -2.484  1.00  0.00     0.016 A 
HETATM   24  C   UNL     1      42.521  -8.084  -1.896  1.00  0.00     0.080 A 
HETATM   25  C   UNL     1      43.068  -7.013  -2.601  1.00  0.00     0.074 A 
HETATM   26  C   UNL     1      42.627  -6.759  -3.896  1.00  0.00     0.068 A 
HETATM   27  C   UNL     1      41.654  -7.555  -4.493  1.00  0.00     0.037 A 
HETATM   28  C   UNL     1      41.110  -8.631  -3.787  1.00  0.00     0.018 A 
BRANCH  24  29
HETATM   29  O   UNL     1      42.997  -8.279  -0.626  1.00  0.00    -0.360 OA
HETATM   30  H   UNL     1      42.523  -7.663  -0.020  1.00  0.00     0.217 HD
ENDBRANCH  24  29
BRANCH  26  31
HETATM   31  O   UNL     1      43.132  -5.722  -4.626  1.00  0.00    -0.361 OA
HETATM   32  H   UNL     1      44.086  -5.659  -4.450  1.00  0.00     0.217 HD
ENDBRANCH  26  31
ENDBRANCH  22  23
ENDBRANCH  18  21
ENDBRANCH   1  17
TORSDOF 11
ENDMDL
MODEL 2
REMARK VINA RESULT:      -7.6      8.781     11.478
REMARK  11 active torsions:
REMARK  status: ('A' for Active; 'I' for Inactive)
REMARK    1  A    between atoms: C_2  and  C_3 
REMARK    2  A    between atoms: C_3  and  C_4 
REMARK    3  A    between atoms: C_4  and  O_5 
REMARK    4  A    between atoms: O_5  and  C_6 
REMARK    5  A    between atoms: C_9  and  C_10 
REMARK       I    between atoms: C_10  and  N_11 
REMARK    6  A    between atoms: N_11  and  C_12 
REMARK    7  A    between atoms: C_12  and  C_13 
REMARK       I    between atoms: C_13  and  N_14 
REMARK    8  A    between atoms: N_14  and  N_15 
REMARK    9  A    between atoms: C_16  and  C_17 
REMARK   10  A    between atoms: C_18  and  O_19 
REMARK   11  A    between atoms: C_21  and  O_22 
ROOT
HETATM    1  C   UNL     1      46.580 -10.199   7.774  1.00  0.00     0.227 C 
ENDROOT
BRANCH   1   2
HETATM    2  N   UNL     1      45.839 -10.775   6.655  1.00  0.00    -0.348 N 
HETATM    3  C   UNL     1      44.776 -11.625   6.855  1.00  0.00     0.252 C 
HETATM    4  O   UNL     1      44.486 -12.050   7.971  1.00  0.00    -0.268 OA
HETATM    5  H   UNL     1      45.980 -10.351   5.748  1.00  0.00     0.163 HD
BRANCH   3   6
HETATM    6  C   UNL     1      44.003 -12.057   5.660  1.00  0.00     0.032 A 
HETATM    7  C   UNL     1      44.146 -11.438   4.413  1.00  0.00     0.020 A 
HETATM    8  C   UNL     1      43.457 -11.937   3.300  1.00  0.00     0.038 A 
HETATM    9  C   UNL     1      42.641 -13.062   3.426  1.00  0.00     0.068 A 
HETATM   10  C   UNL     1      42.469 -13.653   4.677  1.00  0.00     0.038 A 
HETATM   11  C   UNL     1      43.155 -13.162   5.790  1.00  0.00     0.020 A 
BRANCH   9  12
HETATM   12  O   UNL     1      41.965 -13.661   2.400  1.00  0.00    -0.351 OA
BRANCH  12  13
HETATM   13  C   UNL     1      41.845 -15.083   2.480  1.00  0.00     0.175 C 
BRANCH  13  14
HETATM   14  C   UNL     1      43.037 -15.722   1.768  1.00  0.00     0.026 C 
BRANCH  14  15
HETATM   15  C   UNL     1      43.234 -17.190   2.148  1.00  0.00    -0.002 C 
HETATM   16  C   UNL     1      43.447 -17.344   3.646  1.00  0.00     0.005 C 
ENDBRANCH  14  15
ENDBRANCH  13  14
ENDBRANCH  12  13
ENDBRANCH   9  12
ENDBRANCH   3   6
ENDBRANCH   1   2
BRANCH   1  17
HETATM   17  C   UNL     1      45.778  -9.216   8.637  1.00  0.00     0.255 C 
HETATM   18  N   UNL     1      45.305  -9.770   9.816  1.00  0.00    -0.246 N 
HETATM   19  H   UNL     1      45.484 -10.760  10.005  1.00  0.00     0.192 HD
HETATM   20  O   UNL     1      45.510  -8.083   8.236  1.00  0.00    -0.270 OA
BRANCH  18  21
HETATM   21  N   UNL     1      44.525  -9.040  10.657  1.00  0.00    -0.184 NA
HETATM   22  C   UNL     1      43.690  -9.730  11.368  1.00  0.00     0.153 C 
BRANCH  22  23
HETATM   23  C   UNL     1      42.770  -9.063  12.310  1.00  0.00     0.016 A 
HETATM   24  C   UNL     1      41.410  -9.392  12.382  1.00  0.00     0.080 A 
HETATM   25  C   UNL     1      40.574  -8.749  13.294  1.00  0.00     0.074 A 
HETATM   26  C   UNL     1      41.105  -7.770  14.127  1.00  0.00     0.068 A 
HETATM   27  C   UNL     1      42.453  -7.427  14.063  1.00  0.00     0.037 A 
HETATM   28  C   UNL     1      43.291  -8.075  13.154  1.00  0.00     0.018 A 
BRANCH  24  29
HETATM   29  O   UNL     1      40.824 -10.344  11.591  1.00  0.00    -0.360 OA
HETATM   30  H   UNL     1      41.313 -11.192  11.713  1.00  0.00     0.217 HD
ENDBRANCH  24  29
BRANCH  26  31
HETATM   31  O   UNL     1      40.327  -7.112  15.034  1.00  0.00    -0.361 OA
HETATM   32  H   UNL     1      40.466  -7.517  15.908  1.00  0.00     0.217 HD
ENDBRANCH  26  31
ENDBRANCH  22  23
ENDBRANCH  18  21
ENDBRANCH   1  17
TORSDOF 11
ENDMDL
MODEL 3
REMARK VINA RESULT:      -7.6      8.912     11.607
REMARK  11 active torsions:
REMARK  status: ('A' for Active; 'I' for Inactive)
REMARK    1  A    between atoms: C_2  and  C_3 
REMARK    2  A    between atoms: C_3  and  C_4 
REMARK    3  A    between atoms: C_4  and  O_5 
REMARK    4  A    between atoms: O_5  and  C_6 
REMARK    5  A    between atoms: C_9  and  C_10 
REMARK       I    between atoms: C_10  and  N_11 
REMARK    6  A    between atoms: N_11  and  C_12 
REMARK    7  A    between atoms: C_12  and  C_13 
REMARK       I    between atoms: C_13  and  N_14 
REMARK    8  A    between atoms: N_14  and  N_15 
REMARK    9  A    between atoms: C_16  and  C_17 
REMARK   10  A    between atoms: C_18  and  O_19 
REMARK   11  A    between atoms: C_21  and  O_22 
ROOT
HETATM    1  C   UNL     1      44.705 -10.623   7.984  1.00  0.00     0.227 C 
ENDROOT
BRANCH   1   2
HETATM    2  N   UNL     1      44.297 -11.905   7.417  1.00  0.00    -0.348 N 
HETATM    3  C   UNL     1      43.556 -11.979   6.260  1.00  0.00     0.252 C 
HETATM    4  O   UNL     1      43.086 -10.978   5.726  1.00  0.00    -0.268 OA
HETATM    5  H   UNL     1      44.767 -12.729   7.766  1.00  0.00     0.163 HD
BRANCH   3   6
HETATM    6  C   UNL     1      43.299 -13.328   5.690  1.00  0.00     0.032 A 
HETATM    7  C   UNL     1      42.880 -13.516   4.367  1.00  0.00     0.020 A 
HETATM    8  C   UNL     1      42.734 -14.811   3.855  1.00  0.00     0.038 A 
HETATM    9  C   UNL     1      43.022 -15.918   4.654  1.00  0.00     0.068 A 
HETATM   10  C   UNL     1      43.401 -15.731   5.983  1.00  0.00     0.038 A 
HETATM   11  C   UNL     1      43.551 -14.442   6.499  1.00  0.00     0.020 A 
BRANCH   9  12
HETATM   12  O   UNL     1      42.962 -17.221   4.243  1.00  0.00    -0.351 OA
BRANCH  12  13
HETATM   13  C   UNL     1      43.888 -18.112   4.866  1.00  0.00     0.175 C 
BRANCH  13  14
HETATM   14  C   UNL     1      44.180 -19.271   3.913  1.00  0.00     0.026 C 
BRANCH  14  15
HETATM   15  C   UNL     1      43.517 -19.095   2.547  1.00  0.00    -0.002 C 
HETATM   16  C   UNL     1      43.463 -20.414   1.791  1.00  0.00     0.005 C 
ENDBRANCH  14  15
ENDBRANCH  13  14
ENDBRANCH  12  13
ENDBRANCH   9  12
ENDBRANCH   3   6
ENDBRANCH   1   2
BRANCH   1  17
HETATM   17  C   UNL     1      44.504 -10.499   9.500  1.00  0.00     0.255 C 
HETATM   18  N   UNL     1      43.199 -10.215   9.866  1.00  0.00    -0.246 N 
HETATM   19  H   UNL     1      42.497 -10.077   9.133  1.00  0.00     0.192 HD
HETATM   20  O   UNL     1      45.456 -10.548  10.279  1.00  0.00    -0.270 OA
BRANCH  18  21
HETATM   21  N   UNL     1      42.876 -10.015  11.172  1.00  0.00    -0.184 NA
HETATM   22  C   UNL     1      42.735  -8.774  11.519  1.00  0.00     0.153 C 
BRANCH  22  23
HETATM   23  C   UNL     1      42.402  -8.412  12.911  1.00  0.00     0.016 A 
HETATM   24  C   UNL     1      41.369  -9.043  13.617  1.00  0.00     0.080 A 
HETATM   25  C   UNL     1      41.092  -8.683  14.935  1.00  0.00     0.074 A 
HETATM   26  C   UNL     1      41.849  -7.684  15.539  1.00  0.00     0.068 A 
HETATM   27  C   UNL     1      42.874  -7.044  14.848  1.00  0.00     0.037 A 
HETATM   28  C   UNL     1      43.156  -7.409  13.530  1.00  0.00     0.018 A 
BRANCH  24  29
HETATM   29  O   UNL     1      40.586 -10.031  13.082  1.00  0.00    -0.360 OA
HETATM   30  H   UNL     1      40.438 -10.717  13.774  1.00  0.00     0.217 HD
ENDBRANCH  24  29
BRANCH  26  31
HETATM   31  O   UNL     1      41.615  -7.297  16.826  1.00  0.00    -0.361 OA
HETATM   32  H   UNL     1      42.353  -7.607  17.378  1.00  0.00     0.217 HD
ENDBRANCH  26  31
ENDBRANCH  22  23
ENDBRANCH  18  21
ENDBRANCH   1  17
TORSDOF 11
ENDMDL
MODEL 4
REMARK VINA RESULT:      -7.6      7.570     11.648
REMARK  11 active torsions:
REMARK  status: ('A' for Active; 'I' for Inactive)
REMARK    1  A    between atoms: C_2  and  C_3 
REMARK    2  A    between atoms: C_3  and  C_4 
REMARK    3  A    between atoms: C_4  and  O_5 
REMARK    4  A    between atoms: O_5  and  C_6 
REMARK    5  A    between atoms: C_9  and  C_10 
REMARK       I    between atoms: C_10  and  N_11 
REMARK    6  A    between atoms: N_11  and  C_12 
REMARK    7  A    between atoms: C_12  and  C_13 
REMARK       I    between atoms: C_13  and  N_14 
REMARK    8  A    between atoms: N_14  and  N_15 
REMARK    9  A    between atoms: C_16  and  C_17 
REMARK   10  A    between atoms: C_18  and  O_19 
REMARK   11  A    between atoms: C_21  and  O_22 
ROOT
HETATM    1  C   UNL     1      42.699 -11.837   6.036  1.00  0.00     0.227 C 
ENDROOT
BRANCH   1   2
HETATM    2  N   UNL     1      42.744 -11.196   7.347  1.00  0.00    -0.348 N 
HETATM    3  C   UNL     1      43.854 -10.504   7.775  1.00  0.00     0.252 C 
HETATM    4  O   UNL     1      44.905 -10.509   7.139  1.00  0.00    -0.268 OA
HETATM    5  H   UNL     1      41.862 -11.078   7.828  1.00  0.00     0.163 HD
BRANCH   3   6
HETATM    6  C   UNL     1      43.758  -9.778   9.068  1.00  0.00     0.032 A 
HETATM    7  C   UNL     1      43.354  -8.440   9.148  1.00  0.00     0.020 A 
HETATM    8  C   UNL     1      43.200  -7.826  10.397  1.00  0.00     0.038 A 
HETATM    9  C   UNL     1      43.430  -8.551  11.568  1.00  0.00     0.068 A 
HETATM   10  C   UNL     1      43.871  -9.872  11.486  1.00  0.00     0.038 A 
HETATM   11  C   UNL     1      44.024 -10.489  10.243  1.00  0.00     0.020 A 
BRANCH   9  12
HETATM   12  O   UNL     1      43.262  -8.070  12.836  1.00  0.00    -0.351 OA
BRANCH  12  13
HETATM   13  C   UNL     1      41.914  -7.807  13.228  1.00  0.00     0.175 C 
BRANCH  13  14
HETATM   14  C   UNL     1      41.376  -9.013  13.997  1.00  0.00     0.026 C 
BRANCH  14  15
HETATM   15  C   UNL     1      40.332  -9.802  13.205  1.00  0.00    -0.002 C 
HETATM   16  C   UNL     1      39.728  -8.952  12.098  1.00  0.00     0.005 C 
ENDBRANCH  14  15
ENDBRANCH  13  14
ENDBRANCH  12  13
ENDBRANCH   9  12
ENDBRANCH   3   6
ENDBRANCH   1   2
BRANCH   1  17
HETATM   17  C   UNL     1      43.107 -13.316   6.030  1.00  0.00     0.255 C 
HETATM   18  N   UNL     1      42.372 -14.091   5.148  1.00  0.00    -0.246 N 
HETATM   19  H   UNL     1      41.617 -13.652   4.612  1.00  0.00     0.192 HD
HETATM   20  O   UNL     1      43.939 -13.754   6.824  1.00  0.00    -0.270 OA
BRANCH  18  21
HETATM   21  N   UNL     1      42.576 -15.434   5.074  1.00  0.00    -0.184 NA
HETATM   22  C   UNL     1      43.086 -15.851   3.958  1.00  0.00     0.153 C 
BRANCH  22  23
HETATM   23  C   UNL     1      43.344 -17.287   3.736  1.00  0.00     0.016 A 
HETATM   24  C   UNL     1      43.928 -18.099   4.717  1.00  0.00     0.080 A 
HETATM   25  C   UNL     1      44.145 -19.455   4.475  1.00  0.00     0.074 A 
HETATM   26  C   UNL     1      43.779 -19.991   3.245  1.00  0.00     0.068 A 
HETATM   27  C   UNL     1      43.203 -19.197   2.258  1.00  0.00     0.037 A 
HETATM   28  C   UNL     1      42.981 -17.839   2.503  1.00  0.00     0.018 A 
BRANCH  24  29
HETATM   29  O   UNL     1      44.312 -17.635   5.947  1.00  0.00    -0.360 OA
HETATM   30  H   UNL     1      43.591 -17.064   6.301  1.00  0.00     0.217 HD
ENDBRANCH  24  29
BRANCH  26  31
HETATM   31  O   UNL     1      43.971 -21.312   2.962  1.00  0.00    -0.361 OA
HETATM   32  H   UNL     1      44.834 -21.581   3.323  1.00  0.00     0.217 HD
ENDBRANCH  26  31
ENDBRANCH  22  23
ENDBRANCH  18  21
ENDBRANCH   1  17
TORSDOF 11
ENDMDL
MODEL 5
REMARK VINA RESULT:      -7.5      7.977     10.599
REMARK  11 active torsions:
REMARK  status: ('A' for Active; 'I' for Inactive)
REMARK    1  A    between atoms: C_2  and  C_3 
REMARK    2  A    between atoms: C_3  and  C_4 
REMARK    3  A    between atoms: C_4  and  O_5 
REMARK    4  A    between atoms: O_5  and  C_6 
REMARK    5  A    between atoms: C_9  and  C_10 
REMARK       I    between atoms: C_10  and  N_11 
REMARK    6  A    between atoms: N_11  and  C_12 
REMARK    7  A    between atoms: C_12  and  C_13 
REMARK       I    between atoms: C_13  and  N_14 
REMARK    8  A    between atoms: N_14  and  N_15 
REMARK    9  A    between atoms: C_16  and  C_17 
REMARK   10  A    between atoms: C_18  and  O_19 
REMARK   11  A    between atoms: C_21  and  O_22 
ROOT
HETATM    1  C   UNL     1      40.299 -10.596   6.259  1.00  0.00     0.227 C 
ENDROOT
BRANCH   1   2
HETATM    2  N   UNL     1      41.095 -11.818   6.326  1.00  0.00    -0.348 N 
HETATM    3  C   UNL     1      40.515 -13.063   6.236  1.00  0.00     0.252 C 
HETATM    4  O   UNL     1      39.296 -13.212   6.235  1.00  0.00    -0.268 OA
HETATM    5  H   UNL     1      42.094 -11.719   6.206  1.00  0.00     0.163 HD
BRANCH   3   6
HETATM    6  C   UNL     1      41.419 -14.243   6.183  1.00  0.00     0.032 A 
HETATM    7  C   UNL     1      40.990 -15.496   5.728  1.00  0.00     0.020 A 
HETATM    8  C   UNL     1      41.902 -16.553   5.620  1.00  0.00     0.038 A 
HETATM    9  C   UNL     1      43.245 -16.356   5.946  1.00  0.00     0.068 A 
HETATM   10  C   UNL     1      43.663 -15.119   6.436  1.00  0.00     0.038 A 
HETATM   11  C   UNL     1      42.759 -14.061   6.544  1.00  0.00     0.020 A 
BRANCH   9  12
HETATM   12  O   UNL     1      44.228 -17.299   5.831  1.00  0.00    -0.351 OA
BRANCH  12  13
HETATM   13  C   UNL     1      43.835 -18.538   5.237  1.00  0.00     0.175 C 
BRANCH  13  14
HETATM   14  C   UNL     1      44.475 -18.652   3.854  1.00  0.00     0.026 C 
BRANCH  14  15
HETATM   15  C   UNL     1      43.442 -18.714   2.728  1.00  0.00    -0.002 C 
HETATM   16  C   UNL     1      43.398 -20.100   2.101  1.00  0.00     0.005 C 
ENDBRANCH  14  15
ENDBRANCH  13  14
ENDBRANCH  12  13
ENDBRANCH   9  12
ENDBRANCH   3   6
ENDBRANCH   1   2
BRANCH   1  17
HETATM   17  C   UNL     1      40.027  -9.933   7.616  1.00  0.00     0.255 C 
HETATM   18  N   UNL     1      41.137  -9.886   8.443  1.00  0.00    -0.246 N 
HETATM   19  H   UNL     1      42.013 -10.310   8.123  1.00  0.00     0.192 HD
HETATM   20  O   UNL     1      38.893  -9.584   7.943  1.00  0.00    -0.270 OA
BRANCH  18  21
HETATM   21  N   UNL     1      41.039  -9.383   9.703  1.00  0.00    -0.184 NA
HETATM   22  C   UNL     1      42.109  -9.498  10.425  1.00  0.00     0.153 C 
BRANCH  22  23
HETATM   23  C   UNL     1      42.136  -9.010  11.818  1.00  0.00     0.016 A 
HETATM   24  C   UNL     1      41.318  -9.558  12.815  1.00  0.00     0.080 A 
HETATM   25  C   UNL     1      41.380  -9.079  14.122  1.00  0.00     0.074 A 
HETATM   26  C   UNL     1      42.259  -8.044  14.424  1.00  0.00     0.068 A 
HETATM   27  C   UNL     1      43.073  -7.484  13.444  1.00  0.00     0.037 A 
HETATM   28  C   UNL     1      43.015  -7.968  12.135  1.00  0.00     0.018 A 
BRANCH  24  29
HETATM   29  O   UNL     1      40.432 -10.577  12.584  1.00  0.00    -0.360 OA
HETATM   30  H   UNL     1      40.782 -11.394  13.009  1.00  0.00     0.217 HD
ENDBRANCH  24  29
BRANCH  26  31
HETATM   31  O   UNL     1      42.355  -7.541  15.689  1.00  0.00    -0.361 OA
HETATM   32  H   UNL     1      42.525  -8.278  16.300  1.00  0.00     0.217 HD
ENDBRANCH  26  31
ENDBRANCH  22  23
ENDBRANCH  18  21
ENDBRANCH   1  17
TORSDOF 11
ENDMDL
MODEL 6
REMARK VINA RESULT:      -7.5      6.131     10.495
REMARK  11 active torsions:
REMARK  status: ('A' for Active; 'I' for Inactive)
REMARK    1  A    between atoms: C_2  and  C_3 
REMARK    2  A    between atoms: C_3  and  C_4 
REMARK    3  A    between atoms: C_4  and  O_5 
REMARK    4  A    between atoms: O_5  and  C_6 
REMARK    5  A    between atoms: C_9  and  C_10 
REMARK       I    between atoms: C_10  and  N_11 
REMARK    6  A    between atoms: N_11  and  C_12 
REMARK    7  A    between atoms: C_12  and  C_13 
REMARK       I    between atoms: C_13  and  N_14 
REMARK    8  A    between atoms: N_14  and  N_15 
REMARK    9  A    between atoms: C_16  and  C_17 
REMARK   10  A    between atoms: C_18  and  O_19 
REMARK   11  A    between atoms: C_21  and  O_22 
ROOT
HETATM    1  C   UNL     1      41.977 -11.847   2.839  1.00  0.00     0.227 C 
ENDROOT
BRANCH   1   2
HETATM    2  N   UNL     1      42.195 -11.594   4.260  1.00  0.00    -0.348 N 
HETATM    3  C   UNL     1      43.441 -11.281   4.755  1.00  0.00     0.252 C 
HETATM    4  O   UNL     1      44.448 -11.336   4.055  1.00  0.00    -0.268 OA
HETATM    5  H   UNL     1      41.373 -11.427   4.825  1.00  0.00     0.163 HD
BRANCH   3   6
HETATM    6  C   UNL     1      43.540 -10.913   6.192  1.00  0.00     0.032 A 
HETATM    7  C   UNL     1      44.572 -11.379   7.016  1.00  0.00     0.020 A 
HETATM    8  C   UNL     1      44.666 -10.935   8.341  1.00  0.00     0.038 A 
HETATM    9  C   UNL     1      43.744 -10.014   8.840  1.00  0.00     0.068 A 
HETATM   10  C   UNL     1      42.693  -9.582   8.031  1.00  0.00     0.038 A 
HETATM   11  C   UNL     1      42.596 -10.018   6.708  1.00  0.00     0.020 A 
BRANCH   9  12
HETATM   12  O   UNL     1      43.770  -9.477  10.097  1.00  0.00    -0.351 OA
BRANCH  12  13
HETATM   13  C   UNL     1      43.941 -10.408  11.167  1.00  0.00     0.175 C 
BRANCH  13  14
HETATM   14  C   UNL     1      42.895 -10.125  12.244  1.00  0.00     0.026 C 
BRANCH  14  15
HETATM   15  C   UNL     1      42.431  -8.668  12.251  1.00  0.00    -0.002 C 
HETATM   16  C   UNL     1      43.274  -7.830  13.201  1.00  0.00     0.005 C 
ENDBRANCH  14  15
ENDBRANCH  13  14
ENDBRANCH  12  13
ENDBRANCH   9  12
ENDBRANCH   3   6
ENDBRANCH   1   2
BRANCH   1  17
HETATM   17  C   UNL     1      42.013 -13.328   2.439  1.00  0.00     0.255 C 
HETATM   18  N   UNL     1      42.857 -14.095   3.225  1.00  0.00    -0.246 N 
HETATM   19  H   UNL     1      43.402 -13.637   3.963  1.00  0.00     0.192 HD
HETATM   20  O   UNL     1      41.419 -13.737   1.441  1.00  0.00    -0.270 OA
BRANCH  18  21
HETATM   21  N   UNL     1      43.043 -15.415   2.955  1.00  0.00    -0.184 NA
HETATM   22  C   UNL     1      43.280 -16.159   3.989  1.00  0.00     0.153 C 
BRANCH  22  23
HETATM   23  C   UNL     1      43.518 -17.609   3.837  1.00  0.00     0.016 A 
HETATM   24  C   UNL     1      43.851 -18.426   4.924  1.00  0.00     0.080 A 
HETATM   25  C   UNL     1      44.057 -19.793   4.744  1.00  0.00     0.074 A 
HETATM   26  C   UNL     1      43.933 -20.335   3.468  1.00  0.00     0.068 A 
HETATM   27  C   UNL     1      43.608 -19.535   2.377  1.00  0.00     0.037 A 
HETATM   28  C   UNL     1      43.397 -18.166   2.559  1.00  0.00     0.018 A 
BRANCH  24  29
HETATM   29  O   UNL     1      43.990 -17.957   6.203  1.00  0.00    -0.360 OA
HETATM   30  H   UNL     1      43.090 -17.837   6.588  1.00  0.00     0.217 HD
ENDBRANCH  24  29
BRANCH  26  31
HETATM   31  O   UNL     1      44.125 -21.667   3.242  1.00  0.00    -0.361 OA
HETATM   32  H   UNL     1      44.466 -22.071   4.059  1.00  0.00     0.217 HD
ENDBRANCH  26  31
ENDBRANCH  22  23
ENDBRANCH  18  21
ENDBRANCH   1  17
TORSDOF 11
ENDMDL
MODEL 7
REMARK VINA RESULT:      -7.4      9.781     13.364
REMARK  11 active torsions:
REMARK  status: ('A' for Active; 'I' for Inactive)
REMARK    1  A    between atoms: C_2  and  C_3 
REMARK    2  A    between atoms: C_3  and  C_4 
REMARK    3  A    between atoms: C_4  and  O_5 
REMARK    4  A    between atoms: O_5  and  C_6 
REMARK    5  A    between atoms: C_9  and  C_10 
REMARK       I    between atoms: C_10  and  N_11 
REMARK    6  A    between atoms: N_11  and  C_12 
REMARK    7  A    between atoms: C_12  and  C_13 
REMARK       I    between atoms: C_13  and  N_14 
REMARK    8  A    between atoms: N_14  and  N_15 
REMARK    9  A    between atoms: C_16  and  C_17 
REMARK   10  A    between atoms: C_18  and  O_19 
REMARK   11  A    between atoms: C_21  and  O_22 
ROOT
HETATM    1  C   UNL     1      43.465  -9.949   7.980  1.00  0.00     0.227 C 
ENDROOT
BRANCH   1   2
HETATM    2  N   UNL     1      42.971  -9.821   9.348  1.00  0.00    -0.348 N 
HETATM    3  C   UNL     1      43.779  -9.377  10.369  1.00  0.00     0.252 C 
HETATM    4  O   UNL     1      44.984  -9.199  10.212  1.00  0.00    -0.268 OA
HETATM    5  H   UNL     1      41.968  -9.845   9.475  1.00  0.00     0.163 HD
BRANCH   3   6
HETATM    6  C   UNL     1      43.152  -9.156  11.700  1.00  0.00     0.032 A 
HETATM    7  C   UNL     1      43.490  -8.071  12.517  1.00  0.00     0.020 A 
HETATM    8  C   UNL     1      42.811  -7.863  13.724  1.00  0.00     0.038 A 
HETATM    9  C   UNL     1      41.781  -8.724  14.106  1.00  0.00     0.068 A 
HETATM   10  C   UNL     1      41.471  -9.827  13.311  1.00  0.00     0.038 A 
HETATM   11  C   UNL     1      42.144 -10.038  12.105  1.00  0.00     0.020 A 
BRANCH   9  12
HETATM   12  O   UNL     1      41.019  -8.587  15.233  1.00  0.00    -0.351 OA
BRANCH  12  13
HETATM   13  C   UNL     1      41.229  -7.389  15.983  1.00  0.00     0.175 C 
BRANCH  13  14
HETATM   14  C   UNL     1      41.233  -7.730  17.473  1.00  0.00     0.026 C 
BRANCH  14  15
HETATM   15  C   UNL     1      39.849  -7.609  18.112  1.00  0.00    -0.002 C 
HETATM   16  C   UNL     1      39.841  -8.198  19.515  1.00  0.00     0.005 C 
ENDBRANCH  14  15
ENDBRANCH  13  14
ENDBRANCH  12  13
ENDBRANCH   9  12
ENDBRANCH   3   6
ENDBRANCH   1   2
BRANCH   1  17
HETATM   17  C   UNL     1      44.101 -11.306   7.652  1.00  0.00     0.255 C 
HETATM   18  N   UNL     1      43.186 -12.264   7.245  1.00  0.00    -0.246 N 
HETATM   19  H   UNL     1      42.191 -12.023   7.226  1.00  0.00     0.192 HD
HETATM   20  O   UNL     1      45.298 -11.518   7.847  1.00  0.00    -0.270 OA
BRANCH  18  21
HETATM   21  N   UNL     1      43.590 -13.535   6.978  1.00  0.00    -0.184 NA
HETATM   22  C   UNL     1      42.802 -14.209   6.200  1.00  0.00     0.153 C 
BRANCH  22  23
HETATM   23  C   UNL     1      43.111 -15.607   5.842  1.00  0.00     0.016 A 
HETATM   24  C   UNL     1      43.246 -16.611   6.810  1.00  0.00     0.080 A 
HETATM   25  C   UNL     1      43.525 -17.924   6.433  1.00  0.00     0.074 A 
HETATM   26  C   UNL     1      43.676 -18.224   5.083  1.00  0.00     0.068 A 
HETATM   27  C   UNL     1      43.551 -17.237   4.109  1.00  0.00     0.037 A 
HETATM   28  C   UNL     1      43.266 -15.923   4.487  1.00  0.00     0.018 A 
BRANCH  24  29
HETATM   29  O   UNL     1      43.111 -16.383   8.154  1.00  0.00    -0.360 OA
HETATM   30  H   UNL     1      43.898 -15.876   8.462  1.00  0.00     0.217 HD
ENDBRANCH  24  29
BRANCH  26  31
HETATM   31  O   UNL     1      43.951 -19.493   4.665  1.00  0.00    -0.361 OA
HETATM   32  H   UNL     1      44.666 -19.851   5.220  1.00  0.00     0.217 HD
ENDBRANCH  26  31
ENDBRANCH  22  23
ENDBRANCH  18  21
ENDBRANCH   1  17
TORSDOF 11
ENDMDL
MODEL 8
REMARK VINA RESULT:      -6.9      9.039     11.721
REMARK  11 active torsions:
REMARK  status: ('A' for Active; 'I' for Inactive)
REMARK    1  A    between atoms: C_2  and  C_3 
REMARK    2  A    between atoms: C_3  and  C_4 
REMARK    3  A    between atoms: C_4  and  O_5 
REMARK    4  A    between atoms: O_5  and  C_6 
REMARK    5  A    between atoms: C_9  and  C_10 
REMARK       I    between atoms: C_10  and  N_11 
REMARK    6  A    between atoms: N_11  and  C_12 
REMARK    7  A    between atoms: C_12  and  C_13 
REMARK       I    between atoms: C_13  and  N_14 
REMARK    8  A    between atoms: N_14  and  N_15 
REMARK    9  A    between atoms: C_16  and  C_17 
REMARK   10  A    between atoms: C_18  and  O_19 
REMARK   11  A    between atoms: C_21  and  O_22 
ROOT
HETATM    1  C   UNL     1      46.006 -10.956   7.396  1.00  0.00     0.227 C 
ENDROOT
BRANCH   1   2
HETATM    2  N   UNL     1      45.225 -10.457   8.525  1.00  0.00    -0.348 N 
HETATM    3  C   UNL     1      45.114  -9.110   8.787  1.00  0.00     0.252 C 
HETATM    4  O   UNL     1      45.772  -8.275   8.174  1.00  0.00    -0.268 OA
HETATM    5  H   UNL     1      44.587 -11.109   8.961  1.00  0.00     0.163 HD
BRANCH   3   6
HETATM    6  C   UNL     1      44.194  -8.694   9.878  1.00  0.00     0.032 A 
HETATM    7  C   UNL     1      44.120  -9.376  11.098  1.00  0.00     0.020 A 
HETATM    8  C   UNL     1      43.298  -8.894  12.123  1.00  0.00     0.038 A 
HETATM    9  C   UNL     1      42.564  -7.721  11.941  1.00  0.00     0.068 A 
HETATM   10  C   UNL     1      42.607  -7.064  10.711  1.00  0.00     0.038 A 
HETATM   11  C   UNL     1      43.427  -7.539   9.686  1.00  0.00     0.020 A 
BRANCH   9  12
HETATM   12  O   UNL     1      41.771  -7.134  12.887  1.00  0.00    -0.351 OA
BRANCH  12  13
HETATM   13  C   UNL     1      42.431  -6.238  13.783  1.00  0.00     0.175 C 
BRANCH  13  14
HETATM   14  C   UNL     1      42.730  -6.972  15.090  1.00  0.00     0.026 C 
BRANCH  14  15
HETATM   15  C   UNL     1      41.580  -7.875  15.538  1.00  0.00    -0.002 C 
HETATM   16  C   UNL     1      40.614  -7.123  16.442  1.00  0.00     0.005 C 
ENDBRANCH  14  15
ENDBRANCH  13  14
ENDBRANCH  12  13
ENDBRANCH   9  12
ENDBRANCH   3   6
ENDBRANCH   1   2
BRANCH   1  17
HETATM   17  C   UNL     1      45.178 -11.331   6.160  1.00  0.00     0.255 C 
HETATM   18  N   UNL     1      43.976 -11.950   6.463  1.00  0.00    -0.246 N 
HETATM   19  H   UNL     1      43.749 -12.139   7.444  1.00  0.00     0.192 HD
HETATM   20  O   UNL     1      45.620 -11.177   5.021  1.00  0.00    -0.270 OA
BRANCH  18  21
HETATM   21  N   UNL     1      43.160 -12.397   5.471  1.00  0.00    -0.184 NA
HETATM   22  C   UNL     1      43.104 -13.686   5.346  1.00  0.00     0.153 C 
BRANCH  22  23
HETATM   23  C   UNL     1      42.270 -14.306   4.298  1.00  0.00     0.016 A 
HETATM   24  C   UNL     1      42.314 -13.883   2.963  1.00  0.00     0.080 A 
HETATM   25  C   UNL     1      41.521 -14.501   1.999  1.00  0.00     0.074 A 
HETATM   26  C   UNL     1      40.679 -15.542   2.378  1.00  0.00     0.068 A 
HETATM   27  C   UNL     1      40.619 -15.970   3.701  1.00  0.00     0.037 A 
HETATM   28  C   UNL     1      41.418 -15.354   4.667  1.00  0.00     0.018 A 
BRANCH  24  29
HETATM   29  O   UNL     1      43.119 -12.865   2.524  1.00  0.00    -0.360 OA
HETATM   30  H   UNL     1      43.525 -12.430   3.310  1.00  0.00     0.217 HD
ENDBRANCH  24  29
BRANCH  26  31
HETATM   31  O   UNL     1      39.883 -16.178   1.471  1.00  0.00    -0.361 OA
HETATM   32  H   UNL     1      39.177 -16.642   1.953  1.00  0.00     0.217 HD
ENDBRANCH  26  31
ENDBRANCH  22  23
ENDBRANCH  18  21
ENDBRANCH   1  17
TORSDOF 11
ENDMDL
MODEL 9
REMARK VINA RESULT:      -6.9      3.864      9.819
REMARK  11 active torsions:
REMARK  status: ('A' for Active; 'I' for Inactive)
REMARK    1  A    between atoms: C_2  and  C_3 
REMARK    2  A    between atoms: C_3  and  C_4 
REMARK    3  A    between atoms: C_4  and  O_5 
REMARK    4  A    between atoms: O_5  and  C_6 
REMARK    5  A    between atoms: C_9  and  C_10 
REMARK       I    between atoms: C_10  and  N_11 
REMARK    6  A    between atoms: N_11  and  C_12 
REMARK    7  A    between atoms: C_12  and  C_13 
REMARK       I    between atoms: C_13  and  N_14 
REMARK    8  A    between atoms: N_14  and  N_15 
REMARK    9  A    between atoms: C_16  and  C_17 
REMARK   10  A    between atoms: C_18  and  O_19 
REMARK   11  A    between atoms: C_21  and  O_22 
ROOT
HETATM    1  C   UNL     1      42.703 -11.897   5.773  1.00  0.00     0.227 C 
ENDROOT
BRANCH   1   2
HETATM    2  N   UNL     1      41.755 -11.705   4.679  1.00  0.00    -0.348 N 
HETATM    3  C   UNL     1      42.177 -11.439   3.397  1.00  0.00     0.252 C 
HETATM    4  O   UNL     1      43.355 -11.213   3.136  1.00  0.00    -0.268 OA
HETATM    5  H   UNL     1      40.802 -12.001   4.844  1.00  0.00     0.163 HD
BRANCH   3   6
HETATM    6  C   UNL     1      41.145 -11.388   2.327  1.00  0.00     0.032 A 
HETATM    7  C   UNL     1      39.855 -11.902   2.506  1.00  0.00     0.020 A 
HETATM    8  C   UNL     1      38.895 -11.754   1.498  1.00  0.00     0.038 A 
HETATM    9  C   UNL     1      39.214 -11.078   0.319  1.00  0.00     0.068 A 
HETATM   10  C   UNL     1      40.510 -10.602   0.126  1.00  0.00     0.038 A 
HETATM   11  C   UNL     1      41.471 -10.744   1.129  1.00  0.00     0.020 A 
BRANCH   9  12
HETATM   12  O   UNL     1      38.344 -10.833  -0.707  1.00  0.00    -0.351 OA
BRANCH  12  13
HETATM   13  C   UNL     1      37.714 -11.982  -1.276  1.00  0.00     0.175 C 
BRANCH  13  14
HETATM   14  C   UNL     1      38.718 -12.706  -2.172  1.00  0.00     0.026 C 
BRANCH  14  15
HETATM   15  C   UNL     1      38.855 -14.190  -1.827  1.00  0.00    -0.002 C 
HETATM   16  C   UNL     1      39.994 -14.421  -0.845  1.00  0.00     0.005 C 
ENDBRANCH  14  15
ENDBRANCH  13  14
ENDBRANCH  12  13
ENDBRANCH   9  12
ENDBRANCH   3   6
ENDBRANCH   1   2
BRANCH   1  17
HETATM   17  C   UNL     1      43.399 -13.265   5.786  1.00  0.00     0.255 C 
HETATM   18  N   UNL     1      42.892 -14.154   4.852  1.00  0.00    -0.246 N 
HETATM   19  H   UNL     1      42.100 -13.865   4.269  1.00  0.00     0.192 HD
HETATM   20  O   UNL     1      44.249 -13.543   6.631  1.00  0.00    -0.270 OA
BRANCH  18  21
HETATM   21  N   UNL     1      43.365 -15.427   4.784  1.00  0.00    -0.184 NA
HETATM   22  C   UNL     1      42.783 -16.183   3.907  1.00  0.00     0.153 C 
BRANCH  22  23
HETATM   23  C   UNL     1      43.185 -17.593   3.739  1.00  0.00     0.016 A 
HETATM   24  C   UNL     1      43.747 -18.337   4.786  1.00  0.00     0.080 A 
HETATM   25  C   UNL     1      44.104 -19.670   4.593  1.00  0.00     0.074 A 
HETATM   26  C   UNL     1      43.901 -20.253   3.347  1.00  0.00     0.068 A 
HETATM   27  C   UNL     1      43.350 -19.527   2.295  1.00  0.00     0.037 A 
HETATM   28  C   UNL     1      42.987 -18.192   2.490  1.00  0.00     0.018 A 
BRANCH  24  29
HETATM   29  O   UNL     1      43.974 -17.823   6.035  1.00  0.00    -0.360 OA
HETATM   30  H   UNL     1      43.104 -17.604   6.442  1.00  0.00     0.217 HD
ENDBRANCH  24  29
BRANCH  26  31
HETATM   31  O   UNL     1      44.235 -21.555   3.110  1.00  0.00    -0.361 OA
HETATM   32  H   UNL     1      45.013 -21.571   2.527  1.00  0.00     0.217 HD
ENDBRANCH  26  31
ENDBRANCH  22  23
ENDBRANCH  18  21
ENDBRANCH   1  17
TORSDOF 11
ENDMDL
MODEL 10
REMARK VINA RESULT:      -6.7     10.155     13.163
REMARK  11 active torsions:
REMARK  status: ('A' for Active; 'I' for Inactive)
REMARK    1  A    between atoms: C_2  and  C_3 
REMARK    2  A    between atoms: C_3  and  C_4 
REMARK    3  A    between atoms: C_4  and  O_5 
REMARK    4  A    between atoms: O_5  and  C_6 
REMARK    5  A    between atoms: C_9  and  C_10 
REMARK       I    between atoms: C_10  and  N_11 
REMARK    6  A    between atoms: N_11  and  C_12 
REMARK    7  A    between atoms: C_12  and  C_13 
REMARK       I    between atoms: C_13  and  N_14 
REMARK    8  A    between atoms: N_14  and  N_15 
REMARK    9  A    between atoms: C_16  and  C_17 
REMARK   10  A    between atoms: C_18  and  O_19 
REMARK   11  A    between atoms: C_21  and  O_22 
ROOT
HETATM    1  C   UNL     1      44.742 -10.107   9.056  1.00  0.00     0.227 C 
ENDROOT
BRANCH   1   2
HETATM    2  N   UNL     1      43.901  -9.502  10.085  1.00  0.00    -0.348 N 
HETATM    3  C   UNL     1      43.623 -10.153  11.265  1.00  0.00     0.252 C 
HETATM    4  O   UNL     1      43.949 -11.322  11.453  1.00  0.00    -0.268 OA
HETATM    5  H   UNL     1      43.725  -8.510  10.005  1.00  0.00     0.163 HD
BRANCH   3   6
HETATM    6  C   UNL     1      42.866  -9.405  12.304  1.00  0.00     0.032 A 
HETATM    7  C   UNL     1      41.677  -9.891  12.861  1.00  0.00     0.020 A 
HETATM    8  C   UNL     1      41.048  -9.188  13.895  1.00  0.00     0.038 A 
HETATM    9  C   UNL     1      41.613  -8.010  14.388  1.00  0.00     0.068 A 
HETATM   10  C   UNL     1      42.776  -7.506  13.806  1.00  0.00     0.038 A 
HETATM   11  C   UNL     1      43.409  -8.205  12.776  1.00  0.00     0.020 A 
BRANCH   9  12
HETATM   12  O   UNL     1      41.113  -7.272  15.425  1.00  0.00    -0.351 OA
BRANCH  12  13
HETATM   13  C   UNL     1      41.291  -7.830  16.728  1.00  0.00     0.175 C 
BRANCH  13  14
HETATM   14  C   UNL     1      40.224  -7.262  17.662  1.00  0.00     0.026 C 
BRANCH  14  15
HETATM   15  C   UNL     1      40.199  -5.733  17.671  1.00  0.00    -0.002 C 
HETATM   16  C   UNL     1      41.505  -5.167  18.208  1.00  0.00     0.005 C 
ENDBRANCH  14  15
ENDBRANCH  13  14
ENDBRANCH  12  13
ENDBRANCH   9  12
ENDBRANCH   3   6
ENDBRANCH   1   2
BRANCH   1  17
HETATM   17  C   UNL     1      43.972 -10.750   7.895  1.00  0.00     0.255 C 
HETATM   18  N   UNL     1      44.499 -11.964   7.484  1.00  0.00    -0.246 N 
HETATM   19  H   UNL     1      45.347 -12.316   7.938  1.00  0.00     0.192 HD
HETATM   20  O   UNL     1      43.046 -10.162   7.337  1.00  0.00    -0.270 OA
BRANCH  18  21
HETATM   21  N   UNL     1      43.962 -12.626   6.424  1.00  0.00    -0.184 NA
HETATM   22  C   UNL     1      43.720 -13.882   6.627  1.00  0.00     0.153 C 
BRANCH  22  23
HETATM   23  C   UNL     1      43.154 -14.725   5.555  1.00  0.00     0.016 A 
HETATM   24  C   UNL     1      42.105 -14.284   4.737  1.00  0.00     0.080 A 
HETATM   25  C   UNL     1      41.605 -15.103   3.727  1.00  0.00     0.074 A 
HETATM   26  C   UNL     1      42.155 -16.368   3.543  1.00  0.00     0.068 A 
HETATM   27  C   UNL     1      43.194 -16.822   4.351  1.00  0.00     0.037 A 
HETATM   28  C   UNL     1      43.699 -15.999   5.360  1.00  0.00     0.018 A 
BRANCH  24  29
HETATM   29  O   UNL     1      41.518 -13.053   4.865  1.00  0.00    -0.360 OA
HETATM   30  H   UNL     1      42.210 -12.365   4.728  1.00  0.00     0.217 HD
ENDBRANCH  24  29
BRANCH  26  31
HETATM   31  O   UNL     1      41.699 -17.205   2.568  1.00  0.00    -0.361 OA
HETATM   32  H   UNL     1      40.824 -17.538   2.834  1.00  0.00     0.217 HD
ENDBRANCH  26  31
ENDBRANCH  22  23
ENDBRANCH  18  21
ENDBRANCH   1  17
TORSDOF 11
ENDMDL
