MODEL 1
REMARK VINA RESULT:      -9.7      0.000      0.000
REMARK  9 active torsions:
REMARK  status: ('A' for Active; 'I' for Inactive)
REMARK    1  A    between atoms: C_4  and  C_5 
REMARK    2  A    between atoms: C_5  and  N_6 
REMARK    3  A    between atoms: C_11  and  C_12 
REMARK       I    between atoms: C_12  and  N_13 
REMARK    4  A    between atoms: C_15  and  N_16 
REMARK       I    between atoms: N_16  and  C_17 
REMARK    5  A    between atoms: C_17  and  C_18 
REMARK    6  A    between atoms: C_18  and  C_19 
REMARK    7  A    between atoms: C_19  and  C_20 
REMARK    8  A    between atoms: C_20  and  S_21 
REMARK    9  A    between atoms: S_21  and  C_22 
ROOT
HETATM    1  N   UNL     1      41.770 -16.390   2.955  1.00  0.00    -0.063 N 
HETATM    2  H   UNL     1      41.167 -17.174   2.687  1.00  0.00     0.280 HD
HETATM    3  C   UNL     1      41.397 -16.056   4.398  1.00  0.00     0.282 C 
HETATM    4  C   UNL     1      41.856 -14.689   4.767  1.00  0.00     0.018 C 
HETATM    5  C   UNL     1      42.276 -13.717   3.880  1.00  0.00    -0.023 C 
HETATM    6  C   UNL     1      42.787 -12.555   4.570  1.00  0.00     0.073 C 
HETATM    7  C   UNL     1      42.452 -12.612   5.917  1.00  0.00     0.093 C 
HETATM    8  S   UNL     1      41.859 -14.143   6.369  1.00  0.00    -0.074 SA
HETATM    9  C   UNL     1      42.241 -13.953   2.394  1.00  0.00     0.068 C 
HETATM   10  C   UNL     1      41.435 -15.219   2.033  1.00  0.00     0.240 C 
ENDROOT
BRANCH   7  11
HETATM   11  N   UNL     1      42.605 -11.605   6.859  1.00  0.00    -0.320 N 
HETATM   12  C   UNL     1      43.760 -11.347   7.587  1.00  0.00     0.222 C 
HETATM   13  O   UNL     1      44.810 -11.975   7.534  1.00  0.00    -0.273 OA
HETATM   14  H   UNL     1      41.743 -11.228   7.242  1.00  0.00     0.169 HD
BRANCH  12  15
HETATM   15  C   UNL     1      43.588 -10.140   8.500  1.00  0.00     0.104 C 
BRANCH  15  16
HETATM   16  C   UNL     1      44.560 -10.119   9.678  1.00  0.00     0.020 C 
BRANCH  16  17
HETATM   17  C   UNL     1      43.986 -10.336  11.083  1.00  0.00     0.080 C 
BRANCH  17  18
HETATM   18  S   UNL     1      42.237  -9.879  11.352  1.00  0.00    -0.130 SA
BRANCH  18  19
HETATM   19  C   UNL     1      42.273  -8.922  12.858  1.00  0.00     0.000 A 
HETATM   20  C   UNL     1      41.410  -9.134  13.938  1.00  0.00     0.021 A 
HETATM   21  C   UNL     1      41.496  -8.329  15.078  1.00  0.00     0.043 A 
HETATM   22  C   UNL     1      42.460  -7.330  15.145  1.00  0.00     0.116 A 
HETATM   23  F   UNL     1      42.539  -6.559  16.236  1.00  0.00    -0.206 F 
HETATM   24  C   UNL     1      43.345  -7.125  14.097  1.00  0.00     0.043 A 
HETATM   25  C   UNL     1      43.253  -7.922  12.955  1.00  0.00     0.021 A 
ENDBRANCH  18  19
ENDBRANCH  17  18
ENDBRANCH  16  17
ENDBRANCH  15  16
ENDBRANCH  12  15
ENDBRANCH   7  11
BRANCH   6  26
HETATM   26  C   UNL     1      43.476 -11.443   3.922  1.00  0.00     0.252 C 
HETATM   27  N   UNL     1      42.674 -10.469   3.395  1.00  0.00    -0.366 N 
HETATM   28  H   UNL     1      41.744 -10.330   3.773  1.00  0.00     0.159 HD
HETATM   29  H   UNL     1      43.163  -9.626   3.113  1.00  0.00     0.159 HD
HETATM   30  O   UNL     1      44.695 -11.328   3.920  1.00  0.00    -0.268 OA
ENDBRANCH   6  26
BRANCH   1  31
HETATM   31  C   UNL     1      43.192 -16.867   2.761  1.00  0.00     0.273 C 
BRANCH  31  32
HETATM   32  C   UNL     1      43.458 -18.309   3.095  1.00  0.00    -0.033 A 
HETATM   33  C   UNL     1      43.260 -19.337   2.162  1.00  0.00     0.009 A 
HETATM   34  C   UNL     1      43.547 -20.660   2.502  1.00  0.00     0.001 A 
HETATM   35  C   UNL     1      44.051 -20.968   3.763  1.00  0.00     0.000 A 
HETATM   36  C   UNL     1      44.271 -19.955   4.692  1.00  0.00     0.001 A 
HETATM   37  C   UNL     1      43.976 -18.634   4.361  1.00  0.00     0.009 A 
ENDBRANCH  31  32
ENDBRANCH   1  31
TORSDOF 9
ENDMDL
MODEL 2
REMARK VINA RESULT:      -9.2      3.020      4.122
REMARK  9 active torsions:
REMARK  status: ('A' for Active; 'I' for Inactive)
REMARK    1  A    between atoms: C_4  and  C_5 
REMARK    2  A    between atoms: C_5  and  N_6 
REMARK    3  A    between atoms: C_11  and  C_12 
REMARK       I    between atoms: C_12  and  N_13 
REMARK    4  A    between atoms: C_15  and  N_16 
REMARK       I    between atoms: N_16  and  C_17 
REMARK    5  A    between atoms: C_17  and  C_18 
REMARK    6  A    between atoms: C_18  and  C_19 
REMARK    7  A    between atoms: C_19  and  C_20 
REMARK    8  A    between atoms: C_20  and  S_21 
REMARK    9  A    between atoms: S_21  and  C_22 
ROOT
HETATM    1  N   UNL     1      41.861 -16.321   3.021  1.00  0.00    -0.063 N 
HETATM    2  H   UNL     1      41.405 -17.156   2.643  1.00  0.00     0.280 HD
HETATM    3  C   UNL     1      40.999 -15.878   4.202  1.00  0.00     0.282 C 
HETATM    4  C   UNL     1      41.274 -14.461   4.565  1.00  0.00     0.018 C 
HETATM    5  C   UNL     1      41.959 -13.551   3.784  1.00  0.00    -0.023 C 
HETATM    6  C   UNL     1      42.174 -12.306   4.484  1.00  0.00     0.073 C 
HETATM    7  C   UNL     1      41.388 -12.260   5.629  1.00  0.00     0.093 C 
HETATM    8  S   UNL     1      40.703 -13.773   6.002  1.00  0.00    -0.074 SA
HETATM    9  C   UNL     1      42.453 -13.921   2.411  1.00  0.00     0.068 C 
HETATM   10  C   UNL     1      41.849 -15.256   1.925  1.00  0.00     0.240 C 
ENDROOT
BRANCH   7  11
HETATM   11  N   UNL     1      41.182 -11.166   6.457  1.00  0.00    -0.320 N 
HETATM   12  C   UNL     1      40.139 -10.255   6.349  1.00  0.00     0.222 C 
HETATM   13  O   UNL     1      39.257 -10.253   5.499  1.00  0.00    -0.273 OA
HETATM   14  H   UNL     1      41.993 -10.855   6.983  1.00  0.00     0.169 HD
BRANCH  12  15
HETATM   15  C   UNL     1      40.197  -9.205   7.452  1.00  0.00     0.104 C 
BRANCH  15  16
HETATM   16  C   UNL     1      41.569  -9.084   8.112  1.00  0.00     0.020 C 
BRANCH  16  17
HETATM   17  C   UNL     1      41.616  -8.837   9.624  1.00  0.00     0.080 C 
BRANCH  17  18
HETATM   18  S   UNL     1      43.098  -9.419  10.522  1.00  0.00    -0.130 SA
BRANCH  18  19
HETATM   19  C   UNL     1      44.168 -10.025   9.229  1.00  0.00     0.000 A 
HETATM   20  C   UNL     1      43.936 -11.203   8.512  1.00  0.00     0.021 A 
HETATM   21  C   UNL     1      44.833 -11.615   7.521  1.00  0.00     0.043 A 
HETATM   22  C   UNL     1      45.947 -10.835   7.233  1.00  0.00     0.116 A 
HETATM   23  F   UNL     1      46.806 -11.232   6.286  1.00  0.00    -0.206 F 
HETATM   24  C   UNL     1      46.177  -9.647   7.911  1.00  0.00     0.043 A 
HETATM   25  C   UNL     1      45.287  -9.241   8.906  1.00  0.00     0.021 A 
ENDBRANCH  18  19
ENDBRANCH  17  18
ENDBRANCH  16  17
ENDBRANCH  15  16
ENDBRANCH  12  15
ENDBRANCH   7  11
BRANCH   6  26
HETATM   26  C   UNL     1      43.026 -11.221   4.005  1.00  0.00     0.252 C 
HETATM   27  N   UNL     1      42.377 -10.158   3.441  1.00  0.00    -0.366 N 
HETATM   28  H   UNL     1      41.417  -9.963   3.702  1.00  0.00     0.159 HD
HETATM   29  H   UNL     1      42.961  -9.345   3.281  1.00  0.00     0.159 HD
HETATM   30  O   UNL     1      44.239 -11.207   4.171  1.00  0.00    -0.268 OA
ENDBRANCH   6  26
BRANCH   1  31
HETATM   31  C   UNL     1      43.270 -16.735   3.384  1.00  0.00     0.273 C 
BRANCH  31  32
HETATM   32  C   UNL     1      43.538 -18.215   3.408  1.00  0.00    -0.033 A 
HETATM   33  C   UNL     1      44.074 -18.856   4.535  1.00  0.00     0.009 A 
HETATM   34  C   UNL     1      44.279 -20.236   4.527  1.00  0.00     0.001 A 
HETATM   35  C   UNL     1      43.936 -20.992   3.408  1.00  0.00     0.000 A 
HETATM   36  C   UNL     1      43.386 -20.372   2.291  1.00  0.00     0.001 A 
HETATM   37  C   UNL     1      43.188 -18.992   2.289  1.00  0.00     0.009 A 
ENDBRANCH  31  32
ENDBRANCH   1  31
TORSDOF 9
ENDMDL
MODEL 3
REMARK VINA RESULT:      -9.1      1.668      2.148
REMARK  9 active torsions:
REMARK  status: ('A' for Active; 'I' for Inactive)
REMARK    1  A    between atoms: C_4  and  C_5 
REMARK    2  A    between atoms: C_5  and  N_6 
REMARK    3  A    between atoms: C_11  and  C_12 
REMARK       I    between atoms: C_12  and  N_13 
REMARK    4  A    between atoms: C_15  and  N_16 
REMARK       I    between atoms: N_16  and  C_17 
REMARK    5  A    between atoms: C_17  and  C_18 
REMARK    6  A    between atoms: C_18  and  C_19 
REMARK    7  A    between atoms: C_19  and  C_20 
REMARK    8  A    between atoms: C_20  and  S_21 
REMARK    9  A    between atoms: S_21  and  C_22 
ROOT
HETATM    1  N   UNL     1      41.795 -16.429   4.168  1.00  0.00    -0.063 N 
HETATM    2  H   UNL     1      41.190 -17.253   4.224  1.00  0.00     0.280 HD
HETATM    3  C   UNL     1      42.175 -16.097   5.610  1.00  0.00     0.282 C 
HETATM    4  C   UNL     1      42.670 -14.697   5.725  1.00  0.00     0.018 C 
HETATM    5  C   UNL     1      42.526 -13.714   4.766  1.00  0.00    -0.023 C 
HETATM    6  C   UNL     1      43.239 -12.512   5.128  1.00  0.00     0.073 C 
HETATM    7  C   UNL     1      43.629 -12.570   6.460  1.00  0.00     0.093 C 
HETATM    8  S   UNL     1      43.441 -14.128   7.119  1.00  0.00    -0.074 SA
HETATM    9  C   UNL     1      41.766 -13.974   3.493  1.00  0.00     0.068 C 
HETATM   10  C   UNL     1      40.969 -15.295   3.561  1.00  0.00     0.240 C 
ENDROOT
BRANCH   7  11
HETATM   11  N   UNL     1      44.170 -11.541   7.218  1.00  0.00    -0.320 N 
HETATM   12  C   UNL     1      45.466 -11.053   7.112  1.00  0.00     0.222 C 
HETATM   13  O   UNL     1      46.341 -11.465   6.360  1.00  0.00    -0.273 OA
HETATM   14  H   UNL     1      43.685 -11.334   8.087  1.00  0.00     0.169 HD
BRANCH  12  15
HETATM   15  C   UNL     1      45.707  -9.892   8.068  1.00  0.00     0.104 C 
BRANCH  15  16
HETATM   16  C   UNL     1      44.437  -9.383   8.748  1.00  0.00     0.020 C 
BRANCH  16  17
HETATM   17  C   UNL     1      44.452  -9.238  10.275  1.00  0.00     0.080 C 
BRANCH  17  18
HETATM   18  S   UNL     1      43.650 -10.561  11.248  1.00  0.00    -0.130 SA
BRANCH  18  19
HETATM   19  C   UNL     1      42.086  -9.848  11.729  1.00  0.00     0.000 A 
HETATM   20  C   UNL     1      41.117  -9.409  10.821  1.00  0.00     0.021 A 
HETATM   21  C   UNL     1      39.921  -8.848  11.281  1.00  0.00     0.043 A 
HETATM   22  C   UNL     1      39.687  -8.751  12.647  1.00  0.00     0.116 A 
HETATM   23  F   UNL     1      38.543  -8.212  13.086  1.00  0.00    -0.206 F 
HETATM   24  C   UNL     1      40.622  -9.210  13.563  1.00  0.00     0.043 A 
HETATM   25  C   UNL     1      41.820  -9.760  13.104  1.00  0.00     0.021 A 
ENDBRANCH  18  19
ENDBRANCH  17  18
ENDBRANCH  16  17
ENDBRANCH  15  16
ENDBRANCH  12  15
ENDBRANCH   7  11
BRANCH   6  26
HETATM   26  C   UNL     1      43.439 -11.367   4.244  1.00  0.00     0.252 C 
HETATM   27  N   UNL     1      42.512 -10.366   4.344  1.00  0.00    -0.366 N 
HETATM   28  H   UNL     1      41.999 -10.247   5.209  1.00  0.00     0.159 HD
HETATM   29  H   UNL     1      42.762  -9.511   3.860  1.00  0.00     0.159 HD
HETATM   30  O   UNL     1      44.417 -11.254   3.516  1.00  0.00    -0.268 OA
ENDBRANCH   6  26
BRANCH   1  31
HETATM   31  C   UNL     1      42.955 -16.815   3.278  1.00  0.00     0.273 C 
BRANCH  31  32
HETATM   32  C   UNL     1      43.346 -18.267   3.295  1.00  0.00    -0.033 A 
HETATM   33  C   UNL     1      43.894 -18.877   4.434  1.00  0.00     0.009 A 
HETATM   34  C   UNL     1      44.215 -20.235   4.418  1.00  0.00     0.001 A 
HETATM   35  C   UNL     1      43.977 -21.001   3.280  1.00  0.00     0.000 A 
HETATM   36  C   UNL     1      43.416 -20.414   2.150  1.00  0.00     0.001 A 
HETATM   37  C   UNL     1      43.103 -19.055   2.157  1.00  0.00     0.009 A 
ENDBRANCH  31  32
ENDBRANCH   1  31
TORSDOF 9
ENDMDL
MODEL 4
REMARK VINA RESULT:      -9.0      3.693     10.596
REMARK  9 active torsions:
REMARK  status: ('A' for Active; 'I' for Inactive)
REMARK    1  A    between atoms: C_4  and  C_5 
REMARK    2  A    between atoms: C_5  and  N_6 
REMARK    3  A    between atoms: C_11  and  C_12 
REMARK       I    between atoms: C_12  and  N_13 
REMARK    4  A    between atoms: C_15  and  N_16 
REMARK       I    between atoms: N_16  and  C_17 
REMARK    5  A    between atoms: C_17  and  C_18 
REMARK    6  A    between atoms: C_18  and  C_19 
REMARK    7  A    between atoms: C_19  and  C_20 
REMARK    8  A    between atoms: C_20  and  S_21 
REMARK    9  A    between atoms: S_21  and  C_22 
ROOT
HETATM    1  N   UNL     1      44.219  -9.369   9.753  1.00  0.00    -0.063 N 
HETATM    2  H   UNL     1      44.852  -8.732  10.247  1.00  0.00     0.280 HD
HETATM    3  C   UNL     1      45.097 -10.144   8.773  1.00  0.00     0.282 C 
HETATM    4  C   UNL     1      44.277 -10.769   7.698  1.00  0.00     0.018 C 
HETATM    5  C   UNL     1      42.963 -10.460   7.410  1.00  0.00    -0.023 C 
HETATM    6  C   UNL     1      42.419 -11.343   6.404  1.00  0.00     0.073 C 
HETATM    7  C   UNL     1      43.439 -12.065   5.799  1.00  0.00     0.093 C 
HETATM    8  S   UNL     1      44.913 -11.927   6.641  1.00  0.00    -0.074 SA
HETATM    9  C   UNL     1      42.238  -9.370   8.154  1.00  0.00     0.068 C 
HETATM   10  C   UNL     1      43.205  -8.511   8.996  1.00  0.00     0.240 C 
ENDROOT
BRANCH   7  11
HETATM   11  N   UNL     1      43.339 -12.873   4.676  1.00  0.00    -0.320 N 
HETATM   12  C   UNL     1      43.328 -12.431   3.359  1.00  0.00     0.222 C 
HETATM   13  O   UNL     1      43.378 -11.267   2.981  1.00  0.00    -0.273 OA
HETATM   14  H   UNL     1      42.964 -13.804   4.837  1.00  0.00     0.169 HD
BRANCH  12  15
HETATM   15  C   UNL     1      43.249 -13.594   2.378  1.00  0.00     0.104 C 
BRANCH  15  16
HETATM   16  C   UNL     1      41.947 -13.637   1.581  1.00  0.00     0.020 C 
BRANCH  16  17
HETATM   17  C   UNL     1      41.028 -14.849   1.777  1.00  0.00     0.080 C 
BRANCH  17  18
HETATM   18  S   UNL     1      40.676 -15.363   3.495  1.00  0.00    -0.130 SA
BRANCH  18  19
HETATM   19  C   UNL     1      41.969 -16.538   3.862  1.00  0.00     0.000 A 
HETATM   20  C   UNL     1      42.420 -16.823   5.155  1.00  0.00     0.021 A 
HETATM   21  C   UNL     1      43.449 -17.749   5.354  1.00  0.00     0.043 A 
HETATM   22  C   UNL     1      44.006 -18.406   4.263  1.00  0.00     0.116 A 
HETATM   23  F   UNL     1      44.992 -19.290   4.457  1.00  0.00    -0.206 F 
HETATM   24  C   UNL     1      43.550 -18.160   2.977  1.00  0.00     0.043 A 
HETATM   25  C   UNL     1      42.530 -17.228   2.777  1.00  0.00     0.021 A 
ENDBRANCH  18  19
ENDBRANCH  17  18
ENDBRANCH  16  17
ENDBRANCH  15  16
ENDBRANCH  12  15
ENDBRANCH   7  11
BRANCH   6  26
HETATM   26  C   UNL     1      41.011 -11.397   6.023  1.00  0.00     0.252 C 
HETATM   27  N   UNL     1      40.279 -12.410   6.579  1.00  0.00    -0.366 N 
HETATM   28  H   UNL     1      40.575 -12.813   7.461  1.00  0.00     0.159 HD
HETATM   29  H   UNL     1      39.277 -12.327   6.449  1.00  0.00     0.159 HD
HETATM   30  O   UNL     1      40.480 -10.545   5.321  1.00  0.00    -0.268 OA
ENDBRANCH   6  26
BRANCH   1  31
HETATM   31  C   UNL     1      43.554 -10.214  10.816  1.00  0.00     0.273 C 
BRANCH  31  32
HETATM   32  C   UNL     1      43.007  -9.473  12.004  1.00  0.00    -0.033 A 
HETATM   33  C   UNL     1      41.927  -9.962  12.754  1.00  0.00     0.009 A 
HETATM   34  C   UNL     1      41.469  -9.258  13.869  1.00  0.00     0.001 A 
HETATM   35  C   UNL     1      42.091  -8.074  14.258  1.00  0.00     0.000 A 
HETATM   36  C   UNL     1      43.176  -7.588  13.534  1.00  0.00     0.001 A 
HETATM   37  C   UNL     1      43.631  -8.281  12.414  1.00  0.00     0.009 A 
ENDBRANCH  31  32
ENDBRANCH   1  31
TORSDOF 9
ENDMDL
MODEL 5
REMARK VINA RESULT:      -8.9      2.957      3.897
REMARK  9 active torsions:
REMARK  status: ('A' for Active; 'I' for Inactive)
REMARK    1  A    between atoms: C_4  and  C_5 
REMARK    2  A    between atoms: C_5  and  N_6 
REMARK    3  A    between atoms: C_11  and  C_12 
REMARK       I    between atoms: C_12  and  N_13 
REMARK    4  A    between atoms: C_15  and  N_16 
REMARK       I    between atoms: N_16  and  C_17 
REMARK    5  A    between atoms: C_17  and  C_18 
REMARK    6  A    between atoms: C_18  and  C_19 
REMARK    7  A    between atoms: C_19  and  C_20 
REMARK    8  A    between atoms: C_20  and  S_21 
REMARK    9  A    between atoms: S_21  and  C_22 
ROOT
HETATM    1  N   UNL     1      43.597 -16.577   6.009  1.00  0.00    -0.063 N 
HETATM    2  H   UNL     1      44.122 -17.353   6.421  1.00  0.00     0.280 HD
HETATM    3  C   UNL     1      44.220 -15.306   6.583  1.00  0.00     0.282 C 
HETATM    4  C   UNL     1      43.301 -14.143   6.433  1.00  0.00     0.018 C 
HETATM    5  C   UNL     1      41.958 -14.218   6.118  1.00  0.00    -0.023 C 
HETATM    6  C   UNL     1      41.389 -12.907   5.911  1.00  0.00     0.073 C 
HETATM    7  C   UNL     1      42.264 -11.928   6.364  1.00  0.00     0.093 C 
HETATM    8  S   UNL     1      43.812 -12.552   6.697  1.00  0.00    -0.074 SA
HETATM    9  C   UNL     1      41.270 -15.547   5.956  1.00  0.00     0.068 C 
HETATM   10  C   UNL     1      42.145 -16.712   6.465  1.00  0.00     0.240 C 
ENDROOT
BRANCH   7  11
HETATM   11  N   UNL     1      42.002 -10.572   6.502  1.00  0.00    -0.320 N 
HETATM   12  C   UNL     1      41.883  -9.661   5.461  1.00  0.00     0.222 C 
HETATM   13  O   UNL     1      42.016  -9.898   4.266  1.00  0.00    -0.273 OA
HETATM   14  H   UNL     1      42.196 -10.180   7.419  1.00  0.00     0.169 HD
BRANCH  12  15
HETATM   15  C   UNL     1      41.551  -8.265   5.973  1.00  0.00     0.104 C 
BRANCH  15  16
HETATM   16  C   UNL     1      40.470  -8.250   7.053  1.00  0.00     0.020 C 
BRANCH  16  17
HETATM   17  C   UNL     1      40.749  -7.453   8.333  1.00  0.00     0.080 C 
BRANCH  17  18
HETATM   18  S   UNL     1      42.361  -6.599   8.451  1.00  0.00    -0.130 SA
BRANCH  18  19
HETATM   19  C   UNL     1      43.447  -7.834   9.145  1.00  0.00     0.000 A 
HETATM   20  C   UNL     1      44.528  -8.396   8.458  1.00  0.00     0.021 A 
HETATM   21  C   UNL     1      45.324  -9.370   9.071  1.00  0.00     0.043 A 
HETATM   22  C   UNL     1      45.051  -9.761  10.376  1.00  0.00     0.116 A 
HETATM   23  F   UNL     1      45.812 -10.695  10.960  1.00  0.00    -0.206 F 
HETATM   24  C   UNL     1      44.002  -9.193  11.084  1.00  0.00     0.043 A 
HETATM   25  C   UNL     1      43.202  -8.228  10.470  1.00  0.00     0.021 A 
ENDBRANCH  18  19
ENDBRANCH  17  18
ENDBRANCH  16  17
ENDBRANCH  15  16
ENDBRANCH  12  15
ENDBRANCH   7  11
BRANCH   6  26
HETATM   26  C   UNL     1      40.050 -12.658   5.384  1.00  0.00     0.252 C 
HETATM   27  N   UNL     1      39.971 -12.433   4.037  1.00  0.00    -0.366 N 
HETATM   28  H   UNL     1      40.688 -12.805   3.426  1.00  0.00     0.159 HD
HETATM   29  H   UNL     1      39.028 -12.442   3.664  1.00  0.00     0.159 HD
HETATM   30  O   UNL     1      39.041 -12.732   6.074  1.00  0.00    -0.268 OA
ENDBRANCH   6  26
BRANCH   1  31
HETATM   31  C   UNL     1      43.729 -16.726   4.509  1.00  0.00     0.273 C 
BRANCH  31  32
HETATM   32  C   UNL     1      43.695 -18.133   3.980  1.00  0.00    -0.033 A 
HETATM   33  C   UNL     1      43.307 -18.424   2.664  1.00  0.00     0.009 A 
HETATM   34  C   UNL     1      43.318 -19.741   2.202  1.00  0.00     0.001 A 
HETATM   35  C   UNL     1      43.733 -20.776   3.037  1.00  0.00     0.000 A 
HETATM   36  C   UNL     1      44.139 -20.499   4.339  1.00  0.00     0.001 A 
HETATM   37  C   UNL     1      44.120 -19.187   4.809  1.00  0.00     0.009 A 
ENDBRANCH  31  32
ENDBRANCH   1  31
TORSDOF 9
ENDMDL
MODEL 6
REMARK VINA RESULT:      -8.5      2.803      3.913
REMARK  9 active torsions:
REMARK  status: ('A' for Active; 'I' for Inactive)
REMARK    1  A    between atoms: C_4  and  C_5 
REMARK    2  A    between atoms: C_5  and  N_6 
REMARK    3  A    between atoms: C_11  and  C_12 
REMARK       I    between atoms: C_12  and  N_13 
REMARK    4  A    between atoms: C_15  and  N_16 
REMARK       I    between atoms: N_16  and  C_17 
REMARK    5  A    between atoms: C_17  and  C_18 
REMARK    6  A    between atoms: C_18  and  C_19 
REMARK    7  A    between atoms: C_19  and  C_20 
REMARK    8  A    between atoms: C_20  and  S_21 
REMARK    9  A    between atoms: S_21  and  C_22 
ROOT
HETATM    1  N   UNL     1      40.920 -14.740   2.907  1.00  0.00    -0.063 N 
HETATM    2  H   UNL     1      40.619 -15.116   2.003  1.00  0.00     0.280 HD
HETATM    3  C   UNL     1      39.895 -13.668   3.271  1.00  0.00     0.282 C 
HETATM    4  C   UNL     1      40.430 -12.745   4.309  1.00  0.00     0.018 C 
HETATM    5  C   UNL     1      41.755 -12.641   4.684  1.00  0.00    -0.023 C 
HETATM    6  C   UNL     1      41.919 -11.755   5.814  1.00  0.00     0.073 C 
HETATM    7  C   UNL     1      40.753 -11.031   6.027  1.00  0.00     0.093 C 
HETATM    8  S   UNL     1      39.441 -11.644   5.130  1.00  0.00    -0.074 SA
HETATM    9  C   UNL     1      42.824 -13.447   3.996  1.00  0.00     0.068 C 
HETATM   10  C   UNL     1      42.299 -14.112   2.705  1.00  0.00     0.240 C 
ENDROOT
BRANCH   7  11
HETATM   11  N   UNL     1      40.580  -9.961   6.893  1.00  0.00    -0.320 N 
HETATM   12  C   UNL     1      39.623  -9.879   7.897  1.00  0.00     0.222 C 
HETATM   13  O   UNL     1      38.769 -10.717   8.160  1.00  0.00    -0.273 OA
HETATM   14  H   UNL     1      40.983  -9.080   6.587  1.00  0.00     0.169 HD
BRANCH  12  15
HETATM   15  C   UNL     1      39.748  -8.581   8.684  1.00  0.00     0.104 C 
BRANCH  15  16
HETATM   16  C   UNL     1      40.362  -8.762  10.072  1.00  0.00     0.020 C 
BRANCH  16  17
HETATM   17  C   UNL     1      40.376  -7.549  11.011  1.00  0.00     0.080 C 
BRANCH  17  18
HETATM   18  S   UNL     1      41.986  -6.734  11.299  1.00  0.00    -0.130 SA
BRANCH  18  19
HETATM   19  C   UNL     1      43.165  -7.838  10.541  1.00  0.00     0.000 A 
HETATM   20  C   UNL     1      43.697  -7.653   9.261  1.00  0.00     0.021 A 
HETATM   21  C   UNL     1      44.608  -8.575   8.734  1.00  0.00     0.043 A 
HETATM   22  C   UNL     1      45.002  -9.666   9.499  1.00  0.00     0.116 A 
HETATM   23  F   UNL     1      45.872 -10.549   8.992  1.00  0.00    -0.206 F 
HETATM   24  C   UNL     1      44.511  -9.850  10.783  1.00  0.00     0.043 A 
HETATM   25  C   UNL     1      43.594  -8.936  11.304  1.00  0.00     0.021 A 
ENDBRANCH  18  19
ENDBRANCH  17  18
ENDBRANCH  16  17
ENDBRANCH  15  16
ENDBRANCH  12  15
ENDBRANCH   7  11
BRANCH   6  26
HETATM   26  C   UNL     1      43.162 -11.585   6.560  1.00  0.00     0.252 C 
HETATM   27  N   UNL     1      43.404 -12.512   7.536  1.00  0.00    -0.366 N 
HETATM   28  H   UNL     1      42.984 -13.431   7.466  1.00  0.00     0.159 HD
HETATM   29  H   UNL     1      44.344 -12.487   7.917  1.00  0.00     0.159 HD
HETATM   30  O   UNL     1      43.990 -10.726   6.284  1.00  0.00    -0.268 OA
ENDBRANCH   6  26
BRANCH   1  31
HETATM   31  C   UNL     1      40.974 -15.915   3.857  1.00  0.00     0.273 C 
BRANCH  31  32
HETATM   32  C   UNL     1      42.119 -16.871   3.662  1.00  0.00    -0.033 A 
HETATM   33  C   UNL     1      43.072 -17.105   4.665  1.00  0.00     0.009 A 
HETATM   34  C   UNL     1      44.102 -18.023   4.456  1.00  0.00     0.001 A 
HETATM   35  C   UNL     1      44.183 -18.728   3.258  1.00  0.00     0.000 A 
HETATM   36  C   UNL     1      43.233 -18.520   2.262  1.00  0.00     0.001 A 
HETATM   37  C   UNL     1      42.208 -17.597   2.462  1.00  0.00     0.009 A 
ENDBRANCH  31  32
ENDBRANCH   1  31
TORSDOF 9
ENDMDL
MODEL 7
REMARK VINA RESULT:      -8.2      4.006     11.139
REMARK  9 active torsions:
REMARK  status: ('A' for Active; 'I' for Inactive)
REMARK    1  A    between atoms: C_4  and  C_5 
REMARK    2  A    between atoms: C_5  and  N_6 
REMARK    3  A    between atoms: C_11  and  C_12 
REMARK       I    between atoms: C_12  and  N_13 
REMARK    4  A    between atoms: C_15  and  N_16 
REMARK       I    between atoms: N_16  and  C_17 
REMARK    5  A    between atoms: C_17  and  C_18 
REMARK    6  A    between atoms: C_18  and  C_19 
REMARK    7  A    between atoms: C_19  and  C_20 
REMARK    8  A    between atoms: C_20  and  S_21 
REMARK    9  A    between atoms: S_21  and  C_22 
ROOT
HETATM    1  N   UNL     1      43.462  -8.885   9.683  1.00  0.00    -0.063 N 
HETATM    2  H   UNL     1      44.216  -8.383  10.160  1.00  0.00     0.280 HD
HETATM    3  C   UNL     1      44.128  -9.629   8.527  1.00  0.00     0.282 C 
HETATM    4  C   UNL     1      43.126 -10.032   7.501  1.00  0.00     0.018 C 
HETATM    5  C   UNL     1      41.835  -9.552   7.410  1.00  0.00    -0.023 C 
HETATM    6  C   UNL     1      41.082 -10.248   6.392  1.00  0.00     0.073 C 
HETATM    7  C   UNL     1      41.936 -10.998   5.594  1.00  0.00     0.093 C 
HETATM    8  S   UNL     1      43.499 -11.118   6.258  1.00  0.00    -0.074 SA
HETATM    9  C   UNL     1      41.332  -8.487   8.347  1.00  0.00     0.068 C 
HETATM   10  C   UNL     1      42.481  -7.841   9.150  1.00  0.00     0.240 C 
ENDROOT
BRANCH   7  11
HETATM   11  N   UNL     1      41.617 -11.653   4.413  1.00  0.00    -0.320 N 
HETATM   12  C   UNL     1      40.883 -12.828   4.311  1.00  0.00     0.222 C 
HETATM   13  O   UNL     1      40.428 -13.485   5.240  1.00  0.00    -0.273 OA
HETATM   14  H   UNL     1      42.194 -11.416   3.611  1.00  0.00     0.169 HD
BRANCH  12  15
HETATM   15  C   UNL     1      40.685 -13.241   2.858  1.00  0.00     0.104 C 
BRANCH  15  16
HETATM   16  C   UNL     1      41.888 -13.967   2.258  1.00  0.00     0.020 C 
BRANCH  16  17
HETATM   17  C   UNL     1      42.352 -15.263   2.934  1.00  0.00     0.080 C 
BRANCH  17  18
HETATM   18  S   UNL     1      43.078 -16.552   1.861  1.00  0.00    -0.130 SA
BRANCH  18  19
HETATM   19  C   UNL     1      43.488 -17.868   2.994  1.00  0.00     0.000 A 
HETATM   20  C   UNL     1      43.743 -17.674   4.356  1.00  0.00     0.021 A 
HETATM   21  C   UNL     1      44.071 -18.760   5.174  1.00  0.00     0.043 A 
HETATM   22  C   UNL     1      44.121 -20.039   4.634  1.00  0.00     0.116 A 
HETATM   23  F   UNL     1      44.438 -21.077   5.419  1.00  0.00    -0.206 F 
HETATM   24  C   UNL     1      43.841 -20.256   3.293  1.00  0.00     0.043 A 
HETATM   25  C   UNL     1      43.522 -19.171   2.474  1.00  0.00     0.021 A 
ENDBRANCH  18  19
ENDBRANCH  17  18
ENDBRANCH  16  17
ENDBRANCH  15  16
ENDBRANCH  12  15
ENDBRANCH   7  11
BRANCH   6  26
HETATM   26  C   UNL     1      39.644 -10.106   6.182  1.00  0.00     0.252 C 
HETATM   27  N   UNL     1      38.861 -11.083   6.732  1.00  0.00    -0.366 N 
HETATM   28  H   UNL     1      39.201 -11.603   7.533  1.00  0.00     0.159 HD
HETATM   29  H   UNL     1      37.868 -10.876   6.733  1.00  0.00     0.159 HD
HETATM   30  O   UNL     1      39.147  -9.134   5.628  1.00  0.00    -0.268 OA
ENDBRANCH   6  26
BRANCH   1  31
HETATM   31  C   UNL     1      42.821  -9.775  10.725  1.00  0.00     0.273 C 
BRANCH  31  32
HETATM   32  C   UNL     1      42.573  -9.146  12.068  1.00  0.00    -0.033 A 
HETATM   33  C   UNL     1      41.553  -9.593  12.922  1.00  0.00     0.009 A 
HETATM   34  C   UNL     1      41.375  -9.002  14.174  1.00  0.00     0.001 A 
HETATM   35  C   UNL     1      42.220  -7.978  14.595  1.00  0.00     0.000 A 
HETATM   36  C   UNL     1      43.248  -7.539  13.766  1.00  0.00     0.001 A 
HETATM   37  C   UNL     1      43.424  -8.118  12.511  1.00  0.00     0.009 A 
ENDBRANCH  31  32
ENDBRANCH   1  31
TORSDOF 9
ENDMDL
MODEL 8
REMARK VINA RESULT:      -8.1      4.242     12.271
REMARK  9 active torsions:
REMARK  status: ('A' for Active; 'I' for Inactive)
REMARK    1  A    between atoms: C_4  and  C_5 
REMARK    2  A    between atoms: C_5  and  N_6 
REMARK    3  A    between atoms: C_11  and  C_12 
REMARK       I    between atoms: C_12  and  N_13 
REMARK    4  A    between atoms: C_15  and  N_16 
REMARK       I    between atoms: N_16  and  C_17 
REMARK    5  A    between atoms: C_17  and  C_18 
REMARK    6  A    between atoms: C_18  and  C_19 
REMARK    7  A    between atoms: C_19  and  C_20 
REMARK    8  A    between atoms: C_20  and  S_21 
REMARK    9  A    between atoms: S_21  and  C_22 
ROOT
HETATM    1  N   UNL     1      42.351  -6.987  13.042  1.00  0.00    -0.063 N 
HETATM    2  H   UNL     1      42.731  -6.443  13.822  1.00  0.00     0.280 HD
HETATM    3  C   UNL     1      43.373  -8.089  12.771  1.00  0.00     0.282 C 
HETATM    4  C   UNL     1      43.187  -8.671  11.413  1.00  0.00     0.018 C 
HETATM    5  C   UNL     1      42.428  -8.117  10.400  1.00  0.00    -0.023 C 
HETATM    6  C   UNL     1      42.342  -9.000   9.260  1.00  0.00     0.073 C 
HETATM    7  C   UNL     1      43.273 -10.024   9.376  1.00  0.00     0.093 C 
HETATM    8  S   UNL     1      43.961 -10.097  10.931  1.00  0.00    -0.074 SA
HETATM    9  C   UNL     1      41.747  -6.787  10.577  1.00  0.00     0.068 C 
HETATM   10  C   UNL     1      42.246  -6.051  11.839  1.00  0.00     0.240 C 
ENDROOT
BRANCH   7  11
HETATM   11  N   UNL     1      43.617 -10.955   8.405  1.00  0.00    -0.320 N 
HETATM   12  C   UNL     1      44.739 -10.897   7.589  1.00  0.00     0.222 C 
HETATM   13  O   UNL     1      45.585 -10.010   7.575  1.00  0.00    -0.273 OA
HETATM   14  H   UNL     1      42.860 -11.549   8.081  1.00  0.00     0.169 HD
BRANCH  12  15
HETATM   15  C   UNL     1      44.826 -12.107   6.669  1.00  0.00     0.104 C 
BRANCH  15  16
HETATM   16  C   UNL     1      43.754 -13.162   6.940  1.00  0.00     0.020 C 
BRANCH  16  17
HETATM   17  C   UNL     1      43.561 -14.270   5.898  1.00  0.00     0.080 C 
BRANCH  17  18
HETATM   18  S   UNL     1      43.961 -15.978   6.410  1.00  0.00    -0.130 SA
BRANCH  18  19
HETATM   19  C   UNL     1      43.679 -16.942   4.936  1.00  0.00     0.000 A 
HETATM   20  C   UNL     1      42.829 -16.548   3.896  1.00  0.00     0.021 A 
HETATM   21  C   UNL     1      42.653 -17.371   2.779  1.00  0.00     0.043 A 
HETATM   22  C   UNL     1      43.345 -18.573   2.692  1.00  0.00     0.116 A 
HETATM   23  F   UNL     1      43.172 -19.359   1.622  1.00  0.00    -0.206 F 
HETATM   24  C   UNL     1      44.216 -18.966   3.697  1.00  0.00     0.043 A 
HETATM   25  C   UNL     1      44.384 -18.150   4.817  1.00  0.00     0.021 A 
ENDBRANCH  18  19
ENDBRANCH  17  18
ENDBRANCH  16  17
ENDBRANCH  15  16
ENDBRANCH  12  15
ENDBRANCH   7  11
BRANCH   6  26
HETATM   26  C   UNL     1      41.463  -8.789   8.113  1.00  0.00     0.252 C 
HETATM   27  N   UNL     1      41.876  -7.847   7.211  1.00  0.00    -0.366 N 
HETATM   28  H   UNL     1      42.862  -7.629   7.132  1.00  0.00     0.159 HD
HETATM   29  H   UNL     1      41.355  -7.842   6.340  1.00  0.00     0.159 HD
HETATM   30  O   UNL     1      40.464  -9.465   7.909  1.00  0.00    -0.268 OA
ENDBRANCH   6  26
BRANCH   1  31
HETATM   31  C   UNL     1      40.992  -7.478  13.489  1.00  0.00     0.273 C 
BRANCH  31  32
HETATM   32  C   UNL     1      40.616  -7.174  14.913  1.00  0.00    -0.033 A 
HETATM   33  C   UNL     1      39.687  -6.174  15.240  1.00  0.00     0.009 A 
HETATM   34  C   UNL     1      39.343  -5.943  16.573  1.00  0.00     0.001 A 
HETATM   35  C   UNL     1      39.901  -6.716  17.588  1.00  0.00     0.000 A 
HETATM   36  C   UNL     1      40.809  -7.724  17.276  1.00  0.00     0.001 A 
HETATM   37  C   UNL     1      41.165  -7.951  15.948  1.00  0.00     0.009 A 
ENDBRANCH  31  32
ENDBRANCH   1  31
TORSDOF 9
ENDMDL
MODEL 9
REMARK VINA RESULT:      -8.1      3.381      5.004
REMARK  9 active torsions:
REMARK  status: ('A' for Active; 'I' for Inactive)
REMARK    1  A    between atoms: C_4  and  C_5 
REMARK    2  A    between atoms: C_5  and  N_6 
REMARK    3  A    between atoms: C_11  and  C_12 
REMARK       I    between atoms: C_12  and  N_13 
REMARK    4  A    between atoms: C_15  and  N_16 
REMARK       I    between atoms: N_16  and  C_17 
REMARK    5  A    between atoms: C_17  and  C_18 
REMARK    6  A    between atoms: C_18  and  C_19 
REMARK    7  A    between atoms: C_19  and  C_20 
REMARK    8  A    between atoms: C_20  and  S_21 
REMARK    9  A    between atoms: S_21  and  C_22 
ROOT
HETATM    1  N   UNL     1      39.788 -13.713   1.576  1.00  0.00    -0.063 N 
HETATM    2  H   UNL     1      39.277 -14.554   1.290  1.00  0.00     0.280 HD
HETATM    3  C   UNL     1      41.123 -14.208   2.129  1.00  0.00     0.282 C 
HETATM    4  C   UNL     1      41.771 -13.168   2.975  1.00  0.00     0.018 C 
HETATM    5  C   UNL     1      41.152 -12.037   3.470  1.00  0.00    -0.023 C 
HETATM    6  C   UNL     1      42.094 -11.165   4.133  1.00  0.00     0.073 C 
HETATM    7  C   UNL     1      43.294 -11.831   4.346  1.00  0.00     0.093 C 
HETATM    8  S   UNL     1      43.379 -13.297   3.484  1.00  0.00    -0.074 SA
HETATM    9  C   UNL     1      39.687 -11.785   3.235  1.00  0.00     0.068 C 
HETATM   10  C   UNL     1      38.973 -13.035   2.677  1.00  0.00     0.240 C 
ENDROOT
BRANCH   7  11
HETATM   11  N   UNL     1      44.369 -11.394   5.107  1.00  0.00    -0.320 N 
HETATM   12  C   UNL     1      44.501 -11.544   6.482  1.00  0.00     0.222 C 
HETATM   13  O   UNL     1      43.687 -12.057   7.241  1.00  0.00    -0.273 OA
HETATM   14  H   UNL     1      44.946 -10.676   4.679  1.00  0.00     0.169 HD
BRANCH  12  15
HETATM   15  C   UNL     1      45.828 -10.985   6.981  1.00  0.00     0.104 C 
BRANCH  15  16
HETATM   16  C   UNL     1      45.739 -10.337   8.362  1.00  0.00     0.020 C 
BRANCH  16  17
HETATM   17  C   UNL     1      45.324  -8.863   8.434  1.00  0.00     0.080 C 
BRANCH  17  18
HETATM   18  S   UNL     1      43.537  -8.502   8.567  1.00  0.00    -0.130 SA
BRANCH  18  19
HETATM   19  C   UNL     1      43.192  -8.694  10.307  1.00  0.00     0.000 A 
HETATM   20  C   UNL     1      43.078  -7.625  11.202  1.00  0.00     0.021 A 
HETATM   21  C   UNL     1      42.819  -7.862  12.556  1.00  0.00     0.043 A 
HETATM   22  C   UNL     1      42.651  -9.166  13.007  1.00  0.00     0.116 A 
HETATM   23  F   UNL     1      42.405  -9.391  14.303  1.00  0.00    -0.206 F 
HETATM   24  C   UNL     1      42.729 -10.238  12.129  1.00  0.00     0.043 A 
HETATM   25  C   UNL     1      42.998 -10.001  10.780  1.00  0.00     0.021 A 
ENDBRANCH  18  19
ENDBRANCH  17  18
ENDBRANCH  16  17
ENDBRANCH  15  16
ENDBRANCH  12  15
ENDBRANCH   7  11
BRANCH   6  26
HETATM   26  C   UNL     1      41.790  -9.813   4.593  1.00  0.00     0.252 C 
HETATM   27  N   UNL     1      41.610  -8.876   3.613  1.00  0.00    -0.366 N 
HETATM   28  H   UNL     1      41.313  -9.170   2.690  1.00  0.00     0.159 HD
HETATM   29  H   UNL     1      41.226  -7.995   3.938  1.00  0.00     0.159 HD
HETATM   30  O   UNL     1      41.616  -9.537   5.773  1.00  0.00    -0.268 OA
ENDBRANCH   6  26
BRANCH   1  31
HETATM   31  C   UNL     1      39.895 -12.845   0.342  1.00  0.00     0.273 C 
BRANCH  31  32
HETATM   32  C   UNL     1      39.113 -13.302  -0.858  1.00  0.00    -0.033 A 
HETATM   33  C   UNL     1      38.106 -12.513  -1.434  1.00  0.00     0.009 A 
HETATM   34  C   UNL     1      37.424 -12.961  -2.567  1.00  0.00     0.001 A 
HETATM   35  C   UNL     1      37.751 -14.185  -3.147  1.00  0.00     0.000 A 
HETATM   36  C   UNL     1      38.762 -14.968  -2.597  1.00  0.00     0.001 A 
HETATM   37  C   UNL     1      39.438 -14.530  -1.459  1.00  0.00     0.009 A 
ENDBRANCH  31  32
ENDBRANCH   1  31
TORSDOF 9
ENDMDL
MODEL 10
REMARK VINA RESULT:      -8.0      7.290     10.188
REMARK  9 active torsions:
REMARK  status: ('A' for Active; 'I' for Inactive)
REMARK    1  A    between atoms: C_4  and  C_5 
REMARK    2  A    between atoms: C_5  and  N_6 
REMARK    3  A    between atoms: C_11  and  C_12 
REMARK       I    between atoms: C_12  and  N_13 
REMARK    4  A    between atoms: C_15  and  N_16 
REMARK       I    between atoms: N_16  and  C_17 
REMARK    5  A    between atoms: C_17  and  C_18 
REMARK    6  A    between atoms: C_18  and  C_19 
REMARK    7  A    between atoms: C_19  and  C_20 
REMARK    8  A    between atoms: C_20  and  S_21 
REMARK    9  A    between atoms: S_21  and  C_22 
ROOT
HETATM    1  N   UNL     1      41.216 -15.081   3.442  1.00  0.00    -0.063 N 
HETATM    2  H   UNL     1      41.181 -15.377   4.422  1.00  0.00     0.280 HD
HETATM    3  C   UNL     1      40.891 -13.589   3.449  1.00  0.00     0.282 C 
HETATM    4  C   UNL     1      40.470 -13.125   2.098  1.00  0.00     0.018 C 
HETATM    5  C   UNL     1      40.109 -13.943   1.046  1.00  0.00    -0.023 C 
HETATM    6  C   UNL     1      39.892 -13.185  -0.165  1.00  0.00     0.073 C 
HETATM    7  C   UNL     1      39.822 -11.828   0.127  1.00  0.00     0.093 C 
HETATM    8  S   UNL     1      40.332 -11.483   1.714  1.00  0.00    -0.074 SA
HETATM    9  C   UNL     1      40.048 -15.438   1.208  1.00  0.00     0.068 C 
HETATM   10  C   UNL     1      40.134 -15.858   2.691  1.00  0.00     0.240 C 
ENDROOT
BRANCH   7  11
HETATM   11  N   UNL     1      39.446 -10.807  -0.734  1.00  0.00    -0.320 N 
HETATM   12  C   UNL     1      40.224 -10.286  -1.761  1.00  0.00     0.222 C 
HETATM   13  O   UNL     1      41.366 -10.622  -2.051  1.00  0.00    -0.273 OA
HETATM   14  H   UNL     1      38.683 -10.220  -0.411  1.00  0.00     0.169 HD
BRANCH  12  15
HETATM   15  C   UNL     1      39.481  -9.205  -2.534  1.00  0.00     0.104 C 
BRANCH  15  16
HETATM   16  C   UNL     1      39.705  -9.266  -4.044  1.00  0.00     0.020 C 
BRANCH  16  17
HETATM   17  C   UNL     1      40.949  -8.572  -4.611  1.00  0.00     0.080 C 
BRANCH  17  18
HETATM   18  S   UNL     1      40.912  -6.748  -4.723  1.00  0.00    -0.130 SA
BRANCH  18  19
HETATM   19  C   UNL     1      41.974  -6.218  -3.391  1.00  0.00     0.000 A 
HETATM   20  C   UNL     1      42.109  -4.887  -2.983  1.00  0.00     0.021 A 
HETATM   21  C   UNL     1      42.976  -4.554  -1.937  1.00  0.00     0.043 A 
HETATM   22  C   UNL     1      43.686  -5.555  -1.286  1.00  0.00     0.116 A 
HETATM   23  F   UNL     1      44.517  -5.233  -0.286  1.00  0.00    -0.206 F 
HETATM   24  C   UNL     1      43.542  -6.884  -1.654  1.00  0.00     0.043 A 
HETATM   25  C   UNL     1      42.685  -7.215  -2.705  1.00  0.00     0.021 A 
ENDBRANCH  18  19
ENDBRANCH  17  18
ENDBRANCH  16  17
ENDBRANCH  15  16
ENDBRANCH  12  15
ENDBRANCH   7  11
BRANCH   6  26
HETATM   26  C   UNL     1      39.686 -13.772  -1.485  1.00  0.00     0.252 C 
HETATM   27  N   UNL     1      40.774 -13.773  -2.314  1.00  0.00    -0.366 N 
HETATM   28  H   UNL     1      41.705 -13.751  -1.916  1.00  0.00     0.159 HD
HETATM   29  H   UNL     1      40.667 -14.340  -3.149  1.00  0.00     0.159 HD
HETATM   30  O   UNL     1      38.640 -14.315  -1.814  1.00  0.00    -0.268 OA
ENDBRANCH   6  26
BRANCH   1  31
HETATM   31  C   UNL     1      42.601 -15.427   2.944  1.00  0.00     0.273 C 
BRANCH  31  32
HETATM   32  C   UNL     1      43.091 -16.813   3.261  1.00  0.00    -0.033 A 
HETATM   33  C   UNL     1      43.089 -17.840   2.306  1.00  0.00     0.009 A 
HETATM   34  C   UNL     1      43.581 -19.105   2.633  1.00  0.00     0.001 A 
HETATM   35  C   UNL     1      44.096 -19.353   3.902  1.00  0.00     0.000 A 
HETATM   36  C   UNL     1      44.123 -18.337   4.854  1.00  0.00     0.001 A 
HETATM   37  C   UNL     1      43.623 -17.075   4.536  1.00  0.00     0.009 A 
ENDBRANCH  31  32
ENDBRANCH   1  31
TORSDOF 9
ENDMDL
