MODEL 1
REMARK VINA RESULT:      -8.5      0.000      0.000
REMARK  6 active torsions:
REMARK  status: ('A' for Active; 'I' for Inactive)
REMARK    1  A    between atoms: C_5  and  C_6 
REMARK    2  A    between atoms: C_12  and  C_13 
REMARK       I    between atoms: C_13  and  N_14 
REMARK    3  A    between atoms: N_14  and  C_15 
REMARK    4  A    between atoms: C_18  and  C_19 
REMARK    5  A    between atoms: C_19  and  O_20 
REMARK    6  A    between atoms: C_25  and  C_26 
ROOT
HETATM    1  C   UNL     1      41.004 -11.060   6.348  1.00  0.00     0.118 C 
HETATM    2  N   UNL     1      41.009 -12.278   5.510  1.00  0.00    -0.365 N 
HETATM    3  C   UNL     1      41.332 -12.161   4.185  1.00  0.00     0.138 A 
HETATM    4  N   UNL     1      41.400 -10.926   3.579  1.00  0.00    -0.240 N 
HETATM    5  N   UNL     1      41.811 -10.973   2.305  1.00  0.00    -0.181 NA
HETATM    6  C   UNL     1      41.917 -12.282   2.064  1.00  0.00     0.160 A 
HETATM    7  C   UNL     1      41.628 -13.084   3.196  1.00  0.00     0.096 A 
HETATM    8  C   UNL     1      41.087  -9.666   4.233  1.00  0.00     0.221 C 
HETATM    9  C   UNL     1      40.332  -9.934   5.550  1.00  0.00     0.066 C 
HETATM   10  H   UNL     1      40.216 -12.885   5.732  1.00  0.00     0.161 HD
ENDROOT
BRANCH   7  11
HETATM   11  C   UNL     1      41.672 -14.538   3.235  1.00  0.00     0.261 C 
HETATM   12  N   UNL     1      42.946 -15.066   3.145  1.00  0.00    -0.323 N 
HETATM   13  H   UNL     1      43.680 -14.394   2.949  1.00  0.00     0.169 HD
HETATM   14  O   UNL     1      40.636 -15.181   3.356  1.00  0.00    -0.267 OA
BRANCH  12  15
HETATM   15  C   UNL     1      43.339 -16.405   3.340  1.00  0.00     0.035 A 
HETATM   16  C   UNL     1      43.229 -17.399   2.370  1.00  0.00     0.030 A 
HETATM   17  C   UNL     1      43.581 -18.726   2.658  1.00  0.00     0.012 A 
HETATM   18  C   UNL     1      44.054 -19.094   3.924  1.00  0.00    -0.030 A 
HETATM   19  C   UNL     1      44.167 -18.083   4.891  1.00  0.00     0.012 A 
HETATM   20  C   UNL     1      43.828 -16.755   4.601  1.00  0.00     0.030 A 
BRANCH  18  21
HETATM   21  C   UNL     1      44.358 -20.534   4.298  1.00  0.00     0.147 C 
HETATM   22  C   UNL     1      43.699 -21.046   5.577  1.00  0.00     0.044 C 
BRANCH  21  23
HETATM   23  O   UNL     1      43.958 -21.390   3.226  1.00  0.00    -0.391 OA
HETATM   24  H   UNL     1      44.666 -22.045   3.103  1.00  0.00     0.210 HD
ENDBRANCH  21  23
ENDBRANCH  18  21
ENDBRANCH  12  15
ENDBRANCH   7  11
BRANCH   1  25
HETATM   25  C   UNL     1      42.386 -10.668   6.865  1.00  0.00    -0.035 A 
HETATM   26  C   UNL     1      43.536 -11.441   6.640  1.00  0.00     0.010 A 
HETATM   27  C   UNL     1      44.796 -11.009   7.072  1.00  0.00     0.007 A 
HETATM   28  C   UNL     1      44.937  -9.802   7.758  1.00  0.00    -0.062 A 
HETATM   29  C   UNL     1      46.288  -9.307   8.183  1.00  0.00     0.048 C 
HETATM   30  C   UNL     1      43.796  -9.038   8.019  1.00  0.00     0.007 A 
HETATM   31  C   UNL     1      42.538  -9.471   7.588  1.00  0.00     0.010 A 
ENDBRANCH   1  25
BRANCH   8  32
HETATM   32  C   UNL     1      40.246  -8.763   3.355  1.00  0.00     0.409 C 
HETATM   33  F   UNL     1      39.263  -9.439   2.716  1.00  0.00    -0.169 F 
HETATM   34  F   UNL     1      39.626  -7.831   4.131  1.00  0.00    -0.169 F 
HETATM   35  F   UNL     1      40.956  -8.073   2.440  1.00  0.00    -0.169 F 
ENDBRANCH   8  32
TORSDOF 6
ENDMDL
MODEL 2
REMARK VINA RESULT:      -8.4      4.452      8.280
REMARK  6 active torsions:
REMARK  status: ('A' for Active; 'I' for Inactive)
REMARK    1  A    between atoms: C_5  and  C_6 
REMARK    2  A    between atoms: C_12  and  C_13 
REMARK       I    between atoms: C_13  and  N_14 
REMARK    3  A    between atoms: N_14  and  C_15 
REMARK    4  A    between atoms: C_18  and  C_19 
REMARK    5  A    between atoms: C_19  and  O_20 
REMARK    6  A    between atoms: C_25  and  C_26 
ROOT
HETATM    1  C   UNL     1      41.356 -14.694   5.188  1.00  0.00     0.118 C 
HETATM    2  N   UNL     1      40.550 -13.829   4.300  1.00  0.00    -0.365 N 
HETATM    3  C   UNL     1      41.182 -12.832   3.606  1.00  0.00     0.138 A 
HETATM    4  N   UNL     1      42.476 -12.469   3.908  1.00  0.00    -0.240 N 
HETATM    5  N   UNL     1      42.980 -11.541   3.085  1.00  0.00    -0.181 NA
HETATM    6  C   UNL     1      41.949 -11.235   2.295  1.00  0.00     0.160 A 
HETATM    7  C   UNL     1      40.790 -12.004   2.569  1.00  0.00     0.096 A 
HETATM    8  C   UNL     1      43.260 -13.033   4.994  1.00  0.00     0.221 C 
HETATM    9  C   UNL     1      42.339 -13.803   5.960  1.00  0.00     0.066 C 
HETATM   10  H   UNL     1      39.656 -13.584   4.732  1.00  0.00     0.161 HD
ENDROOT
BRANCH   7  11
HETATM   11  C   UNL     1      39.520 -11.899   1.863  1.00  0.00     0.261 C 
HETATM   12  N   UNL     1      39.631 -11.418   0.572  1.00  0.00    -0.323 N 
HETATM   13  H   UNL     1      40.554 -11.091   0.310  1.00  0.00     0.169 HD
HETATM   14  O   UNL     1      38.481 -12.240   2.416  1.00  0.00    -0.267 OA
BRANCH  12  15
HETATM   15  C   UNL     1      38.632 -11.380  -0.420  1.00  0.00     0.035 A 
HETATM   16  C   UNL     1      38.351 -12.435  -1.285  1.00  0.00     0.030 A 
HETATM   17  C   UNL     1      37.384 -12.302  -2.292  1.00  0.00     0.012 A 
HETATM   18  C   UNL     1      36.670 -11.109  -2.460  1.00  0.00    -0.030 A 
HETATM   19  C   UNL     1      36.955 -10.055  -1.577  1.00  0.00     0.012 A 
HETATM   20  C   UNL     1      37.911 -10.191  -0.563  1.00  0.00     0.030 A 
BRANCH  18  21
HETATM   21  C   UNL     1      35.681 -10.897  -3.593  1.00  0.00     0.147 C 
HETATM   22  C   UNL     1      34.343 -10.272  -3.205  1.00  0.00     0.044 C 
BRANCH  21  23
HETATM   23  O   UNL     1      36.282 -10.064  -4.588  1.00  0.00    -0.391 OA
HETATM   24  H   UNL     1      35.939  -9.165  -4.454  1.00  0.00     0.210 HD
ENDBRANCH  21  23
ENDBRANCH  18  21
ENDBRANCH  12  15
ENDBRANCH   7  11
BRANCH   1  25
HETATM   25  C   UNL     1      42.053 -15.839   4.456  1.00  0.00    -0.035 A 
HETATM   26  C   UNL     1      43.128 -16.556   5.003  1.00  0.00     0.010 A 
HETATM   27  C   UNL     1      43.693 -17.644   4.327  1.00  0.00     0.007 A 
HETATM   28  C   UNL     1      43.211 -18.031   3.076  1.00  0.00    -0.062 A 
HETATM   29  C   UNL     1      43.777 -19.225   2.364  1.00  0.00     0.048 C 
HETATM   30  C   UNL     1      42.163 -17.305   2.503  1.00  0.00     0.007 A 
HETATM   31  C   UNL     1      41.601 -16.218   3.179  1.00  0.00     0.010 A 
ENDBRANCH   1  25
BRANCH   8  32
HETATM   32  C   UNL     1      44.010 -11.969   5.767  1.00  0.00     0.409 C 
HETATM   33  F   UNL     1      43.201 -10.961   6.168  1.00  0.00    -0.169 F 
HETATM   34  F   UNL     1      44.528 -12.516   6.901  1.00  0.00    -0.169 F 
HETATM   35  F   UNL     1      45.054 -11.439   5.099  1.00  0.00    -0.169 F 
ENDBRANCH   8  32
TORSDOF 6
ENDMDL
MODEL 3
REMARK VINA RESULT:      -8.2      3.998      7.303
REMARK  6 active torsions:
REMARK  status: ('A' for Active; 'I' for Inactive)
REMARK    1  A    between atoms: C_5  and  C_6 
REMARK    2  A    between atoms: C_12  and  C_13 
REMARK       I    between atoms: C_13  and  N_14 
REMARK    3  A    between atoms: N_14  and  C_15 
REMARK    4  A    between atoms: C_18  and  C_19 
REMARK    5  A    between atoms: C_19  and  O_20 
REMARK    6  A    between atoms: C_25  and  C_26 
ROOT
HETATM    1  C   UNL     1      42.077 -14.236   6.226  1.00  0.00     0.118 C 
HETATM    2  N   UNL     1      41.336 -13.491   5.186  1.00  0.00    -0.365 N 
HETATM    3  C   UNL     1      42.016 -12.581   4.422  1.00  0.00     0.138 A 
HETATM    4  N   UNL     1      43.286 -12.173   4.768  1.00  0.00    -0.240 N 
HETATM    5  N   UNL     1      43.847 -11.348   3.875  1.00  0.00    -0.181 NA
HETATM    6  C   UNL     1      42.874 -11.148   2.984  1.00  0.00     0.160 A 
HETATM    7  C   UNL     1      41.698 -11.886   3.267  1.00  0.00     0.096 A 
HETATM    8  C   UNL     1      43.992 -12.596   5.965  1.00  0.00     0.221 C 
HETATM    9  C   UNL     1      43.004 -13.250   6.951  1.00  0.00     0.066 C 
HETATM   10  H   UNL     1      40.414 -13.203   5.522  1.00  0.00     0.161 HD
ENDROOT
BRANCH   7  11
HETATM   11  C   UNL     1      40.481 -11.877   2.467  1.00  0.00     0.261 C 
HETATM   12  N   UNL     1      40.699 -12.002   1.109  1.00  0.00    -0.323 N 
HETATM   13  H   UNL     1      41.671 -11.971   0.821  1.00  0.00     0.169 HD
HETATM   14  O   UNL     1      39.388 -11.781   3.014  1.00  0.00    -0.267 OA
BRANCH  12  15
HETATM   15  C   UNL     1      39.739 -12.216   0.100  1.00  0.00     0.035 A 
HETATM   16  C   UNL     1      38.718 -11.319  -0.207  1.00  0.00     0.030 A 
HETATM   17  C   UNL     1      37.759 -11.628  -1.183  1.00  0.00     0.012 A 
HETATM   18  C   UNL     1      37.796 -12.842  -1.879  1.00  0.00    -0.030 A 
HETATM   19  C   UNL     1      38.834 -13.735  -1.567  1.00  0.00     0.012 A 
HETATM   20  C   UNL     1      39.800 -13.422  -0.602  1.00  0.00     0.030 A 
BRANCH  18  21
HETATM   21  C   UNL     1      36.725 -13.249  -2.876  1.00  0.00     0.147 C 
HETATM   22  C   UNL     1      35.886 -12.112  -3.457  1.00  0.00     0.044 C 
BRANCH  21  23
HETATM   23  O   UNL     1      37.340 -13.940  -3.966  1.00  0.00    -0.391 OA
HETATM   24  H   UNL     1      37.231 -14.892  -3.800  1.00  0.00     0.210 HD
ENDBRANCH  21  23
ENDBRANCH  18  21
ENDBRANCH  12  15
ENDBRANCH   7  11
BRANCH   1  25
HETATM   25  C   UNL     1      42.822 -15.455   5.689  1.00  0.00    -0.035 A 
HETATM   26  C   UNL     1      43.857 -16.092   6.392  1.00  0.00     0.010 A 
HETATM   27  C   UNL     1      44.467 -17.249   5.893  1.00  0.00     0.007 A 
HETATM   28  C   UNL     1      44.072 -17.790   4.668  1.00  0.00    -0.062 A 
HETATM   29  C   UNL     1      44.686 -19.056   4.147  1.00  0.00     0.048 C 
HETATM   30  C   UNL     1      43.067 -17.147   3.941  1.00  0.00     0.007 A 
HETATM   31  C   UNL     1      42.459 -15.991   4.439  1.00  0.00     0.010 A 
ENDBRANCH   1  25
BRANCH   8  32
HETATM   32  C   UNL     1      44.687 -11.441   6.654  1.00  0.00     0.409 C 
HETATM   33  F   UNL     1      44.960 -11.708   7.953  1.00  0.00    -0.169 F 
HETATM   34  F   UNL     1      45.886 -11.212   6.052  1.00  0.00    -0.169 F 
HETATM   35  F   UNL     1      44.010 -10.277   6.590  1.00  0.00    -0.169 F 
ENDBRANCH   8  32
TORSDOF 6
ENDMDL
MODEL 4
REMARK VINA RESULT:      -8.1      4.294      8.420
REMARK  6 active torsions:
REMARK  status: ('A' for Active; 'I' for Inactive)
REMARK    1  A    between atoms: C_5  and  C_6 
REMARK    2  A    between atoms: C_12  and  C_13 
REMARK       I    between atoms: C_13  and  N_14 
REMARK    3  A    between atoms: N_14  and  C_15 
REMARK    4  A    between atoms: C_18  and  C_19 
REMARK    5  A    between atoms: C_19  and  O_20 
REMARK    6  A    between atoms: C_25  and  C_26 
ROOT
HETATM    1  C   UNL     1      41.065 -15.008   4.922  1.00  0.00     0.118 C 
HETATM    2  N   UNL     1      40.723 -13.932   3.968  1.00  0.00    -0.365 N 
HETATM    3  C   UNL     1      41.672 -12.990   3.674  1.00  0.00     0.138 A 
HETATM    4  N   UNL     1      42.822 -12.884   4.425  1.00  0.00    -0.240 N 
HETATM    5  N   UNL     1      43.687 -11.974   3.959  1.00  0.00    -0.181 NA
HETATM    6  C   UNL     1      43.030 -11.419   2.938  1.00  0.00     0.160 A 
HETATM    7  C   UNL     1      41.761 -12.004   2.706  1.00  0.00     0.096 A 
HETATM    8  C   UNL     1      43.115 -13.682   5.604  1.00  0.00     0.221 C 
HETATM    9  C   UNL     1      41.832 -14.380   6.095  1.00  0.00     0.066 C 
HETATM   10  H   UNL     1      39.773 -13.586   4.124  1.00  0.00     0.161 HD
ENDROOT
BRANCH   7  11
HETATM   11  C   UNL     1      40.829 -11.614   1.657  1.00  0.00     0.261 C 
HETATM   12  N   UNL     1      41.368 -10.762   0.712  1.00  0.00    -0.323 N 
HETATM   13  H   UNL     1      42.301 -10.422   0.918  1.00  0.00     0.169 HD
HETATM   14  O   UNL     1      39.684 -12.051   1.660  1.00  0.00    -0.267 OA
BRANCH  12  15
HETATM   15  C   UNL     1      40.796 -10.361  -0.511  1.00  0.00     0.035 A 
HETATM   16  C   UNL     1      40.804 -11.138  -1.667  1.00  0.00     0.030 A 
HETATM   17  C   UNL     1      40.270 -10.646  -2.868  1.00  0.00     0.012 A 
HETATM   18  C   UNL     1      39.713  -9.363  -2.943  1.00  0.00    -0.030 A 
HETATM   19  C   UNL     1      39.704  -8.592  -1.770  1.00  0.00     0.012 A 
HETATM   20  C   UNL     1      40.224  -9.088  -0.567  1.00  0.00     0.030 A 
BRANCH  18  21
HETATM   21  C   UNL     1      39.209  -8.764  -4.244  1.00  0.00     0.147 C 
HETATM   22  C   UNL     1      40.257  -8.553  -5.334  1.00  0.00     0.044 C 
BRANCH  21  23
HETATM   23  O   UNL     1      38.183  -9.604  -4.779  1.00  0.00    -0.391 OA
HETATM   24  H   UNL     1      37.565  -9.799  -4.055  1.00  0.00     0.210 HD
ENDBRANCH  21  23
ENDBRANCH  18  21
ENDBRANCH  12  15
ENDBRANCH   7  11
BRANCH   1  25
HETATM   25  C   UNL     1      41.820 -16.172   4.284  1.00  0.00    -0.035 A 
HETATM   26  C   UNL     1      41.673 -16.535   2.936  1.00  0.00     0.010 A 
HETATM   27  C   UNL     1      42.436 -17.565   2.376  1.00  0.00     0.007 A 
HETATM   28  C   UNL     1      43.354 -18.274   3.152  1.00  0.00    -0.062 A 
HETATM   29  C   UNL     1      44.212 -19.348   2.549  1.00  0.00     0.048 C 
HETATM   30  C   UNL     1      43.487 -17.947   4.504  1.00  0.00     0.007 A 
HETATM   31  C   UNL     1      42.723 -16.918   5.064  1.00  0.00     0.010 A 
ENDBRANCH   1  25
BRANCH   8  32
HETATM   32  C   UNL     1      43.686 -12.845   6.730  1.00  0.00     0.409 C 
HETATM   33  F   UNL     1      43.078 -11.641   6.832  1.00  0.00    -0.169 F 
HETATM   34  F   UNL     1      43.474 -13.481   7.916  1.00  0.00    -0.169 F 
HETATM   35  F   UNL     1      45.016 -12.648   6.646  1.00  0.00    -0.169 F 
ENDBRANCH   8  32
TORSDOF 6
ENDMDL
MODEL 5
REMARK VINA RESULT:      -8.1      5.821      9.912
REMARK  6 active torsions:
REMARK  status: ('A' for Active; 'I' for Inactive)
REMARK    1  A    between atoms: C_5  and  C_6 
REMARK    2  A    between atoms: C_12  and  C_13 
REMARK       I    between atoms: C_13  and  N_14 
REMARK    3  A    between atoms: N_14  and  C_15 
REMARK    4  A    between atoms: C_18  and  C_19 
REMARK    5  A    between atoms: C_19  and  O_20 
REMARK    6  A    between atoms: C_25  and  C_26 
ROOT
HETATM    1  C   UNL     1      41.415  -9.864   7.053  1.00  0.00     0.118 C 
HETATM    2  N   UNL     1      41.950 -10.128   8.406  1.00  0.00    -0.365 N 
HETATM    3  C   UNL     1      43.302 -10.282   8.557  1.00  0.00     0.138 A 
HETATM    4  N   UNL     1      44.124 -10.445   7.463  1.00  0.00    -0.240 N 
HETATM    5  N   UNL     1      45.426 -10.496   7.771  1.00  0.00    -0.181 NA
HETATM    6  C   UNL     1      45.430 -10.459   9.106  1.00  0.00     0.160 A 
HETATM    7  C   UNL     1      44.133 -10.330   9.664  1.00  0.00     0.096 A 
HETATM    8  C   UNL     1      43.661 -10.534   6.089  1.00  0.00     0.221 C 
HETATM    9  C   UNL     1      42.141 -10.787   6.064  1.00  0.00     0.066 C 
HETATM   10  H   UNL     1      41.359 -10.787   8.917  1.00  0.00     0.161 HD
ENDROOT
BRANCH   7  11
HETATM   11  C   UNL     1      43.829 -10.252  11.086  1.00  0.00     0.261 C 
HETATM   12  N   UNL     1      43.373  -9.015  11.498  1.00  0.00    -0.323 N 
HETATM   13  H   UNL     1      43.412  -8.283  10.797  1.00  0.00     0.169 HD
HETATM   14  O   UNL     1      43.971 -11.240  11.798  1.00  0.00    -0.267 OA
BRANCH  12  15
HETATM   15  C   UNL     1      42.823  -8.674  12.749  1.00  0.00     0.035 A 
HETATM   16  C   UNL     1      41.734  -9.326  13.325  1.00  0.00     0.030 A 
HETATM   17  C   UNL     1      41.199  -8.890  14.546  1.00  0.00     0.012 A 
HETATM   18  C   UNL     1      41.739  -7.790  15.225  1.00  0.00    -0.030 A 
HETATM   19  C   UNL     1      42.840  -7.146  14.639  1.00  0.00     0.012 A 
HETATM   20  C   UNL     1      43.384  -7.589  13.426  1.00  0.00     0.030 A 
BRANCH  18  21
HETATM   21  C   UNL     1      41.132  -7.235  16.501  1.00  0.00     0.147 C 
HETATM   22  C   UNL     1      39.849  -6.422  16.332  1.00  0.00     0.044 C 
BRANCH  21  23
HETATM   23  O   UNL     1      40.851  -8.316  17.393  1.00  0.00    -0.391 OA
HETATM   24  H   UNL     1      41.702  -8.621  17.750  1.00  0.00     0.210 HD
ENDBRANCH  21  23
ENDBRANCH  18  21
ENDBRANCH  12  15
ENDBRANCH   7  11
BRANCH   1  25
HETATM   25  C   UNL     1      41.486  -8.395   6.645  1.00  0.00    -0.035 A 
HETATM   26  C   UNL     1      41.737  -7.357   7.556  1.00  0.00     0.010 A 
HETATM   27  C   UNL     1      41.862  -6.030   7.127  1.00  0.00     0.007 A 
HETATM   28  C   UNL     1      41.720  -5.702   5.778  1.00  0.00    -0.062 A 
HETATM   29  C   UNL     1      41.900  -4.291   5.301  1.00  0.00     0.048 C 
HETATM   30  C   UNL     1      41.436  -6.721   4.864  1.00  0.00     0.007 A 
HETATM   31  C   UNL     1      41.310  -8.045   5.293  1.00  0.00     0.010 A 
ENDBRANCH   1  25
BRANCH   8  32
HETATM   32  C   UNL     1      44.359 -11.638   5.323  1.00  0.00     0.409 C 
HETATM   33  F   UNL     1      45.625 -11.304   4.981  1.00  0.00    -0.169 F 
HETATM   34  F   UNL     1      44.457 -12.743   6.114  1.00  0.00    -0.169 F 
HETATM   35  F   UNL     1      43.706 -12.033   4.212  1.00  0.00    -0.169 F 
ENDBRANCH   8  32
TORSDOF 6
ENDMDL
MODEL 6
REMARK VINA RESULT:      -7.9      3.291      7.818
REMARK  6 active torsions:
REMARK  status: ('A' for Active; 'I' for Inactive)
REMARK    1  A    between atoms: C_5  and  C_6 
REMARK    2  A    between atoms: C_12  and  C_13 
REMARK       I    between atoms: C_13  and  N_14 
REMARK    3  A    between atoms: N_14  and  C_15 
REMARK    4  A    between atoms: C_18  and  C_19 
REMARK    5  A    between atoms: C_19  and  O_20 
REMARK    6  A    between atoms: C_25  and  C_26 
ROOT
HETATM    1  C   UNL     1      43.126 -14.522   1.918  1.00  0.00     0.118 C 
HETATM    2  N   UNL     1      42.620 -13.343   2.652  1.00  0.00    -0.365 N 
HETATM    3  C   UNL     1      41.268 -13.198   2.809  1.00  0.00     0.138 A 
HETATM    4  N   UNL     1      40.384 -13.977   2.094  1.00  0.00    -0.240 N 
HETATM    5  N   UNL     1      39.102 -13.775   2.423  1.00  0.00    -0.181 NA
HETATM    6  C   UNL     1      39.163 -12.774   3.303  1.00  0.00     0.160 A 
HETATM    7  C   UNL     1      40.488 -12.361   3.588  1.00  0.00     0.096 A 
HETATM    8  C   UNL     1      40.770 -14.952   1.088  1.00  0.00     0.221 C 
HETATM    9  C   UNL     1      42.240 -14.731   0.681  1.00  0.00     0.066 C 
HETATM   10  H   UNL     1      43.141 -12.499   2.401  1.00  0.00     0.161 HD
ENDROOT
BRANCH   7  11
HETATM   11  C   UNL     1      40.863 -11.303   4.516  1.00  0.00     0.261 C 
HETATM   12  N   UNL     1      41.537 -11.747   5.636  1.00  0.00    -0.323 N 
HETATM   13  H   UNL     1      41.592 -12.755   5.738  1.00  0.00     0.169 HD
HETATM   14  O   UNL     1      40.588 -10.136   4.258  1.00  0.00    -0.267 OA
BRANCH  12  15
HETATM   15  C   UNL     1      42.191 -10.970   6.612  1.00  0.00     0.035 A 
HETATM   16  C   UNL     1      41.638  -9.837   7.206  1.00  0.00     0.030 A 
HETATM   17  C   UNL     1      42.373  -9.074   8.124  1.00  0.00     0.012 A 
HETATM   18  C   UNL     1      43.683  -9.424   8.475  1.00  0.00    -0.030 A 
HETATM   19  C   UNL     1      44.228 -10.571   7.876  1.00  0.00     0.012 A 
HETATM   20  C   UNL     1      43.490 -11.342   6.969  1.00  0.00     0.030 A 
BRANCH  18  21
HETATM   21  C   UNL     1      44.541  -8.574   9.395  1.00  0.00     0.147 C 
HETATM   22  C   UNL     1      45.566  -9.328  10.240  1.00  0.00     0.044 C 
BRANCH  21  23
HETATM   23  O   UNL     1      45.245  -7.605   8.615  1.00  0.00    -0.391 OA
HETATM   24  H   UNL     1      45.623  -6.958   9.234  1.00  0.00     0.210 HD
ENDBRANCH  21  23
ENDBRANCH  18  21
ENDBRANCH  12  15
ENDBRANCH   7  11
BRANCH   1  25
HETATM   25  C   UNL     1      43.234 -15.777   2.780  1.00  0.00    -0.035 A 
HETATM   26  C   UNL     1      43.326 -17.071   2.243  1.00  0.00     0.010 A 
HETATM   27  C   UNL     1      43.493 -18.189   3.069  1.00  0.00     0.007 A 
HETATM   28  C   UNL     1      43.554 -18.045   4.456  1.00  0.00    -0.062 A 
HETATM   29  C   UNL     1      43.782 -19.231   5.347  1.00  0.00     0.048 C 
HETATM   30  C   UNL     1      43.431 -16.767   5.007  1.00  0.00     0.007 A 
HETATM   31  C   UNL     1      43.262 -15.651   4.181  1.00  0.00     0.010 A 
ENDBRANCH   1  25
BRANCH   8  32
HETATM   32  C   UNL     1      39.897 -14.871  -0.147  1.00  0.00     0.409 C 
HETATM   33  F   UNL     1      40.625 -14.766  -1.283  1.00  0.00    -0.169 F 
HETATM   34  F   UNL     1      39.173 -16.019  -0.264  1.00  0.00    -0.169 F 
HETATM   35  F   UNL     1      39.000 -13.866  -0.119  1.00  0.00    -0.169 F 
ENDBRANCH   8  32
TORSDOF 6
ENDMDL
MODEL 7
REMARK VINA RESULT:      -7.9      3.515      8.405
REMARK  6 active torsions:
REMARK  status: ('A' for Active; 'I' for Inactive)
REMARK    1  A    between atoms: C_5  and  C_6 
REMARK    2  A    between atoms: C_12  and  C_13 
REMARK       I    between atoms: C_13  and  N_14 
REMARK    3  A    between atoms: N_14  and  C_15 
REMARK    4  A    between atoms: C_18  and  C_19 
REMARK    5  A    between atoms: C_19  and  O_20 
REMARK    6  A    between atoms: C_25  and  C_26 
ROOT
HETATM    1  C   UNL     1      42.958 -12.233   2.799  1.00  0.00     0.118 C 
HETATM    2  N   UNL     1      42.902 -11.530   4.098  1.00  0.00    -0.365 N 
HETATM    3  C   UNL     1      41.701 -11.452   4.751  1.00  0.00     0.138 A 
HETATM    4  N   UNL     1      40.526 -11.786   4.115  1.00  0.00    -0.240 N 
HETATM    5  N   UNL     1      39.451 -11.740   4.912  1.00  0.00    -0.181 NA
HETATM    6  C   UNL     1      39.940 -11.273   6.063  1.00  0.00     0.160 A 
HETATM    7  C   UNL     1      41.342 -11.067   6.031  1.00  0.00     0.096 A 
HETATM    8  C   UNL     1      40.425 -12.179   2.719  1.00  0.00     0.221 C 
HETATM    9  C   UNL     1      41.727 -11.819   1.979  1.00  0.00     0.066 C 
HETATM   10  H   UNL     1      43.466 -10.677   4.082  1.00  0.00     0.161 HD
ENDROOT
BRANCH   7  11
HETATM   11  C   UNL     1      42.149 -10.578   7.140  1.00  0.00     0.261 C 
HETATM   12  N   UNL     1      41.459  -9.777   8.029  1.00  0.00    -0.323 N 
HETATM   13  H   UNL     1      40.515  -9.533   7.750  1.00  0.00     0.169 HD
HETATM   14  O   UNL     1      43.329 -10.898   7.228  1.00  0.00    -0.267 OA
BRANCH  12  15
HETATM   15  C   UNL     1      41.896  -9.310   9.284  1.00  0.00     0.035 A 
HETATM   16  C   UNL     1      43.198  -8.890   9.549  1.00  0.00     0.030 A 
HETATM   17  C   UNL     1      43.578  -8.498  10.842  1.00  0.00     0.012 A 
HETATM   18  C   UNL     1      42.665  -8.515  11.904  1.00  0.00    -0.030 A 
HETATM   19  C   UNL     1      41.354  -8.933  11.623  1.00  0.00     0.012 A 
HETATM   20  C   UNL     1      40.970  -9.312  10.331  1.00  0.00     0.030 A 
BRANCH  18  21
HETATM   21  C   UNL     1      43.062  -8.185  13.331  1.00  0.00     0.147 C 
HETATM   22  C   UNL     1      42.848  -6.736  13.767  1.00  0.00     0.044 C 
BRANCH  21  23
HETATM   23  O   UNL     1      42.328  -9.024  14.227  1.00  0.00    -0.391 OA
HETATM   24  H   UNL     1      41.456  -8.615  14.353  1.00  0.00     0.210 HD
ENDBRANCH  21  23
ENDBRANCH  18  21
ENDBRANCH  12  15
ENDBRANCH   7  11
BRANCH   1  25
HETATM   25  C   UNL     1      43.091 -13.749   2.930  1.00  0.00    -0.035 A 
HETATM   26  C   UNL     1      43.028 -14.420   4.161  1.00  0.00     0.010 A 
HETATM   27  C   UNL     1      43.086 -15.817   4.229  1.00  0.00     0.007 A 
HETATM   28  C   UNL     1      43.229 -16.580   3.069  1.00  0.00    -0.062 A 
HETATM   29  C   UNL     1      43.244 -18.079   3.125  1.00  0.00     0.048 C 
HETATM   30  C   UNL     1      43.327 -15.924   1.839  1.00  0.00     0.007 A 
HETATM   31  C   UNL     1      43.271 -14.528   1.773  1.00  0.00     0.010 A 
ENDBRANCH   1  25
BRANCH   8  32
HETATM   32  C   UNL     1      39.258 -11.510   2.023  1.00  0.00     0.409 C 
HETATM   33  F   UNL     1      39.419 -11.468   0.680  1.00  0.00    -0.169 F 
HETATM   34  F   UNL     1      38.125 -12.231   2.248  1.00  0.00    -0.169 F 
HETATM   35  F   UNL     1      39.000 -10.263   2.462  1.00  0.00    -0.169 F 
ENDBRANCH   8  32
TORSDOF 6
ENDMDL
MODEL 8
REMARK VINA RESULT:      -7.9      3.256      8.483
REMARK  6 active torsions:
REMARK  status: ('A' for Active; 'I' for Inactive)
REMARK    1  A    between atoms: C_5  and  C_6 
REMARK    2  A    between atoms: C_12  and  C_13 
REMARK       I    between atoms: C_13  and  N_14 
REMARK    3  A    between atoms: N_14  and  C_15 
REMARK    4  A    between atoms: C_18  and  C_19 
REMARK    5  A    between atoms: C_19  and  O_20 
REMARK    6  A    between atoms: C_25  and  C_26 
ROOT
HETATM    1  C   UNL     1      43.631 -15.690   2.320  1.00  0.00     0.118 C 
HETATM    2  N   UNL     1      43.527 -14.444   3.109  1.00  0.00    -0.365 N 
HETATM    3  C   UNL     1      42.303 -14.083   3.604  1.00  0.00     0.138 A 
HETATM    4  N   UNL     1      41.152 -14.708   3.177  1.00  0.00    -0.240 N 
HETATM    5  N   UNL     1      40.049 -14.302   3.817  1.00  0.00    -0.181 NA
HETATM    6  C   UNL     1      40.494 -13.324   4.609  1.00  0.00     0.160 A 
HETATM    7  C   UNL     1      41.895 -13.131   4.523  1.00  0.00     0.096 A 
HETATM    8  C   UNL     1      41.103 -15.733   2.147  1.00  0.00     0.221 C 
HETATM    9  C   UNL     1      42.431 -15.753   1.365  1.00  0.00     0.066 C 
HETATM   10  H   UNL     1      44.088 -13.695   2.696  1.00  0.00     0.161 HD
ENDROOT
BRANCH   7  11
HETATM   11  C   UNL     1      42.660 -12.147   5.276  1.00  0.00     0.261 C 
HETATM   12  N   UNL     1      41.944 -11.524   6.280  1.00  0.00    -0.323 N 
HETATM   13  H   UNL     1      40.953 -11.737   6.302  1.00  0.00     0.169 HD
HETATM   14  O   UNL     1      43.839 -11.947   5.004  1.00  0.00    -0.267 OA
BRANCH  12  15
HETATM   15  C   UNL     1      42.439 -10.678   7.292  1.00  0.00     0.035 A 
HETATM   16  C   UNL     1      43.611 -10.920   8.007  1.00  0.00     0.030 A 
HETATM   17  C   UNL     1      44.008 -10.066   9.046  1.00  0.00     0.012 A 
HETATM   18  C   UNL     1      43.245  -8.946   9.398  1.00  0.00    -0.030 A 
HETATM   19  C   UNL     1      42.071  -8.708   8.666  1.00  0.00     0.012 A 
HETATM   20  C   UNL     1      41.680  -9.552   7.619  1.00  0.00     0.030 A 
BRANCH  18  21
HETATM   21  C   UNL     1      43.596  -8.051  10.574  1.00  0.00     0.147 C 
HETATM   22  C   UNL     1      42.516  -7.063  11.008  1.00  0.00     0.044 C 
BRANCH  21  23
HETATM   23  O   UNL     1      43.921  -8.868  11.702  1.00  0.00    -0.391 OA
HETATM   24  H   UNL     1      43.916  -8.291  12.484  1.00  0.00     0.210 HD
ENDBRANCH  21  23
ENDBRANCH  18  21
ENDBRANCH  12  15
ENDBRANCH   7  11
BRANCH   1  25
HETATM   25  C   UNL     1      43.765 -16.946   3.177  1.00  0.00    -0.035 A 
HETATM   26  C   UNL     1      43.869 -16.912   4.577  1.00  0.00     0.010 A 
HETATM   27  C   UNL     1      43.920 -18.092   5.329  1.00  0.00     0.007 A 
HETATM   28  C   UNL     1      43.888 -19.338   4.700  1.00  0.00    -0.062 A 
HETATM   29  C   UNL     1      43.894 -20.607   5.500  1.00  0.00     0.048 C 
HETATM   30  C   UNL     1      43.818 -19.387   3.306  1.00  0.00     0.007 A 
HETATM   31  C   UNL     1      43.769 -18.208   2.555  1.00  0.00     0.010 A 
ENDBRANCH   1  25
BRANCH   8  32
HETATM   32  C   UNL     1      39.960 -15.512   1.178  1.00  0.00     0.409 C 
HETATM   33  F   UNL     1      39.070 -14.602   1.635  1.00  0.00    -0.169 F 
HETATM   34  F   UNL     1      40.450 -15.013   0.010  1.00  0.00    -0.169 F 
HETATM   35  F   UNL     1      39.294 -16.637   0.852  1.00  0.00    -0.169 F 
ENDBRANCH   8  32
TORSDOF 6
ENDMDL
MODEL 9
REMARK VINA RESULT:      -7.8     10.104     14.004
REMARK  6 active torsions:
REMARK  status: ('A' for Active; 'I' for Inactive)
REMARK    1  A    between atoms: C_5  and  C_6 
REMARK    2  A    between atoms: C_12  and  C_13 
REMARK       I    between atoms: C_13  and  N_14 
REMARK    3  A    between atoms: N_14  and  C_15 
REMARK    4  A    between atoms: C_18  and  C_19 
REMARK    5  A    between atoms: C_19  and  O_20 
REMARK    6  A    between atoms: C_25  and  C_26 
ROOT
HETATM    1  C   UNL     1      39.602  -8.998  12.064  1.00  0.00     0.118 C 
HETATM    2  N   UNL     1      39.843  -8.635  13.477  1.00  0.00    -0.365 N 
HETATM    3  C   UNL     1      41.069  -8.135  13.825  1.00  0.00     0.138 A 
HETATM    4  N   UNL     1      42.135  -8.202  12.955  1.00  0.00    -0.240 N 
HETATM    5  N   UNL     1      43.239  -7.594  13.408  1.00  0.00    -0.181 NA
HETATM    6  C   UNL     1      42.896  -7.210  14.640  1.00  0.00     0.160 A 
HETATM    7  C   UNL     1      41.553  -7.521  14.968  1.00  0.00     0.096 A 
HETATM    8  C   UNL     1      42.098  -8.842  11.651  1.00  0.00     0.221 C 
HETATM    9  C   UNL     1      40.845  -9.733  11.541  1.00  0.00     0.066 C 
HETATM   10  H   UNL     1      39.438  -9.327  14.112  1.00  0.00     0.161 HD
ENDROOT
BRANCH   7  11
HETATM   11  C   UNL     1      40.899  -7.214  16.232  1.00  0.00     0.261 C 
HETATM   12  N   UNL     1      41.032  -8.201  17.190  1.00  0.00    -0.323 N 
HETATM   13  H   UNL     1      41.464  -9.060  16.869  1.00  0.00     0.169 HD
HETATM   14  O   UNL     1      40.311  -6.148  16.376  1.00  0.00    -0.267 OA
BRANCH  12  15
HETATM   15  C   UNL     1      40.685  -8.130  18.553  1.00  0.00     0.035 A 
HETATM   16  C   UNL     1      39.448  -8.518  19.064  1.00  0.00     0.030 A 
HETATM   17  C   UNL     1      39.150  -8.359  20.425  1.00  0.00     0.012 A 
HETATM   18  C   UNL     1      40.082  -7.806  21.313  1.00  0.00    -0.030 A 
HETATM   19  C   UNL     1      41.328  -7.426  20.789  1.00  0.00     0.012 A 
HETATM   20  C   UNL     1      41.631  -7.597  19.432  1.00  0.00     0.030 A 
BRANCH  18  21
HETATM   21  C   UNL     1      39.764  -7.536  22.772  1.00  0.00     0.147 C 
HETATM   22  C   UNL     1      39.350  -6.105  23.112  1.00  0.00     0.044 C 
BRANCH  21  23
HETATM   23  O   UNL     1      38.710  -8.407  23.190  1.00  0.00    -0.391 OA
HETATM   24  H   UNL     1      38.070  -8.453  22.461  1.00  0.00     0.210 HD
ENDBRANCH  21  23
ENDBRANCH  18  21
ENDBRANCH  12  15
ENDBRANCH   7  11
BRANCH   1  25
HETATM   25  C   UNL     1      39.210  -7.812  11.187  1.00  0.00    -0.035 A 
HETATM   26  C   UNL     1      38.963  -6.528  11.699  1.00  0.00     0.010 A 
HETATM   27  C   UNL     1      38.674  -5.453  10.851  1.00  0.00     0.007 A 
HETATM   28  C   UNL     1      38.604  -5.635   9.469  1.00  0.00    -0.062 A 
HETATM   29  C   UNL     1      38.343  -4.480   8.548  1.00  0.00     0.048 C 
HETATM   30  C   UNL     1      38.814  -6.914   8.947  1.00  0.00     0.007 A 
HETATM   31  C   UNL     1      39.102  -7.988   9.795  1.00  0.00     0.010 A 
ENDBRANCH   1  25
BRANCH   8  32
HETATM   32  C   UNL     1      43.329  -9.687  11.396  1.00  0.00     0.409 C 
HETATM   33  F   UNL     1      43.542 -10.593  12.378  1.00  0.00    -0.169 F 
HETATM   34  F   UNL     1      43.156 -10.401  10.250  1.00  0.00    -0.169 F 
HETATM   35  F   UNL     1      44.458  -8.971  11.222  1.00  0.00    -0.169 F 
ENDBRANCH   8  32
TORSDOF 6
ENDMDL
MODEL 10
REMARK VINA RESULT:      -7.7      4.294      9.255
REMARK  6 active torsions:
REMARK  status: ('A' for Active; 'I' for Inactive)
REMARK    1  A    between atoms: C_5  and  C_6 
REMARK    2  A    between atoms: C_12  and  C_13 
REMARK       I    between atoms: C_13  and  N_14 
REMARK    3  A    between atoms: N_14  and  C_15 
REMARK    4  A    between atoms: C_18  and  C_19 
REMARK    5  A    between atoms: C_19  and  O_20 
REMARK    6  A    between atoms: C_25  and  C_26 
ROOT
HETATM    1  C   UNL     1      39.525 -14.836   2.112  1.00  0.00     0.118 C 
HETATM    2  N   UNL     1      39.540 -14.113   3.401  1.00  0.00    -0.365 N 
HETATM    3  C   UNL     1      40.732 -13.973   4.060  1.00  0.00     0.138 A 
HETATM    4  N   UNL     1      41.842 -14.696   3.679  1.00  0.00    -0.240 N 
HETATM    5  N   UNL     1      42.949 -14.383   4.365  1.00  0.00    -0.181 NA
HETATM    6  C   UNL     1      42.513 -13.506   5.272  1.00  0.00     0.160 A 
HETATM    7  C   UNL     1      41.133 -13.207   5.141  1.00  0.00     0.096 A 
HETATM    8  C   UNL     1      41.855 -15.693   2.622  1.00  0.00     0.221 C 
HETATM    9  C   UNL     1      40.410 -16.082   2.252  1.00  0.00     0.066 C 
HETATM   10  H   UNL     1      38.731 -14.361   3.975  1.00  0.00     0.161 HD
ENDROOT
BRANCH   7  11
HETATM   11  C   UNL     1      40.387 -12.280   5.980  1.00  0.00     0.261 C 
HETATM   12  N   UNL     1      41.075 -11.124   6.294  1.00  0.00    -0.323 N 
HETATM   13  H   UNL     1      42.047 -11.107   6.005  1.00  0.00     0.169 HD
HETATM   14  O   UNL     1      39.244 -12.553   6.329  1.00  0.00    -0.267 OA
BRANCH  12  15
HETATM   15  C   UNL     1      40.572  -9.966   6.918  1.00  0.00     0.035 A 
HETATM   16  C   UNL     1      40.849  -9.606   8.235  1.00  0.00     0.030 A 
HETATM   17  C   UNL     1      40.261  -8.470   8.810  1.00  0.00     0.012 A 
HETATM   18  C   UNL     1      39.379  -7.662   8.082  1.00  0.00    -0.030 A 
HETATM   19  C   UNL     1      39.113  -8.029   6.753  1.00  0.00     0.012 A 
HETATM   20  C   UNL     1      39.711  -9.156   6.174  1.00  0.00     0.030 A 
BRANCH  18  21
HETATM   21  C   UNL     1      38.654  -6.478   8.696  1.00  0.00     0.147 C 
HETATM   22  C   UNL     1      38.837  -6.290  10.201  1.00  0.00     0.044 C 
BRANCH  21  23
HETATM   23  O   UNL     1      39.087  -5.278   8.050  1.00  0.00    -0.391 OA
HETATM   24  H   UNL     1      39.572  -5.542   7.250  1.00  0.00     0.210 HD
ENDBRANCH  21  23
ENDBRANCH  18  21
ENDBRANCH  12  15
ENDBRANCH   7  11
BRANCH   1  25
HETATM   25  C   UNL     1      39.920 -13.967   0.920  1.00  0.00    -0.035 A 
HETATM   26  C   UNL     1      40.367 -12.642   1.052  1.00  0.00     0.010 A 
HETATM   27  C   UNL     1      40.785 -11.905  -0.062  1.00  0.00     0.007 A 
HETATM   28  C   UNL     1      40.749 -12.464  -1.340  1.00  0.00    -0.062 A 
HETATM   29  C   UNL     1      41.240 -11.699  -2.533  1.00  0.00     0.048 C 
HETATM   30  C   UNL     1      40.275 -13.770  -1.491  1.00  0.00     0.007 A 
HETATM   31  C   UNL     1      39.856 -14.505  -0.378  1.00  0.00     0.010 A 
ENDBRANCH   1  25
BRANCH   8  32
HETATM   32  C   UNL     1      42.616 -16.938   3.024  1.00  0.00     0.409 C 
HETATM   33  F   UNL     1      42.445 -17.244   4.331  1.00  0.00    -0.169 F 
HETATM   34  F   UNL     1      42.144 -18.003   2.318  1.00  0.00    -0.169 F 
HETATM   35  F   UNL     1      43.938 -16.879   2.768  1.00  0.00    -0.169 F 
ENDBRANCH   8  32
TORSDOF 6
ENDMDL
