MODEL 1
REMARK VINA RESULT:      -9.1      0.000      0.000
REMARK  2 active torsions:
REMARK  status: ('A' for Active; 'I' for Inactive)
REMARK    1  A    between atoms: C_8  and  C_9 
REMARK       I    between atoms: N_10  and  C_11 
REMARK    2  A    between atoms: C_11  and  C_12 
ROOT
HETATM    1  C   UNL     1      41.213 -12.625   2.397  1.00  0.00     0.124 C 
HETATM    2  N   UNL     1      41.562 -13.965   2.863  1.00  0.00    -0.339 N 
HETATM    3  C   UNL     1      42.846 -14.439   2.694  1.00  0.00     0.260 C 
HETATM    4  O   UNL     1      43.719 -13.782   2.123  1.00  0.00    -0.267 OA
HETATM    5  C   UNL     1      40.553 -14.475   3.782  1.00  0.00     0.127 C 
HETATM    6  C   UNL     1      39.337 -13.591   3.552  1.00  0.00     0.022 C 
HETATM    7  C   UNL     1      39.960 -12.248   3.200  1.00  0.00     0.032 C 
ENDROOT
BRANCH   1   8
HETATM    8  C   UNL     1      40.989 -12.562   0.910  1.00  0.00     0.014 A 
HETATM    9  C   UNL     1      40.568 -13.518  -0.003  1.00  0.00     0.034 A 
HETATM   10  C   UNL     1      40.208 -14.949   0.117  1.00  0.00     0.070 C 
HETATM   11  N   UNL     1      40.568 -12.901  -1.223  1.00  0.00    -0.282 N 
HETATM   12  H   UNL     1      40.340 -13.305  -2.124  1.00  0.00     0.189 HD
HETATM   13  N   UNL     1      40.914 -11.610  -1.181  1.00  0.00    -0.179 NA
HETATM   14  C   UNL     1      41.200 -11.396   0.106  1.00  0.00     0.061 A 
HETATM   15  C   UNL     1      41.672 -10.058   0.543  1.00  0.00     0.073 C 
ENDBRANCH   1   8
BRANCH   3  16
HETATM   16  C   UNL     1      43.223 -15.738   3.310  1.00  0.00     0.108 A 
HETATM   17  C   UNL     1      43.512 -15.898   4.750  1.00  0.00     0.304 A 
HETATM   18  O   UNL     1      43.468 -14.970   5.550  1.00  0.00    -0.259 OA
HETATM   19  O   UNL     1      43.865 -17.178   5.179  1.00  0.00    -0.274 OA
HETATM   20  C   UNL     1      43.795 -18.290   4.321  1.00  0.00     0.089 A 
HETATM   21  C   UNL     1      43.441 -18.133   2.985  1.00  0.00    -0.001 A 
HETATM   22  C   UNL     1      44.066 -19.541   4.866  1.00  0.00     0.038 A 
HETATM   23  C   UNL     1      43.345 -19.266   2.175  1.00  0.00     0.014 A 
HETATM   24  C   UNL     1      43.174 -16.796   2.486  1.00  0.00     0.037 A 
HETATM   25  C   UNL     1      43.605 -20.532   2.710  1.00  0.00     0.001 A 
HETATM   26  C   UNL     1      43.968 -20.669   4.052  1.00  0.00     0.003 A 
ENDBRANCH   3  16
TORSDOF 2
ENDMDL
MODEL 2
REMARK VINA RESULT:      -8.5      4.310      7.329
REMARK  2 active torsions:
REMARK  status: ('A' for Active; 'I' for Inactive)
REMARK    1  A    between atoms: C_8  and  C_9 
REMARK       I    between atoms: N_10  and  C_11 
REMARK    2  A    between atoms: C_11  and  C_12 
ROOT
HETATM    1  C   UNL     1      41.747 -15.753   4.540  1.00  0.00     0.124 C 
HETATM    2  N   UNL     1      42.045 -14.565   5.337  1.00  0.00    -0.339 N 
HETATM    3  C   UNL     1      42.812 -13.553   4.801  1.00  0.00     0.260 C 
HETATM    4  O   UNL     1      43.298 -13.624   3.671  1.00  0.00    -0.267 OA
HETATM    5  C   UNL     1      41.158 -14.478   6.491  1.00  0.00     0.127 C 
HETATM    6  C   UNL     1      40.573 -15.873   6.637  1.00  0.00     0.022 C 
HETATM    7  C   UNL     1      40.497 -16.357   5.196  1.00  0.00     0.032 C 
ENDROOT
BRANCH   1   8
HETATM    8  C   UNL     1      42.896 -16.721   4.480  1.00  0.00     0.014 A 
HETATM    9  C   UNL     1      43.918 -17.001   5.376  1.00  0.00     0.034 A 
HETATM   10  C   UNL     1      44.287 -16.451   6.701  1.00  0.00     0.070 C 
HETATM   11  N   UNL     1      44.690 -17.960   4.782  1.00  0.00    -0.282 N 
HETATM   12  H   UNL     1      45.539 -18.384   5.139  1.00  0.00     0.189 HD
HETATM   13  N   UNL     1      44.238 -18.362   3.591  1.00  0.00    -0.179 NA
HETATM   14  C   UNL     1      43.163 -17.598   3.380  1.00  0.00     0.061 A 
HETATM   15  C   UNL     1      42.402 -17.731   2.112  1.00  0.00     0.073 C 
ENDBRANCH   1   8
BRANCH   3  16
HETATM   16  C   UNL     1      42.976 -12.288   5.566  1.00  0.00     0.108 A 
HETATM   17  C   UNL     1      41.940 -11.237   5.624  1.00  0.00     0.304 A 
HETATM   18  O   UNL     1      40.865 -11.323   5.042  1.00  0.00    -0.259 OA
HETATM   19  O   UNL     1      42.243 -10.101   6.374  1.00  0.00    -0.274 OA
HETATM   20  C   UNL     1      43.405 -10.025   7.163  1.00  0.00     0.089 A 
HETATM   21  C   UNL     1      44.333 -11.060   7.160  1.00  0.00    -0.001 A 
HETATM   22  C   UNL     1      43.571  -8.894   7.957  1.00  0.00     0.038 A 
HETATM   23  C   UNL     1      45.454 -10.964   7.986  1.00  0.00     0.014 A 
HETATM   24  C   UNL     1      44.094 -12.209   6.305  1.00  0.00     0.037 A 
HETATM   25  C   UNL     1      45.630  -9.838   8.797  1.00  0.00     0.001 A 
HETATM   26  C   UNL     1      44.692  -8.803   8.780  1.00  0.00     0.003 A 
ENDBRANCH   3  16
TORSDOF 2
ENDMDL
MODEL 3
REMARK VINA RESULT:      -8.4      1.710      1.989
REMARK  2 active torsions:
REMARK  status: ('A' for Active; 'I' for Inactive)
REMARK    1  A    between atoms: C_8  and  C_9 
REMARK       I    between atoms: N_10  and  C_11 
REMARK    2  A    between atoms: C_11  and  C_12 
ROOT
HETATM    1  C   UNL     1      41.345 -12.583   4.761  1.00  0.00     0.124 C 
HETATM    2  N   UNL     1      41.717 -13.997   4.737  1.00  0.00    -0.339 N 
HETATM    3  C   UNL     1      42.838 -14.401   4.043  1.00  0.00     0.260 C 
HETATM    4  O   UNL     1      43.533 -13.612   3.400  1.00  0.00    -0.267 OA
HETATM    5  C   UNL     1      41.016 -14.736   5.779  1.00  0.00     0.127 C 
HETATM    6  C   UNL     1      39.864 -13.831   6.188  1.00  0.00     0.022 C 
HETATM    7  C   UNL     1      40.449 -12.439   5.998  1.00  0.00     0.032 C 
ENDROOT
BRANCH   1   8
HETATM    8  C   UNL     1      40.666 -12.135   3.496  1.00  0.00     0.014 A 
HETATM    9  C   UNL     1      39.950 -12.832   2.534  1.00  0.00     0.034 A 
HETATM   10  C   UNL     1      39.605 -14.262   2.361  1.00  0.00     0.070 C 
HETATM   11  N   UNL     1      39.583 -11.910   1.593  1.00  0.00    -0.282 N 
HETATM   12  H   UNL     1      39.070 -12.069   0.733  1.00  0.00     0.189 HD
HETATM   13  N   UNL     1      39.961 -10.661   1.879  1.00  0.00    -0.179 NA
HETATM   14  C   UNL     1      40.646 -10.785   3.019  1.00  0.00     0.061 A 
HETATM   15  C   UNL     1      41.270  -9.588   3.639  1.00  0.00     0.073 C 
ENDBRANCH   1   8
BRANCH   3  16
HETATM   16  C   UNL     1      43.287 -15.813   4.157  1.00  0.00     0.108 A 
HETATM   17  C   UNL     1      43.945 -16.360   5.361  1.00  0.00     0.304 A 
HETATM   18  O   UNL     1      44.177 -15.690   6.361  1.00  0.00    -0.259 OA
HETATM   19  O   UNL     1      44.320 -17.703   5.314  1.00  0.00    -0.274 OA
HETATM   20  C   UNL     1      43.951 -18.536   4.243  1.00  0.00     0.089 A 
HETATM   21  C   UNL     1      43.259 -18.022   3.151  1.00  0.00    -0.001 A 
HETATM   22  C   UNL     1      44.282 -19.885   4.333  1.00  0.00     0.038 A 
HETATM   23  C   UNL     1      42.877 -18.889   2.126  1.00  0.00     0.014 A 
HETATM   24  C   UNL     1      42.950 -16.604   3.125  1.00  0.00     0.037 A 
HETATM   25  C   UNL     1      43.194 -20.249   2.206  1.00  0.00     0.001 A 
HETATM   26  C   UNL     1      43.898 -20.745   3.306  1.00  0.00     0.003 A 
ENDBRANCH   3  16
TORSDOF 2
ENDMDL
MODEL 4
REMARK VINA RESULT:      -8.3      2.927      4.500
REMARK  2 active torsions:
REMARK  status: ('A' for Active; 'I' for Inactive)
REMARK    1  A    between atoms: C_8  and  C_9 
REMARK       I    between atoms: N_10  and  C_11 
REMARK    2  A    between atoms: C_11  and  C_12 
ROOT
HETATM    1  C   UNL     1      41.217 -11.652   4.539  1.00  0.00     0.124 C 
HETATM    2  N   UNL     1      42.071 -12.837   4.477  1.00  0.00    -0.339 N 
HETATM    3  C   UNL     1      41.653 -14.016   5.055  1.00  0.00     0.260 C 
HETATM    4  O   UNL     1      40.587 -14.108   5.666  1.00  0.00    -0.267 OA
HETATM    5  C   UNL     1      43.113 -12.672   3.471  1.00  0.00     0.127 C 
HETATM    6  C   UNL     1      43.156 -11.177   3.197  1.00  0.00     0.022 C 
HETATM    7  C   UNL     1      41.706 -10.760   3.390  1.00  0.00     0.032 C 
ENDROOT
BRANCH   1   8
HETATM    8  C   UNL     1      41.270 -10.961   5.874  1.00  0.00     0.014 A 
HETATM    9  C   UNL     1      42.320 -10.721   6.749  1.00  0.00     0.034 A 
HETATM   10  C   UNL     1      43.760 -11.066   6.729  1.00  0.00     0.070 C 
HETATM   11  N   UNL     1      41.777 -10.068   7.821  1.00  0.00    -0.282 N 
HETATM   12  H   UNL     1      42.247  -9.759   8.665  1.00  0.00     0.189 HD
HETATM   13  N   UNL     1      40.468  -9.823   7.703  1.00  0.00    -0.179 NA
HETATM   14  C   UNL     1      40.140 -10.385   6.537  1.00  0.00     0.061 A 
HETATM   15  C   UNL     1      38.729 -10.353   6.075  1.00  0.00     0.073 C 
ENDBRANCH   1   8
BRANCH   3  16
HETATM   16  C   UNL     1      42.461 -15.247   4.848  1.00  0.00     0.108 A 
HETATM   17  C   UNL     1      43.441 -15.748   5.834  1.00  0.00     0.304 A 
HETATM   18  O   UNL     1      43.668 -15.185   6.898  1.00  0.00    -0.259 OA
HETATM   19  O   UNL     1      44.131 -16.911   5.493  1.00  0.00    -0.274 OA
HETATM   20  C   UNL     1      43.802 -17.657   4.347  1.00  0.00     0.089 A 
HETATM   21  C   UNL     1      42.819 -17.213   3.471  1.00  0.00    -0.001 A 
HETATM   22  C   UNL     1      44.477 -18.858   4.146  1.00  0.00     0.038 A 
HETATM   23  C   UNL     1      42.494 -18.002   2.365  1.00  0.00     0.014 A 
HETATM   24  C   UNL     1      42.158 -15.949   3.744  1.00  0.00     0.037 A 
HETATM   25  C   UNL     1      43.156 -19.215   2.154  1.00  0.00     0.001 A 
HETATM   26  C   UNL     1      44.148 -19.641   3.041  1.00  0.00     0.003 A 
ENDBRANCH   3  16
TORSDOF 2
ENDMDL
MODEL 5
REMARK VINA RESULT:      -8.1      3.060      4.751
REMARK  2 active torsions:
REMARK  status: ('A' for Active; 'I' for Inactive)
REMARK    1  A    between atoms: C_8  and  C_9 
REMARK       I    between atoms: N_10  and  C_11 
REMARK    2  A    between atoms: C_11  and  C_12 
ROOT
HETATM    1  C   UNL     1      40.848 -11.286   4.419  1.00  0.00     0.124 C 
HETATM    2  N   UNL     1      41.386 -12.566   3.960  1.00  0.00    -0.339 N 
HETATM    3  C   UNL     1      40.899 -13.744   4.485  1.00  0.00     0.260 C 
HETATM    4  O   UNL     1      40.039 -13.765   5.367  1.00  0.00    -0.267 OA
HETATM    5  C   UNL     1      42.134 -12.399   2.720  1.00  0.00     0.127 C 
HETATM    6  C   UNL     1      42.416 -10.908   2.634  1.00  0.00     0.022 C 
HETATM    7  C   UNL     1      41.191 -10.296   3.297  1.00  0.00     0.032 C 
ENDROOT
BRANCH   1   8
HETATM    8  C   UNL     1      41.399 -10.864   5.754  1.00  0.00     0.014 A 
HETATM    9  C   UNL     1      42.619 -11.106   6.369  1.00  0.00     0.034 A 
HETATM   10  C   UNL     1      43.820 -11.879   5.977  1.00  0.00     0.070 C 
HETATM   11  N   UNL     1      42.557 -10.491   7.588  1.00  0.00    -0.282 N 
HETATM   12  H   UNL     1      43.262 -10.481   8.317  1.00  0.00     0.189 HD
HETATM   13  N   UNL     1      41.415  -9.831   7.807  1.00  0.00    -0.179 NA
HETATM   14  C   UNL     1      40.690 -10.072   6.712  1.00  0.00     0.061 A 
HETATM   15  C   UNL     1      39.313  -9.526   6.605  1.00  0.00     0.073 C 
ENDBRANCH   1   8
BRANCH   3  16
HETATM   16  C   UNL     1      41.346 -15.035   3.897  1.00  0.00     0.108 A 
HETATM   17  C   UNL     1      40.810 -15.577   2.632  1.00  0.00     0.304 A 
HETATM   18  O   UNL     1      39.952 -15.007   1.969  1.00  0.00    -0.259 OA
HETATM   19  O   UNL     1      41.319 -16.807   2.214  1.00  0.00    -0.274 OA
HETATM   20  C   UNL     1      42.398 -17.423   2.873  1.00  0.00     0.089 A 
HETATM   21  C   UNL     1      42.945 -16.856   4.019  1.00  0.00    -0.001 A 
HETATM   22  C   UNL     1      42.904 -18.596   2.322  1.00  0.00     0.038 A 
HETATM   23  C   UNL     1      44.040 -17.478   4.623  1.00  0.00     0.014 A 
HETATM   24  C   UNL     1      42.363 -15.631   4.538  1.00  0.00     0.037 A 
HETATM   25  C   UNL     1      44.566 -18.652   4.075  1.00  0.00     0.001 A 
HETATM   26  C   UNL     1      43.997 -19.212   2.929  1.00  0.00     0.003 A 
ENDBRANCH   3  16
TORSDOF 2
ENDMDL
MODEL 6
REMARK VINA RESULT:      -8.0      2.272      3.108
REMARK  2 active torsions:
REMARK  status: ('A' for Active; 'I' for Inactive)
REMARK    1  A    between atoms: C_8  and  C_9 
REMARK       I    between atoms: N_10  and  C_11 
REMARK    2  A    between atoms: C_11  and  C_12 
ROOT
HETATM    1  C   UNL     1      40.438 -12.084   0.690  1.00  0.00     0.124 C 
HETATM    2  N   UNL     1      41.008 -12.900   1.760  1.00  0.00    -0.339 N 
HETATM    3  C   UNL     1      40.652 -14.227   1.876  1.00  0.00     0.260 C 
HETATM    4  O   UNL     1      39.830 -14.755   1.124  1.00  0.00    -0.267 OA
HETATM    5  C   UNL     1      42.174 -12.250   2.345  1.00  0.00     0.127 C 
HETATM    6  C   UNL     1      42.072 -10.799   1.902  1.00  0.00     0.022 C 
HETATM    7  C   UNL     1      41.417 -10.912   0.533  1.00  0.00     0.032 C 
ENDROOT
BRANCH   1   8
HETATM    8  C   UNL     1      39.034 -11.632   0.982  1.00  0.00     0.014 A 
HETATM    9  C   UNL     1      38.441 -11.144   2.138  1.00  0.00     0.034 A 
HETATM   10  C   UNL     1      38.937 -10.909   3.513  1.00  0.00     0.070 C 
HETATM   11  N   UNL     1      37.131 -10.914   1.823  1.00  0.00    -0.282 N 
HETATM   12  H   UNL     1      36.393 -10.580   2.433  1.00  0.00     0.189 HD
HETATM   13  N   UNL     1      36.824 -11.170   0.547  1.00  0.00    -0.179 NA
HETATM   14  C   UNL     1      37.964 -11.634   0.029  1.00  0.00     0.061 A 
HETATM   15  C   UNL     1      38.007 -12.071  -1.389  1.00  0.00     0.073 C 
ENDBRANCH   1   8
BRANCH   3  16
HETATM   16  C   UNL     1      41.355 -15.079   2.871  1.00  0.00     0.108 A 
HETATM   17  C   UNL     1      41.143 -14.966   4.328  1.00  0.00     0.304 A 
HETATM   18  O   UNL     1      40.373 -14.157   4.833  1.00  0.00    -0.259 OA
HETATM   19  O   UNL     1      41.885 -15.828   5.136  1.00  0.00    -0.274 OA
HETATM   20  C   UNL     1      42.673 -16.857   4.591  1.00  0.00     0.089 A 
HETATM   21  C   UNL     1      42.797 -17.001   3.214  1.00  0.00    -0.001 A 
HETATM   22  C   UNL     1      43.294 -17.731   5.479  1.00  0.00     0.038 A 
HETATM   23  C   UNL     1      43.557 -18.059   2.711  1.00  0.00     0.014 A 
HETATM   24  C   UNL     1      42.122 -16.050   2.349  1.00  0.00     0.037 A 
HETATM   25  C   UNL     1      44.180 -18.951   3.590  1.00  0.00     0.001 A 
HETATM   26  C   UNL     1      44.051 -18.785   4.971  1.00  0.00     0.003 A 
ENDBRANCH   3  16
TORSDOF 2
ENDMDL
MODEL 7
REMARK VINA RESULT:      -8.0      4.186      6.260
REMARK  2 active torsions:
REMARK  status: ('A' for Active; 'I' for Inactive)
REMARK    1  A    between atoms: C_8  and  C_9 
REMARK       I    between atoms: N_10  and  C_11 
REMARK    2  A    between atoms: C_11  and  C_12 
ROOT
HETATM    1  C   UNL     1      40.961 -14.439   4.066  1.00  0.00     0.124 C 
HETATM    2  N   UNL     1      42.129 -13.811   4.680  1.00  0.00    -0.339 N 
HETATM    3  C   UNL     1      42.170 -12.443   4.838  1.00  0.00     0.260 C 
HETATM    4  O   UNL     1      41.264 -11.707   4.442  1.00  0.00    -0.267 OA
HETATM    5  C   UNL     1      42.944 -14.800   5.375  1.00  0.00     0.127 C 
HETATM    6  C   UNL     1      42.486 -16.139   4.819  1.00  0.00     0.022 C 
HETATM    7  C   UNL     1      41.010 -15.899   4.538  1.00  0.00     0.032 C 
ENDROOT
BRANCH   1   8
HETATM    8  C   UNL     1      40.949 -14.314   2.567  1.00  0.00     0.014 A 
HETATM    9  C   UNL     1      41.813 -14.794   1.593  1.00  0.00     0.034 A 
HETATM   10  C   UNL     1      43.071 -15.574   1.644  1.00  0.00     0.070 C 
HETATM   11  N   UNL     1      41.316 -14.355   0.397  1.00  0.00    -0.282 N 
HETATM   12  H   UNL     1      41.706 -14.495  -0.528  1.00  0.00     0.189 HD
HETATM   13  N   UNL     1      40.177 -13.663   0.502  1.00  0.00    -0.179 NA
HETATM   14  C   UNL     1      39.956 -13.606   1.818  1.00  0.00     0.061 A 
HETATM   15  C   UNL     1      38.777 -12.867   2.336  1.00  0.00     0.073 C 
ENDBRANCH   1   8
BRANCH   3  16
HETATM   16  C   UNL     1      43.293 -11.837   5.602  1.00  0.00     0.108 A 
HETATM   17  C   UNL     1      44.567 -11.426   4.980  1.00  0.00     0.304 A 
HETATM   18  O   UNL     1      44.802 -11.555   3.784  1.00  0.00    -0.259 OA
HETATM   19  O   UNL     1      45.532 -10.882   5.830  1.00  0.00    -0.274 OA
HETATM   20  C   UNL     1      45.251 -10.594   7.177  1.00  0.00     0.089 A 
HETATM   21  C   UNL     1      44.015 -10.914   7.727  1.00  0.00    -0.001 A 
HETATM   22  C   UNL     1      46.242  -9.958   7.919  1.00  0.00     0.038 A 
HETATM   23  C   UNL     1      43.761 -10.576   9.058  1.00  0.00     0.014 A 
HETATM   24  C   UNL     1      43.029 -11.579   6.893  1.00  0.00     0.037 A 
HETATM   25  C   UNL     1      44.743  -9.928   9.814  1.00  0.00     0.001 A 
HETATM   26  C   UNL     1      45.982  -9.623   9.247  1.00  0.00     0.003 A 
ENDBRANCH   3  16
TORSDOF 2
ENDMDL
MODEL 8
REMARK VINA RESULT:      -7.9      2.837      6.932
REMARK  2 active torsions:
REMARK  status: ('A' for Active; 'I' for Inactive)
REMARK    1  A    between atoms: C_8  and  C_9 
REMARK       I    between atoms: N_10  and  C_11 
REMARK    2  A    between atoms: C_11  and  C_12 
ROOT
HETATM    1  C   UNL     1      42.140 -15.021   4.579  1.00  0.00     0.124 C 
HETATM    2  N   UNL     1      41.617 -14.316   3.410  1.00  0.00    -0.339 N 
HETATM    3  C   UNL     1      40.464 -14.759   2.799  1.00  0.00     0.260 C 
HETATM    4  O   UNL     1      39.862 -15.764   3.181  1.00  0.00    -0.267 OA
HETATM    5  C   UNL     1      42.229 -12.999   3.282  1.00  0.00     0.127 C 
HETATM    6  C   UNL     1      43.469 -13.060   4.160  1.00  0.00     0.022 C 
HETATM    7  C   UNL     1      43.039 -13.994   5.282  1.00  0.00     0.032 C 
ENDROOT
BRANCH   1   8
HETATM    8  C   UNL     1      42.871 -16.286   4.223  1.00  0.00     0.014 A 
HETATM    9  C   UNL     1      43.365 -16.759   3.015  1.00  0.00     0.034 A 
HETATM   10  C   UNL     1      43.344 -16.232   1.631  1.00  0.00     0.070 C 
HETATM   11  N   UNL     1      43.920 -17.979   3.286  1.00  0.00    -0.282 N 
HETATM   12  H   UNL     1      44.353 -18.624   2.635  1.00  0.00     0.189 HD
HETATM   13  N   UNL     1      43.868 -18.326   4.576  1.00  0.00    -0.179 NA
HETATM   14  C   UNL     1      43.208 -17.320   5.154  1.00  0.00     0.061 A 
HETATM   15  C   UNL     1      42.914 -17.369   6.609  1.00  0.00     0.073 C 
ENDBRANCH   1   8
BRANCH   3  16
HETATM   16  C   UNL     1      39.864 -13.943   1.710  1.00  0.00     0.108 A 
HETATM   17  C   UNL     1      39.092 -12.708   1.955  1.00  0.00     0.304 A 
HETATM   18  O   UNL     1      38.881 -12.261   3.077  1.00  0.00    -0.259 OA
HETATM   19  O   UNL     1      38.581 -12.057   0.832  1.00  0.00    -0.274 OA
HETATM   20  C   UNL     1      38.915 -12.462  -0.473  1.00  0.00     0.089 A 
HETATM   21  C   UNL     1      39.712 -13.581  -0.685  1.00  0.00    -0.001 A 
HETATM   22  C   UNL     1      38.441 -11.688  -1.528  1.00  0.00     0.038 A 
HETATM   23  C   UNL     1      40.054 -13.928  -1.993  1.00  0.00     0.014 A 
HETATM   24  C   UNL     1      40.169 -14.341   0.465  1.00  0.00     0.037 A 
HETATM   25  C   UNL     1      39.593 -13.155  -3.064  1.00  0.00     0.001 A 
HETATM   26  C   UNL     1      38.785 -12.039  -2.832  1.00  0.00     0.003 A 
ENDBRANCH   3  16
TORSDOF 2
ENDMDL
MODEL 9
REMARK VINA RESULT:      -7.8      2.783      4.393
REMARK  2 active torsions:
REMARK  status: ('A' for Active; 'I' for Inactive)
REMARK    1  A    between atoms: C_8  and  C_9 
REMARK       I    between atoms: N_10  and  C_11 
REMARK    2  A    between atoms: C_11  and  C_12 
ROOT
HETATM    1  C   UNL     1      40.187 -12.942  -1.795  1.00  0.00     0.124 C 
HETATM    2  N   UNL     1      40.457 -13.192  -0.381  1.00  0.00    -0.339 N 
HETATM    3  C   UNL     1      40.138 -14.412   0.175  1.00  0.00     0.260 C 
HETATM    4  O   UNL     1      39.591 -15.307  -0.473  1.00  0.00    -0.267 OA
HETATM    5  C   UNL     1      41.377 -12.196   0.156  1.00  0.00     0.127 C 
HETATM    6  C   UNL     1      41.346 -11.057  -0.852  1.00  0.00     0.022 C 
HETATM    7  C   UNL     1      41.120 -11.782  -2.170  1.00  0.00     0.032 C 
ENDROOT
BRANCH   1   8
HETATM    8  C   UNL     1      38.740 -12.636  -2.070  1.00  0.00     0.014 A 
HETATM    9  C   UNL     1      37.916 -11.606  -1.641  1.00  0.00     0.034 A 
HETATM   10  C   UNL     1      38.120 -10.446  -0.744  1.00  0.00     0.070 C 
HETATM   11  N   UNL     1      36.688 -11.849  -2.192  1.00  0.00    -0.282 N 
HETATM   12  H   UNL     1      35.835 -11.314  -2.072  1.00  0.00     0.189 HD
HETATM   13  N   UNL     1      36.649 -12.928  -2.980  1.00  0.00    -0.179 NA
HETATM   14  C   UNL     1      37.882 -13.434  -2.893  1.00  0.00     0.061 A 
HETATM   15  C   UNL     1      38.218 -14.687  -3.616  1.00  0.00     0.073 C 
ENDBRANCH   1   8
BRANCH   3  16
HETATM   16  C   UNL     1      40.560 -14.702   1.571  1.00  0.00     0.108 A 
HETATM   17  C   UNL     1      39.908 -14.107   2.754  1.00  0.00     0.304 A 
HETATM   18  O   UNL     1      38.970 -13.322   2.679  1.00  0.00    -0.259 OA
HETATM   19  O   UNL     1      40.423 -14.467   4.000  1.00  0.00    -0.274 OA
HETATM   20  C   UNL     1      41.405 -15.464   4.133  1.00  0.00     0.089 A 
HETATM   21  C   UNL     1      41.952 -16.075   3.009  1.00  0.00    -0.001 A 
HETATM   22  C   UNL     1      41.783 -15.828   5.422  1.00  0.00     0.038 A 
HETATM   23  C   UNL     1      42.896 -17.088   3.184  1.00  0.00     0.014 A 
HETATM   24  C   UNL     1      41.511 -15.642   1.695  1.00  0.00     0.037 A 
HETATM   25  C   UNL     1      43.279 -17.471   4.474  1.00  0.00     0.001 A 
HETATM   26  C   UNL     1      42.726 -16.840   5.591  1.00  0.00     0.003 A 
ENDBRANCH   3  16
TORSDOF 2
ENDMDL
MODEL 10
REMARK VINA RESULT:      -7.7      3.590      6.654
REMARK  2 active torsions:
REMARK  status: ('A' for Active; 'I' for Inactive)
REMARK    1  A    between atoms: C_8  and  C_9 
REMARK       I    between atoms: N_10  and  C_11 
REMARK    2  A    between atoms: C_11  and  C_12 
ROOT
HETATM    1  C   UNL     1      41.446 -13.575   5.161  1.00  0.00     0.124 C 
HETATM    2  N   UNL     1      40.989 -13.094   3.858  1.00  0.00    -0.339 N 
HETATM    3  C   UNL     1      41.679 -13.441   2.717  1.00  0.00     0.260 C 
HETATM    4  O   UNL     1      42.706 -14.122   2.750  1.00  0.00    -0.267 OA
HETATM    5  C   UNL     1      39.623 -12.593   3.941  1.00  0.00     0.127 C 
HETATM    6  C   UNL     1      39.378 -12.376   5.426  1.00  0.00     0.022 C 
HETATM    7  C   UNL     1      40.212 -13.475   6.067  1.00  0.00     0.032 C 
ENDROOT
BRANCH   1   8
HETATM    8  C   UNL     1      42.621 -12.800   5.692  1.00  0.00     0.014 A 
HETATM    9  C   UNL     1      42.938 -11.450   5.639  1.00  0.00     0.034 A 
HETATM   10  C   UNL     1      42.277 -10.273   5.030  1.00  0.00     0.070 C 
HETATM   11  N   UNL     1      44.142 -11.319   6.273  1.00  0.00    -0.282 N 
HETATM   12  H   UNL     1      44.689 -10.475   6.401  1.00  0.00     0.189 HD
HETATM   13  N   UNL     1      44.621 -12.462   6.774  1.00  0.00    -0.179 NA
HETATM   14  C   UNL     1      43.721 -13.377   6.404  1.00  0.00     0.061 A 
HETATM   15  C   UNL     1      43.935 -14.805   6.751  1.00  0.00     0.073 C 
ENDBRANCH   1   8
BRANCH   3  16
HETATM   16  C   UNL     1      41.114 -13.073   1.392  1.00  0.00     0.108 A 
HETATM   17  C   UNL     1      41.318 -11.752   0.762  1.00  0.00     0.304 A 
HETATM   18  O   UNL     1      41.966 -10.854   1.285  1.00  0.00    -0.259 OA
HETATM   19  O   UNL     1      40.715 -11.552  -0.480  1.00  0.00    -0.274 OA
HETATM   20  C   UNL     1      40.080 -12.599  -1.171  1.00  0.00     0.089 A 
HETATM   21  C   UNL     1      39.967 -13.861  -0.597  1.00  0.00    -0.001 A 
HETATM   22  C   UNL     1      39.598 -12.328  -2.448  1.00  0.00     0.038 A 
HETATM   23  C   UNL     1      39.364 -14.884  -1.331  1.00  0.00     0.014 A 
HETATM   24  C   UNL     1      40.492 -14.069   0.741  1.00  0.00     0.037 A 
HETATM   25  C   UNL     1      38.884 -14.630  -2.620  1.00  0.00     0.001 A 
HETATM   26  C   UNL     1      38.998 -13.354  -3.176  1.00  0.00     0.003 A 
ENDBRANCH   3  16
TORSDOF 2
ENDMDL
