MODEL 1
REMARK VINA RESULT:      -9.3      0.000      0.000
REMARK  6 active torsions:
REMARK  status: ('A' for Active; 'I' for Inactive)
REMARK    1  A    between atoms: C_2  and  O_3 
REMARK    2  A    between atoms: C_2  and  C_4 
REMARK    3  A    between atoms: C_7  and  N_8 
REMARK       I    between atoms: N_8  and  C_9 
REMARK    4  A    between atoms: C_9  and  C_10 
REMARK    5  A    between atoms: C_13  and  C_14 
REMARK    6  A    between atoms: C_19  and  C_20 
ROOT
HETATM    1  C   UNL     1      42.246 -13.663   3.906  1.00  0.00     0.096 A 
HETATM    2  C   UNL     1      42.838 -14.874   4.215  1.00  0.00     0.138 A 
HETATM    3  N   UNL     1      43.143 -14.809   5.556  1.00  0.00    -0.240 N 
HETATM    4  C   UNL     1      43.775 -15.880   6.301  1.00  0.00     0.221 C 
HETATM    5  C   UNL     1      43.538 -17.222   5.587  1.00  0.00     0.068 C 
HETATM    6  C   UNL     1      43.876 -17.107   4.094  1.00  0.00     0.143 C 
HETATM    7  N   UNL     1      43.106 -16.000   3.504  1.00  0.00    -0.363 N 
HETATM    8  N   UNL     1      42.845 -13.634   6.124  1.00  0.00    -0.181 NA
HETATM    9  C   UNL     1      42.258 -12.956   5.135  1.00  0.00     0.160 A 
HETATM   10  H   UNL     1      42.532 -16.290   2.710  1.00  0.00     0.162 HD
ENDROOT
BRANCH   1  11
HETATM   11  C   UNL     1      41.741 -13.136   2.648  1.00  0.00     0.261 C 
HETATM   12  N   UNL     1      40.591 -13.757   2.196  1.00  0.00    -0.323 N 
HETATM   13  H   UNL     1      40.242 -14.507   2.782  1.00  0.00     0.169 HD
HETATM   14  O   UNL     1      42.361 -12.258   2.062  1.00  0.00    -0.267 OA
BRANCH  12  15
HETATM   15  C   UNL     1      39.945 -13.565   0.958  1.00  0.00     0.035 A 
HETATM   16  C   UNL     1      39.229 -12.415   0.620  1.00  0.00     0.030 A 
HETATM   17  C   UNL     1      38.669 -12.267  -0.655  1.00  0.00     0.012 A 
HETATM   18  C   UNL     1      38.807 -13.270  -1.618  1.00  0.00    -0.030 A 
HETATM   19  C   UNL     1      39.497 -14.440  -1.268  1.00  0.00     0.012 A 
HETATM   20  C   UNL     1      40.059 -14.584   0.006  1.00  0.00     0.030 A 
BRANCH  18  21
HETATM   21  C   UNL     1      38.238 -13.077  -3.007  1.00  0.00     0.147 C 
HETATM   22  C   UNL     1      36.718 -13.082  -3.035  1.00  0.00     0.044 C 
BRANCH  21  23
HETATM   23  O   UNL     1      38.718 -14.106  -3.872  1.00  0.00    -0.391 OA
HETATM   24  H   UNL     1      38.923 -13.687  -4.725  1.00  0.00     0.210 HD
ENDBRANCH  21  23
ENDBRANCH  18  21
ENDBRANCH  12  15
ENDBRANCH   1  11
BRANCH   4  25
HETATM   25  C   UNL     1      43.281 -15.974   7.730  1.00  0.00     0.409 C 
HETATM   26  F   UNL     1      43.287 -14.780   8.363  1.00  0.00    -0.169 F 
HETATM   27  F   UNL     1      41.984 -16.397   7.726  1.00  0.00    -0.169 F 
HETATM   28  F   UNL     1      43.956 -16.866   8.481  1.00  0.00    -0.169 F 
ENDBRANCH   4  25
BRANCH   6  29
HETATM   29  C   UNL     1      43.676 -18.417   3.385  1.00  0.00     0.075 A 
HETATM   30  O   UNL     1      44.115 -19.534   4.043  1.00  0.00    -0.325 OA
HETATM   31  C   UNL     1      43.826 -20.601   3.257  1.00  0.00     0.142 A 
HETATM   32  C   UNL     1      43.209 -20.195   2.099  1.00  0.00     0.027 A 
HETATM   33  C   UNL     1      43.108 -18.785   2.180  1.00  0.00     0.037 A 
ENDBRANCH   6  29
TORSDOF 6
ENDMDL
MODEL 2
REMARK VINA RESULT:      -8.8      4.038      8.433
REMARK  6 active torsions:
REMARK  status: ('A' for Active; 'I' for Inactive)
REMARK    1  A    between atoms: C_2  and  O_3 
REMARK    2  A    between atoms: C_2  and  C_4 
REMARK    3  A    between atoms: C_7  and  N_8 
REMARK       I    between atoms: N_8  and  C_9 
REMARK    4  A    between atoms: C_9  and  C_10 
REMARK    5  A    between atoms: C_13  and  C_14 
REMARK    6  A    between atoms: C_19  and  C_20 
ROOT
HETATM    1  C   UNL     1      41.713 -12.554   2.225  1.00  0.00     0.096 A 
HETATM    2  C   UNL     1      40.939 -12.257   1.118  1.00  0.00     0.138 A 
HETATM    3  N   UNL     1      41.191 -10.934   0.831  1.00  0.00    -0.240 N 
HETATM    4  C   UNL     1      40.587 -10.210  -0.270  1.00  0.00     0.221 C 
HETATM    5  C   UNL     1      40.120 -11.200  -1.351  1.00  0.00     0.068 C 
HETATM    6  C   UNL     1      39.304 -12.339  -0.724  1.00  0.00     0.143 C 
HETATM    7  N   UNL     1      40.097 -12.981   0.336  1.00  0.00    -0.363 N 
HETATM    8  N   UNL     1      42.022 -10.340   1.696  1.00  0.00    -0.181 NA
HETATM    9  C   UNL     1      42.375 -11.333   2.514  1.00  0.00     0.160 A 
HETATM   10  H   UNL     1      40.217 -13.986   0.194  1.00  0.00     0.162 HD
ENDROOT
BRANCH   1  11
HETATM   11  C   UNL     1      41.849 -13.777   2.999  1.00  0.00     0.261 C 
HETATM   12  N   UNL     1      42.847 -14.623   2.551  1.00  0.00    -0.323 N 
HETATM   13  H   UNL     1      43.356 -14.301   1.735  1.00  0.00     0.169 HD
HETATM   14  O   UNL     1      41.076 -14.005   3.922  1.00  0.00    -0.267 OA
BRANCH  12  15
HETATM   15  C   UNL     1      43.131 -15.928   3.002  1.00  0.00     0.035 A 
HETATM   16  C   UNL     1      43.052 -17.067   2.197  1.00  0.00     0.030 A 
HETATM   17  C   UNL     1      43.414 -18.324   2.697  1.00  0.00     0.012 A 
HETATM   18  C   UNL     1      43.857 -18.470   4.015  1.00  0.00    -0.030 A 
HETATM   19  C   UNL     1      43.904 -17.332   4.832  1.00  0.00     0.012 A 
HETATM   20  C   UNL     1      43.545 -16.076   4.330  1.00  0.00     0.030 A 
BRANCH  18  21
HETATM   21  C   UNL     1      44.291 -19.827   4.526  1.00  0.00     0.147 C 
HETATM   22  C   UNL     1      43.864 -20.971   3.620  1.00  0.00     0.044 C 
BRANCH  21  23
HETATM   23  O   UNL     1      43.749 -20.046   5.829  1.00  0.00    -0.391 OA
HETATM   24  H   UNL     1      44.391 -19.687   6.466  1.00  0.00     0.210 HD
ENDBRANCH  21  23
ENDBRANCH  18  21
ENDBRANCH  12  15
ENDBRANCH   1  11
BRANCH   4  25
HETATM   25  C   UNL     1      41.523  -9.192  -0.888  1.00  0.00     0.409 C 
HETATM   26  F   UNL     1      42.710  -9.727  -1.248  1.00  0.00    -0.169 F 
HETATM   27  F   UNL     1      40.962  -8.707  -2.032  1.00  0.00    -0.169 F 
HETATM   28  F   UNL     1      41.750  -8.118  -0.106  1.00  0.00    -0.169 F 
ENDBRANCH   4  25
BRANCH   6  29
HETATM   29  C   UNL     1      38.816 -13.302  -1.770  1.00  0.00     0.075 A 
HETATM   30  O   UNL     1      39.330 -14.569  -1.714  1.00  0.00    -0.325 OA
HETATM   31  C   UNL     1      38.753 -15.281  -2.715  1.00  0.00     0.142 A 
HETATM   32  C   UNL     1      37.876 -14.495  -3.422  1.00  0.00     0.027 A 
HETATM   33  C   UNL     1      37.912 -13.217  -2.812  1.00  0.00     0.037 A 
ENDBRANCH   6  29
TORSDOF 6
ENDMDL
MODEL 3
REMARK VINA RESULT:      -8.6     14.916     17.792
REMARK  6 active torsions:
REMARK  status: ('A' for Active; 'I' for Inactive)
REMARK    1  A    between atoms: C_2  and  O_3 
REMARK    2  A    between atoms: C_2  and  C_4 
REMARK    3  A    between atoms: C_7  and  N_8 
REMARK       I    between atoms: N_8  and  C_9 
REMARK    4  A    between atoms: C_9  and  C_10 
REMARK    5  A    between atoms: C_13  and  C_14 
REMARK    6  A    between atoms: C_19  and  C_20 
ROOT
HETATM    1  C   UNL     1      47.292 -28.443   0.636  1.00  0.00     0.096 A 
HETATM    2  C   UNL     1      45.985 -28.708   0.269  1.00  0.00     0.138 A 
HETATM    3  N   UNL     1      45.864 -28.260  -1.027  1.00  0.00    -0.240 N 
HETATM    4  C   UNL     1      44.646 -28.351  -1.809  1.00  0.00     0.221 C 
HETATM    5  C   UNL     1      43.749 -29.467  -1.248  1.00  0.00     0.068 C 
HETATM    6  C   UNL     1      43.600 -29.328   0.274  1.00  0.00     0.143 C 
HETATM    7  N   UNL     1      44.934 -29.300   0.893  1.00  0.00    -0.363 N 
HETATM    8  N   UNL     1      46.969 -27.679  -1.506  1.00  0.00    -0.181 NA
HETATM    9  C   UNL     1      47.851 -27.831  -0.515  1.00  0.00     0.160 A 
HETATM   10  H   UNL     1      45.062 -30.026   1.602  1.00  0.00     0.162 HD
ENDROOT
BRANCH   1  11
HETATM   11  C   UNL     1      48.000 -28.662   1.887  1.00  0.00     0.261 C 
HETATM   12  N   UNL     1      48.590 -29.908   1.993  1.00  0.00    -0.323 N 
HETATM   13  H   UNL     1      48.453 -30.524   1.199  1.00  0.00     0.169 HD
HETATM   14  O   UNL     1      47.988 -27.797   2.755  1.00  0.00    -0.267 OA
BRANCH  12  15
HETATM   15  C   UNL     1      49.223 -30.464   3.123  1.00  0.00     0.035 A 
HETATM   16  C   UNL     1      48.577 -31.272   4.062  1.00  0.00     0.030 A 
HETATM   17  C   UNL     1      49.287 -31.843   5.125  1.00  0.00     0.012 A 
HETATM   18  C   UNL     1      50.658 -31.614   5.276  1.00  0.00    -0.030 A 
HETATM   19  C   UNL     1      51.299 -30.776   4.353  1.00  0.00     0.012 A 
HETATM   20  C   UNL     1      50.589 -30.208   3.289  1.00  0.00     0.030 A 
BRANCH  18  21
HETATM   21  C   UNL     1      51.422 -32.277   6.402  1.00  0.00     0.147 C 
HETATM   22  C   UNL     1      52.704 -31.546   6.765  1.00  0.00     0.044 C 
BRANCH  21  23
HETATM   23  O   UNL     1      51.745 -33.620   6.039  1.00  0.00    -0.391 OA
HETATM   24  H   UNL     1      52.184 -33.581   5.171  1.00  0.00     0.210 HD
ENDBRANCH  21  23
ENDBRANCH  18  21
ENDBRANCH  12  15
ENDBRANCH   1  11
BRANCH   4  25
HETATM   25  C   UNL     1      44.909 -28.605  -3.279  1.00  0.00     0.409 C 
HETATM   26  F   UNL     1      45.868 -29.535  -3.483  1.00  0.00    -0.169 F 
HETATM   27  F   UNL     1      43.775 -29.095  -3.857  1.00  0.00    -0.169 F 
HETATM   28  F   UNL     1      45.226 -27.495  -3.974  1.00  0.00    -0.169 F 
ENDBRANCH   4  25
BRANCH   6  29
HETATM   29  C   UNL     1      42.703 -30.395   0.836  1.00  0.00     0.075 A 
HETATM   30  O   UNL     1      41.593 -29.960   1.508  1.00  0.00    -0.325 OA
HETATM   31  C   UNL     1      40.911 -31.061   1.911  1.00  0.00     0.142 A 
HETATM   32  C   UNL     1      41.563 -32.204   1.514  1.00  0.00     0.027 A 
HETATM   33  C   UNL     1      42.718 -31.777   0.817  1.00  0.00     0.037 A 
ENDBRANCH   6  29
TORSDOF 6
ENDMDL
MODEL 4
REMARK VINA RESULT:      -8.6      1.479      2.008
REMARK  6 active torsions:
REMARK  status: ('A' for Active; 'I' for Inactive)
REMARK    1  A    between atoms: C_2  and  O_3 
REMARK    2  A    between atoms: C_2  and  C_4 
REMARK    3  A    between atoms: C_7  and  N_8 
REMARK       I    between atoms: N_8  and  C_9 
REMARK    4  A    between atoms: C_9  and  C_10 
REMARK    5  A    between atoms: C_13  and  C_14 
REMARK    6  A    between atoms: C_19  and  C_20 
ROOT
HETATM    1  C   UNL     1      41.030 -14.514   3.202  1.00  0.00     0.096 A 
HETATM    2  C   UNL     1      41.951 -15.434   3.669  1.00  0.00     0.138 A 
HETATM    3  N   UNL     1      42.326 -14.985   4.916  1.00  0.00    -0.240 N 
HETATM    4  C   UNL     1      43.281 -15.662   5.772  1.00  0.00     0.221 C 
HETATM    5  C   UNL     1      43.365 -17.148   5.385  1.00  0.00     0.068 C 
HETATM    6  C   UNL     1      43.545 -17.303   3.868  1.00  0.00     0.143 C 
HETATM    7  N   UNL     1      42.461 -16.590   3.174  1.00  0.00    -0.363 N 
HETATM    8  N   UNL     1      41.763 -13.822   5.266  1.00  0.00    -0.181 NA
HETATM    9  C   UNL     1      40.942 -13.560   4.248  1.00  0.00     0.160 A 
HETATM   10  H   UNL     1      41.929 -17.191   2.540  1.00  0.00     0.162 HD
ENDROOT
BRANCH   1  11
HETATM   11  C   UNL     1      40.307 -14.436   1.943  1.00  0.00     0.261 C 
HETATM   12  N   UNL     1      40.184 -13.154   1.440  1.00  0.00    -0.323 N 
HETATM   13  H   UNL     1      40.598 -12.422   2.006  1.00  0.00     0.169 HD
HETATM   14  O   UNL     1      39.824 -15.449   1.452  1.00  0.00    -0.267 OA
BRANCH  12  15
HETATM   15  C   UNL     1      39.431 -12.741   0.321  1.00  0.00     0.035 A 
HETATM   16  C   UNL     1      39.497 -13.351  -0.933  1.00  0.00     0.030 A 
HETATM   17  C   UNL     1      38.669 -12.929  -1.981  1.00  0.00     0.012 A 
HETATM   18  C   UNL     1      37.761 -11.882  -1.798  1.00  0.00    -0.030 A 
HETATM   19  C   UNL     1      37.719 -11.247  -0.549  1.00  0.00     0.012 A 
HETATM   20  C   UNL     1      38.545 -11.673   0.498  1.00  0.00     0.030 A 
BRANCH  18  21
HETATM   21  C   UNL     1      36.839 -11.468  -2.925  1.00  0.00     0.147 C 
HETATM   22  C   UNL     1      35.839 -10.398  -2.515  1.00  0.00     0.044 C 
BRANCH  21  23
HETATM   23  O   UNL     1      36.124 -12.606  -3.404  1.00  0.00    -0.391 OA
HETATM   24  H   UNL     1      36.781 -13.210  -3.793  1.00  0.00     0.210 HD
ENDBRANCH  21  23
ENDBRANCH  18  21
ENDBRANCH  12  15
ENDBRANCH   1  11
BRANCH   4  25
HETATM   25  C   UNL     1      42.940 -15.541   7.243  1.00  0.00     0.409 C 
HETATM   26  F   UNL     1      41.653 -15.855   7.506  1.00  0.00    -0.169 F 
HETATM   27  F   UNL     1      43.700 -16.424   7.951  1.00  0.00    -0.169 F 
HETATM   28  F   UNL     1      43.206 -14.327   7.764  1.00  0.00    -0.169 F 
ENDBRANCH   4  25
BRANCH   6  29
HETATM   29  C   UNL     1      43.657 -18.749   3.475  1.00  0.00     0.075 A 
HETATM   30  O   UNL     1      43.345 -19.050   2.178  1.00  0.00    -0.325 OA
HETATM   31  C   UNL     1      43.529 -20.384   2.019  1.00  0.00     0.142 A 
HETATM   32  C   UNL     1      43.953 -20.956   3.195  1.00  0.00     0.027 A 
HETATM   33  C   UNL     1      44.039 -19.901   4.136  1.00  0.00     0.037 A 
ENDBRANCH   6  29
TORSDOF 6
ENDMDL
MODEL 5
REMARK VINA RESULT:      -8.6      3.747      7.670
REMARK  6 active torsions:
REMARK  status: ('A' for Active; 'I' for Inactive)
REMARK    1  A    between atoms: C_2  and  O_3 
REMARK    2  A    between atoms: C_2  and  C_4 
REMARK    3  A    between atoms: C_7  and  N_8 
REMARK       I    between atoms: N_8  and  C_9 
REMARK    4  A    between atoms: C_9  and  C_10 
REMARK    5  A    between atoms: C_13  and  C_14 
REMARK    6  A    between atoms: C_19  and  C_20 
ROOT
HETATM    1  C   UNL     1      43.659 -15.633   5.701  1.00  0.00     0.096 A 
HETATM    2  C   UNL     1      43.356 -15.788   4.361  1.00  0.00     0.138 A 
HETATM    3  N   UNL     1      43.808 -17.042   4.019  1.00  0.00    -0.240 N 
HETATM    4  C   UNL     1      43.685 -17.620   2.695  1.00  0.00     0.221 C 
HETATM    5  C   UNL     1      42.539 -16.935   1.932  1.00  0.00     0.068 C 
HETATM    6  C   UNL     1      42.664 -15.408   2.026  1.00  0.00     0.143 C 
HETATM    7  N   UNL     1      42.728 -15.010   3.441  1.00  0.00    -0.363 N 
HETATM    8  N   UNL     1      44.427 -17.687   5.016  1.00  0.00    -0.181 NA
HETATM    9  C   UNL     1      44.295 -16.851   6.049  1.00  0.00     0.160 A 
HETATM   10  H   UNL     1      42.002 -14.339   3.702  1.00  0.00     0.162 HD
ENDROOT
BRANCH   1  11
HETATM   11  C   UNL     1      43.454 -14.514   6.607  1.00  0.00     0.261 C 
HETATM   12  N   UNL     1      43.829 -13.289   6.087  1.00  0.00    -0.323 N 
HETATM   13  H   UNL     1      44.211 -13.312   5.148  1.00  0.00     0.169 HD
HETATM   14  O   UNL     1      43.036 -14.715   7.741  1.00  0.00    -0.267 OA
BRANCH  12  15
HETATM   15  C   UNL     1      43.879 -12.051   6.761  1.00  0.00     0.035 A 
HETATM   16  C   UNL     1      44.995 -11.586   7.459  1.00  0.00     0.030 A 
HETATM   17  C   UNL     1      44.995 -10.316   8.048  1.00  0.00     0.012 A 
HETATM   18  C   UNL     1      43.874  -9.484   7.957  1.00  0.00    -0.030 A 
HETATM   19  C   UNL     1      42.742  -9.965   7.285  1.00  0.00     0.012 A 
HETATM   20  C   UNL     1      42.745 -11.234   6.694  1.00  0.00     0.030 A 
BRANCH  18  21
HETATM   21  C   UNL     1      43.905  -8.095   8.557  1.00  0.00     0.147 C 
HETATM   22  C   UNL     1      43.438  -8.059  10.003  1.00  0.00     0.044 C 
BRANCH  21  23
HETATM   23  O   UNL     1      43.083  -7.220   7.786  1.00  0.00    -0.391 OA
HETATM   24  H   UNL     1      43.572  -6.385   7.687  1.00  0.00     0.210 HD
ENDBRANCH  21  23
ENDBRANCH  18  21
ENDBRANCH  12  15
ENDBRANCH   1  11
BRANCH   4  25
HETATM   25  C   UNL     1      43.449 -19.116   2.726  1.00  0.00     0.409 C 
HETATM   26  F   UNL     1      43.266 -19.588   3.978  1.00  0.00    -0.169 F 
HETATM   27  F   UNL     1      42.305 -19.400   2.040  1.00  0.00    -0.169 F 
HETATM   28  F   UNL     1      44.422 -19.832   2.129  1.00  0.00    -0.169 F 
ENDBRANCH   4  25
BRANCH   6  29
HETATM   29  C   UNL     1      41.566 -14.721   1.263  1.00  0.00     0.075 A 
HETATM   30  O   UNL     1      41.734 -13.382   1.033  1.00  0.00    -0.325 OA
HETATM   31  C   UNL     1      40.661 -12.960   0.319  1.00  0.00     0.142 A 
HETATM   32  C   UNL     1      39.797 -14.002   0.083  1.00  0.00     0.027 A 
HETATM   33  C   UNL     1      40.381 -15.141   0.689  1.00  0.00     0.037 A 
ENDBRANCH   6  29
TORSDOF 6
ENDMDL
MODEL 6
REMARK VINA RESULT:      -8.5      4.759      8.182
REMARK  6 active torsions:
REMARK  status: ('A' for Active; 'I' for Inactive)
REMARK    1  A    between atoms: C_2  and  O_3 
REMARK    2  A    between atoms: C_2  and  C_4 
REMARK    3  A    between atoms: C_7  and  N_8 
REMARK       I    between atoms: N_8  and  C_9 
REMARK    4  A    between atoms: C_9  and  C_10 
REMARK    5  A    between atoms: C_13  and  C_14 
REMARK    6  A    between atoms: C_19  and  C_20 
ROOT
HETATM    1  C   UNL     1      40.995 -12.711   5.474  1.00  0.00     0.096 A 
HETATM    2  C   UNL     1      41.571 -11.612   6.086  1.00  0.00     0.138 A 
HETATM    3  N   UNL     1      40.802 -10.533   5.715  1.00  0.00    -0.240 N 
HETATM    4  C   UNL     1      41.050  -9.170   6.145  1.00  0.00     0.221 C 
HETATM    5  C   UNL     1      41.868  -9.175   7.447  1.00  0.00     0.068 C 
HETATM    6  C   UNL     1      43.082 -10.106   7.319  1.00  0.00     0.143 C 
HETATM    7  N   UNL     1      42.627 -11.448   6.923  1.00  0.00    -0.363 N 
HETATM    8  N   UNL     1      39.809 -10.838   4.871  1.00  0.00    -0.181 NA
HETATM    9  C   UNL     1      39.897 -12.165   4.760  1.00  0.00     0.160 A 
HETATM   10  H   UNL     1      42.925 -12.179   7.573  1.00  0.00     0.162 HD
ENDROOT
BRANCH   1  11
HETATM   11  C   UNL     1      41.375 -14.114   5.468  1.00  0.00     0.261 C 
HETATM   12  N   UNL     1      42.394 -14.421   4.586  1.00  0.00    -0.323 N 
HETATM   13  H   UNL     1      42.749 -13.643   4.042  1.00  0.00     0.169 HD
HETATM   14  O   UNL     1      40.765 -14.914   6.167  1.00  0.00    -0.267 OA
BRANCH  12  15
HETATM   15  C   UNL     1      42.886 -15.701   4.256  1.00  0.00     0.035 A 
HETATM   16  C   UNL     1      43.731 -16.448   5.079  1.00  0.00     0.030 A 
HETATM   17  C   UNL     1      44.126 -17.742   4.716  1.00  0.00     0.012 A 
HETATM   18  C   UNL     1      43.689 -18.314   3.517  1.00  0.00    -0.030 A 
HETATM   19  C   UNL     1      42.867 -17.550   2.676  1.00  0.00     0.012 A 
HETATM   20  C   UNL     1      42.471 -16.259   3.042  1.00  0.00     0.030 A 
BRANCH  18  21
HETATM   21  C   UNL     1      44.085 -19.730   3.160  1.00  0.00     0.147 C 
HETATM   22  C   UNL     1      43.287 -20.298   1.996  1.00  0.00     0.044 C 
BRANCH  21  23
HETATM   23  O   UNL     1      43.910 -20.579   4.295  1.00  0.00    -0.391 OA
HETATM   24  H   UNL     1      43.776 -19.999   5.064  1.00  0.00     0.210 HD
ENDBRANCH  21  23
ENDBRANCH  18  21
ENDBRANCH  12  15
ENDBRANCH   1  11
BRANCH   4  25
HETATM   25  C   UNL     1      39.775  -8.378   6.352  1.00  0.00     0.409 C 
HETATM   26  F   UNL     1      38.857  -9.050   7.081  1.00  0.00    -0.169 F 
HETATM   27  F   UNL     1      40.064  -7.245   7.053  1.00  0.00    -0.169 F 
HETATM   28  F   UNL     1      39.200  -7.965   5.205  1.00  0.00    -0.169 F 
ENDBRANCH   4  25
BRANCH   6  29
HETATM   29  C   UNL     1      43.909 -10.102   8.574  1.00  0.00     0.075 A 
HETATM   30  O   UNL     1      43.220 -10.180   9.754  1.00  0.00    -0.325 OA
HETATM   31  C   UNL     1      44.136 -10.186  10.754  1.00  0.00     0.142 A 
HETATM   32  C   UNL     1      45.409 -10.109  10.243  1.00  0.00     0.027 A 
HETATM   33  C   UNL     1      45.266 -10.057   8.835  1.00  0.00     0.037 A 
ENDBRANCH   6  29
TORSDOF 6
ENDMDL
MODEL 7
REMARK VINA RESULT:      -8.3      4.543      8.071
REMARK  6 active torsions:
REMARK  status: ('A' for Active; 'I' for Inactive)
REMARK    1  A    between atoms: C_2  and  O_3 
REMARK    2  A    between atoms: C_2  and  C_4 
REMARK    3  A    between atoms: C_7  and  N_8 
REMARK       I    between atoms: N_8  and  C_9 
REMARK    4  A    between atoms: C_9  and  C_10 
REMARK    5  A    between atoms: C_13  and  C_14 
REMARK    6  A    between atoms: C_19  and  C_20 
ROOT
HETATM    1  C   UNL     1      40.076 -12.411   4.018  1.00  0.00     0.096 A 
HETATM    2  C   UNL     1      40.331 -13.587   3.336  1.00  0.00     0.138 A 
HETATM    3  N   UNL     1      39.753 -13.432   2.096  1.00  0.00    -0.240 N 
HETATM    4  C   UNL     1      39.788 -14.435   1.050  1.00  0.00     0.221 C 
HETATM    5  C   UNL     1      40.976 -15.385   1.280  1.00  0.00     0.068 C 
HETATM    6  C   UNL     1      40.999 -15.881   2.732  1.00  0.00     0.143 C 
HETATM    7  N   UNL     1      41.007 -14.724   3.641  1.00  0.00    -0.363 N 
HETATM    8  N   UNL     1      39.102 -12.273   1.942  1.00  0.00    -0.181 NA
HETATM    9  C   UNL     1      39.336 -11.634   3.090  1.00  0.00     0.160 A 
HETATM   10  H   UNL     1      41.799 -14.728   4.287  1.00  0.00     0.162 HD
ENDROOT
BRANCH   1  11
HETATM   11  C   UNL     1      40.409 -11.995   5.371  1.00  0.00     0.261 C 
HETATM   12  N   UNL     1      41.577 -11.261   5.467  1.00  0.00    -0.323 N 
HETATM   13  H   UNL     1      42.068 -11.107   4.593  1.00  0.00     0.169 HD
HETATM   14  O   UNL     1      39.704 -12.348   6.309  1.00  0.00    -0.267 OA
BRANCH  12  15
HETATM   15  C   UNL     1      42.228 -10.836   6.643  1.00  0.00     0.035 A 
HETATM   16  C   UNL     1      41.748  -9.828   7.481  1.00  0.00     0.030 A 
HETATM   17  C   UNL     1      42.415  -9.505   8.669  1.00  0.00     0.012 A 
HETATM   18  C   UNL     1      43.580 -10.180   9.043  1.00  0.00    -0.030 A 
HETATM   19  C   UNL     1      44.081 -11.170   8.185  1.00  0.00     0.012 A 
HETATM   20  C   UNL     1      43.411 -11.494   6.999  1.00  0.00     0.030 A 
BRANCH  18  21
HETATM   21  C   UNL     1      44.263  -9.854  10.353  1.00  0.00     0.147 C 
HETATM   22  C   UNL     1      45.715  -9.434  10.182  1.00  0.00     0.044 C 
BRANCH  21  23
HETATM   23  O   UNL     1      44.211 -10.988  11.218  1.00  0.00    -0.391 OA
HETATM   24  H   UNL     1      44.301 -10.654  12.128  1.00  0.00     0.210 HD
ENDBRANCH  21  23
ENDBRANCH  18  21
ENDBRANCH  12  15
ENDBRANCH   1  11
BRANCH   4  25
HETATM   25  C   UNL     1      39.883 -13.834  -0.337  1.00  0.00     0.409 C 
HETATM   26  F   UNL     1      40.902 -12.955  -0.456  1.00  0.00    -0.169 F 
HETATM   27  F   UNL     1      40.131 -14.828  -1.238  1.00  0.00    -0.169 F 
HETATM   28  F   UNL     1      38.747 -13.239  -0.750  1.00  0.00    -0.169 F 
ENDBRANCH   4  25
BRANCH   6  29
HETATM   29  C   UNL     1      42.137 -16.834   2.967  1.00  0.00     0.075 A 
HETATM   30  O   UNL     1      42.659 -16.852   4.232  1.00  0.00    -0.325 OA
HETATM   31  C   UNL     1      43.648 -17.782   4.244  1.00  0.00     0.142 A 
HETATM   32  C   UNL     1      43.777 -18.365   3.007  1.00  0.00     0.027 A 
HETATM   33  C   UNL     1      42.801 -17.757   2.181  1.00  0.00     0.037 A 
ENDBRANCH   6  29
TORSDOF 6
ENDMDL
MODEL 8
REMARK VINA RESULT:      -8.2      2.456      4.545
REMARK  6 active torsions:
REMARK  status: ('A' for Active; 'I' for Inactive)
REMARK    1  A    between atoms: C_2  and  O_3 
REMARK    2  A    between atoms: C_2  and  C_4 
REMARK    3  A    between atoms: C_7  and  N_8 
REMARK       I    between atoms: N_8  and  C_9 
REMARK    4  A    between atoms: C_9  and  C_10 
REMARK    5  A    between atoms: C_13  and  C_14 
REMARK    6  A    between atoms: C_19  and  C_20 
ROOT
HETATM    1  C   UNL     1      41.732 -14.400   3.419  1.00  0.00     0.096 A 
HETATM    2  C   UNL     1      42.372 -14.213   4.630  1.00  0.00     0.138 A 
HETATM    3  N   UNL     1      42.480 -15.465   5.192  1.00  0.00    -0.240 N 
HETATM    4  C   UNL     1      43.101 -15.731   6.475  1.00  0.00     0.221 C 
HETATM    5  C   UNL     1      44.079 -14.597   6.825  1.00  0.00     0.068 C 
HETATM    6  C   UNL     1      43.411 -13.229   6.637  1.00  0.00     0.143 C 
HETATM    7  N   UNL     1      42.884 -13.128   5.267  1.00  0.00    -0.363 N 
HETATM    8  N   UNL     1      41.912 -16.436   4.467  1.00  0.00    -0.181 NA
HETATM    9  C   UNL     1      41.499 -15.798   3.370  1.00  0.00     0.160 A 
HETATM   10  H   UNL     1      43.248 -12.321   4.756  1.00  0.00     0.162 HD
ENDROOT
BRANCH   1  11
HETATM   11  C   UNL     1      41.316 -13.452   2.397  1.00  0.00     0.261 C 
HETATM   12  N   UNL     1      40.150 -13.801   1.742  1.00  0.00    -0.323 N 
HETATM   13  H   UNL     1      39.729 -14.675   2.038  1.00  0.00     0.169 HD
HETATM   14  O   UNL     1      42.016 -12.478   2.148  1.00  0.00    -0.267 OA
BRANCH  12  15
HETATM   15  C   UNL     1      39.571 -13.165   0.624  1.00  0.00     0.035 A 
HETATM   16  C   UNL     1      39.654 -13.653  -0.682  1.00  0.00     0.030 A 
HETATM   17  C   UNL     1      38.998 -13.002  -1.733  1.00  0.00     0.012 A 
HETATM   18  C   UNL     1      38.248 -11.845  -1.502  1.00  0.00    -0.030 A 
HETATM   19  C   UNL     1      38.193 -11.337  -0.197  1.00  0.00     0.012 A 
HETATM   20  C   UNL     1      38.847 -11.990   0.854  1.00  0.00     0.030 A 
BRANCH  18  21
HETATM   21  C   UNL     1      37.504 -11.179  -2.640  1.00  0.00     0.147 C 
HETATM   22  C   UNL     1      36.620 -10.029  -2.184  1.00  0.00     0.044 C 
BRANCH  21  23
HETATM   23  O   UNL     1      36.694 -12.143  -3.314  1.00  0.00    -0.391 OA
HETATM   24  H   UNL     1      35.879 -11.687  -3.587  1.00  0.00     0.210 HD
ENDBRANCH  21  23
ENDBRANCH  18  21
ENDBRANCH  12  15
ENDBRANCH   1  11
BRANCH   4  25
HETATM   25  C   UNL     1      43.831 -17.058   6.510  1.00  0.00     0.409 C 
HETATM   26  F   UNL     1      44.598 -17.259   5.416  1.00  0.00    -0.169 F 
HETATM   27  F   UNL     1      44.680 -17.071   7.578  1.00  0.00    -0.169 F 
HETATM   28  F   UNL     1      43.019 -18.121   6.673  1.00  0.00    -0.169 F 
ENDBRANCH   4  25
BRANCH   6  29
HETATM   29  C   UNL     1      44.344 -12.109   7.002  1.00  0.00     0.075 A 
HETATM   30  O   UNL     1      44.239 -11.624   8.277  1.00  0.00    -0.325 OA
HETATM   31  C   UNL     1      45.170 -10.647   8.413  1.00  0.00     0.142 A 
HETATM   32  C   UNL     1      45.877 -10.488   7.245  1.00  0.00     0.027 A 
HETATM   33  C   UNL     1      45.348 -11.433   6.333  1.00  0.00     0.037 A 
ENDBRANCH   6  29
TORSDOF 6
ENDMDL
MODEL 9
REMARK VINA RESULT:      -7.9      8.170     12.254
REMARK  6 active torsions:
REMARK  status: ('A' for Active; 'I' for Inactive)
REMARK    1  A    between atoms: C_2  and  O_3 
REMARK    2  A    between atoms: C_2  and  C_4 
REMARK    3  A    between atoms: C_7  and  N_8 
REMARK       I    between atoms: N_8  and  C_9 
REMARK    4  A    between atoms: C_9  and  C_10 
REMARK    5  A    between atoms: C_13  and  C_14 
REMARK    6  A    between atoms: C_19  and  C_20 
ROOT
HETATM    1  C   UNL     1      43.791 -10.101  10.477  1.00  0.00     0.096 A 
HETATM    2  C   UNL     1      43.351 -10.022   9.168  1.00  0.00     0.138 A 
HETATM    3  N   UNL     1      44.438 -10.347   8.389  1.00  0.00    -0.240 N 
HETATM    4  C   UNL     1      44.417 -10.396   6.940  1.00  0.00     0.221 C 
HETATM    5  C   UNL     1      42.975 -10.603   6.447  1.00  0.00     0.068 C 
HETATM    6  C   UNL     1      42.022  -9.614   7.133  1.00  0.00     0.143 C 
HETATM    7  N   UNL     1      42.153  -9.744   8.593  1.00  0.00    -0.363 N 
HETATM    8  N   UNL     1      45.557 -10.576   9.087  1.00  0.00    -0.181 NA
HETATM    9  C   UNL     1      45.154 -10.472  10.355  1.00  0.00     0.160 A 
HETATM   10  H   UNL     1      41.266  -9.951   9.057  1.00  0.00     0.162 HD
ENDROOT
BRANCH   1  11
HETATM   11  C   UNL     1      43.109  -9.843  11.735  1.00  0.00     0.261 C 
HETATM   12  N   UNL     1      42.869  -8.504  11.984  1.00  0.00    -0.323 N 
HETATM   13  H   UNL     1      43.202  -7.862  11.274  1.00  0.00     0.169 HD
HETATM   14  O   UNL     1      42.849 -10.772  12.490  1.00  0.00    -0.267 OA
BRANCH  12  15
HETATM   15  C   UNL     1      42.354  -7.931  13.165  1.00  0.00     0.035 A 
HETATM   16  C   UNL     1      41.004  -7.961  13.523  1.00  0.00     0.030 A 
HETATM   17  C   UNL     1      40.575  -7.429  14.745  1.00  0.00     0.012 A 
HETATM   18  C   UNL     1      41.486  -6.850  15.634  1.00  0.00    -0.030 A 
HETATM   19  C   UNL     1      42.836  -6.790  15.259  1.00  0.00     0.012 A 
HETATM   20  C   UNL     1      43.264  -7.325  14.039  1.00  0.00     0.030 A 
BRANCH  18  21
HETATM   21  C   UNL     1      41.015  -6.323  16.972  1.00  0.00     0.147 C 
HETATM   22  C   UNL     1      39.693  -5.576  16.887  1.00  0.00     0.044 C 
BRANCH  21  23
HETATM   23  O   UNL     1      42.003  -5.449  17.519  1.00  0.00    -0.391 OA
HETATM   24  H   UNL     1      41.535  -4.818  18.093  1.00  0.00     0.210 HD
ENDBRANCH  21  23
ENDBRANCH  18  21
ENDBRANCH  12  15
ENDBRANCH   1  11
BRANCH   4  25
HETATM   25  C   UNL     1      45.304 -11.486   6.375  1.00  0.00     0.409 C 
HETATM   26  F   UNL     1      44.954 -12.718   6.805  1.00  0.00    -0.169 F 
HETATM   27  F   UNL     1      45.178 -11.506   5.018  1.00  0.00    -0.169 F 
HETATM   28  F   UNL     1      46.616 -11.299   6.620  1.00  0.00    -0.169 F 
ENDBRANCH   4  25
BRANCH   6  29
HETATM   29  C   UNL     1      40.611  -9.782   6.642  1.00  0.00     0.075 A 
HETATM   30  O   UNL     1      39.993 -10.958   6.970  1.00  0.00    -0.325 OA
HETATM   31  C   UNL     1      38.737 -10.906   6.461  1.00  0.00     0.142 A 
HETATM   32  C   UNL     1      38.530  -9.716   5.806  1.00  0.00     0.027 A 
HETATM   33  C   UNL     1      39.738  -8.987   5.924  1.00  0.00     0.037 A 
ENDBRANCH   6  29
TORSDOF 6
ENDMDL
MODEL 10
REMARK VINA RESULT:      -7.8      4.485      7.919
REMARK  6 active torsions:
REMARK  status: ('A' for Active; 'I' for Inactive)
REMARK    1  A    between atoms: C_2  and  O_3 
REMARK    2  A    between atoms: C_2  and  C_4 
REMARK    3  A    between atoms: C_7  and  N_8 
REMARK       I    between atoms: N_8  and  C_9 
REMARK    4  A    between atoms: C_9  and  C_10 
REMARK    5  A    between atoms: C_13  and  C_14 
REMARK    6  A    between atoms: C_19  and  C_20 
ROOT
HETATM    1  C   UNL     1      40.080 -12.002   5.807  1.00  0.00     0.096 A 
HETATM    2  C   UNL     1      40.885 -11.053   6.411  1.00  0.00     0.138 A 
HETATM    3  N   UNL     1      40.027 -10.203   7.072  1.00  0.00    -0.240 N 
HETATM    4  C   UNL     1      40.456  -9.058   7.852  1.00  0.00     0.221 C 
HETATM    5  C   UNL     1      41.915  -9.249   8.299  1.00  0.00     0.068 C 
HETATM    6  C   UNL     1      42.795  -9.662   7.112  1.00  0.00     0.143 C 
HETATM    7  N   UNL     1      42.228 -10.864   6.480  1.00  0.00    -0.363 N 
HETATM    8  N   UNL     1      38.733 -10.495   6.899  1.00  0.00    -0.181 NA
HETATM    9  C   UNL     1      38.765 -11.613   6.170  1.00  0.00     0.160 A 
HETATM   10  H   UNL     1      42.889 -11.642   6.434  1.00  0.00     0.162 HD
ENDROOT
BRANCH   1  11
HETATM   11  C   UNL     1      40.406 -13.133   4.954  1.00  0.00     0.261 C 
HETATM   12  N   UNL     1      41.241 -14.065   5.545  1.00  0.00    -0.323 N 
HETATM   13  H   UNL     1      41.534 -13.848   6.491  1.00  0.00     0.169 HD
HETATM   14  O   UNL     1      39.992 -13.169   3.802  1.00  0.00    -0.267 OA
BRANCH  12  15
HETATM   15  C   UNL     1      41.838 -15.188   4.937  1.00  0.00     0.035 A 
HETATM   16  C   UNL     1      41.282 -15.879   3.858  1.00  0.00     0.030 A 
HETATM   17  C   UNL     1      41.965 -16.946   3.262  1.00  0.00     0.012 A 
HETATM   18  C   UNL     1      43.217 -17.350   3.737  1.00  0.00    -0.030 A 
HETATM   19  C   UNL     1      43.759 -16.678   4.841  1.00  0.00     0.012 A 
HETATM   20  C   UNL     1      43.076 -15.609   5.434  1.00  0.00     0.030 A 
BRANCH  18  21
HETATM   21  C   UNL     1      43.965 -18.474   3.053  1.00  0.00     0.147 C 
HETATM   22  C   UNL     1      43.085 -19.302   2.130  1.00  0.00     0.044 C 
BRANCH  21  23
HETATM   23  O   UNL     1      44.542 -19.335   4.034  1.00  0.00    -0.391 OA
HETATM   24  H   UNL     1      43.805 -19.775   4.493  1.00  0.00     0.210 HD
ENDBRANCH  21  23
ENDBRANCH  18  21
ENDBRANCH  12  15
ENDBRANCH   1  11
BRANCH   4  25
HETATM   25  C   UNL     1      39.583  -8.813   9.065  1.00  0.00     0.409 C 
HETATM   26  F   UNL     1      39.072  -9.954   9.577  1.00  0.00    -0.169 F 
HETATM   27  F   UNL     1      40.340  -8.257  10.054  1.00  0.00    -0.169 F 
HETATM   28  F   UNL     1      38.575  -7.947   8.843  1.00  0.00    -0.169 F 
ENDBRANCH   4  25
BRANCH   6  29
HETATM   29  C   UNL     1      44.231  -9.827   7.525  1.00  0.00     0.075 A 
HETATM   30  O   UNL     1      44.848  -8.713   8.026  1.00  0.00    -0.325 OA
HETATM   31  C   UNL     1      46.113  -9.070   8.359  1.00  0.00     0.142 A 
HETATM   32  C   UNL     1      46.329 -10.398   8.079  1.00  0.00     0.027 A 
HETATM   33  C   UNL     1      45.114 -10.890   7.544  1.00  0.00     0.037 A 
ENDBRANCH   6  29
TORSDOF 6
ENDMDL
