MODEL 1
REMARK VINA RESULT:      -8.0      0.000      0.000
REMARK  7 active torsions:
REMARK  status: ('A' for Active; 'I' for Inactive)
REMARK    1  A    between atoms: C_7  and  C_8 
REMARK    2  A    between atoms: C_8  and  N_9 
REMARK       I    between atoms: N_9  and  C_10 
REMARK       I    between atoms: C_10  and  N_11 
REMARK    3  A    between atoms: N_11  and  C_12 
REMARK    4  A    between atoms: C_12  and  C_13 
REMARK    5  A    between atoms: C_13  and  C_14 
REMARK    6  A    between atoms: C_14  and  O_15 
REMARK    7  A    between atoms: C_14  and  C_16 
ROOT
HETATM    1  N   UNL     1      42.394 -11.614   6.784  1.00  0.00    -0.337 N 
HETATM    2  C   UNL     1      43.631 -11.074   7.050  1.00  0.00     0.316 C 
HETATM    3  N   UNL     1      43.758 -10.792   8.381  1.00  0.00    -0.339 N 
HETATM    4  O   UNL     1      44.479 -10.879   6.187  1.00  0.00    -0.247 OA
HETATM    5  H   UNL     1      42.004 -12.087   7.589  1.00  0.00     0.164 HD
HETATM    6  H   UNL     1      42.884 -10.510   8.806  1.00  0.00     0.164 HD
ENDROOT
BRANCH   1   7
HETATM    7  C   UNL     1      42.092 -12.206   5.495  1.00  0.00     0.183 C 
BRANCH   7   8
HETATM    8  C   UNL     1      42.460 -13.643   5.453  1.00  0.00     0.044 A 
HETATM    9  N   UNL     1      42.627 -14.404   6.601  1.00  0.00    -0.343 N 
HETATM   10  C   UNL     1      42.932 -15.658   6.306  1.00  0.00     0.112 A 
HETATM   11  H   UNL     1      42.590 -13.994   7.542  1.00  0.00     0.167 HD
HETATM   12  N   UNL     1      42.982 -15.760   4.963  1.00  0.00    -0.311 N 
HETATM   13  C   UNL     1      43.192 -16.817   7.188  1.00  0.00     0.049 A 
HETATM   14  C   UNL     1      43.291 -16.955   4.315  1.00  0.00     0.014 A 
HETATM   15  C   UNL     1      42.692 -14.516   4.413  1.00  0.00     0.125 A 
HETATM   16  C   UNL     1      43.360 -17.028   2.819  1.00  0.00     0.068 C 
HETATM   17  C   UNL     1      43.528 -18.022   5.110  1.00  0.00     0.025 A 
HETATM   18  C   UNL     1      43.478 -17.974   6.568  1.00  0.00     0.006 A 
ENDBRANCH   7   8
ENDBRANCH   1   7
BRANCH   3  19
HETATM   19  C   UNL     1      44.915 -10.119   8.974  1.00  0.00     0.085 C 
HETATM   20  C   UNL     1      44.992  -8.635   8.603  1.00  0.00     0.032 C 
BRANCH  19  21
HETATM   21  C   UNL     1      44.992 -10.313  10.499  1.00  0.00     0.063 C 
BRANCH  21  22
HETATM   22  C   UNL     1      43.657 -10.636  11.187  1.00  0.00     0.177 C 
BRANCH  22  23
HETATM   23  O   UNL     1      43.737 -11.894  11.866  1.00  0.00    -0.389 OA
HETATM   24  H   UNL     1      44.067 -12.527  11.203  1.00  0.00     0.210 HD
ENDBRANCH  22  23
BRANCH  22  25
HETATM   25  C   UNL     1      43.236  -9.608  12.181  1.00  0.00     0.081 A 
HETATM   26  O   UNL     1      42.407 -10.040  13.176  1.00  0.00    -0.324 OA
HETATM   27  C   UNL     1      42.129  -8.967  13.961  1.00  0.00     0.142 A 
HETATM   28  C   UNL     1      42.771  -7.847  13.489  1.00  0.00     0.027 A 
HETATM   29  C   UNL     1      43.488  -8.259  12.340  1.00  0.00     0.037 A 
ENDBRANCH  22  25
ENDBRANCH  21  22
ENDBRANCH  19  21
ENDBRANCH   3  19
TORSDOF 7
ENDMDL
MODEL 2
REMARK VINA RESULT:      -8.0      5.308      7.895
REMARK  7 active torsions:
REMARK  status: ('A' for Active; 'I' for Inactive)
REMARK    1  A    between atoms: C_7  and  C_8 
REMARK    2  A    between atoms: C_8  and  N_9 
REMARK       I    between atoms: N_9  and  C_10 
REMARK       I    between atoms: C_10  and  N_11 
REMARK    3  A    between atoms: N_11  and  C_12 
REMARK    4  A    between atoms: C_12  and  C_13 
REMARK    5  A    between atoms: C_13  and  C_14 
REMARK    6  A    between atoms: C_14  and  O_15 
REMARK    7  A    between atoms: C_14  and  C_16 
ROOT
HETATM    1  N   UNL     1      42.162 -14.425   6.917  1.00  0.00    -0.337 N 
HETATM    2  C   UNL     1      40.890 -14.305   6.409  1.00  0.00     0.316 C 
HETATM    3  N   UNL     1      40.726 -13.094   5.797  1.00  0.00    -0.339 N 
HETATM    4  O   UNL     1      40.039 -15.180   6.514  1.00  0.00    -0.247 OA
HETATM    5  H   UNL     1      42.829 -13.858   6.411  1.00  0.00     0.164 HD
HETATM    6  H   UNL     1      41.260 -12.357   6.241  1.00  0.00     0.164 HD
ENDROOT
BRANCH   1   7
HETATM    7  C   UNL     1      42.659 -15.694   7.412  1.00  0.00     0.183 C 
BRANCH   7   8
HETATM    8  C   UNL     1      42.920 -16.649   6.306  1.00  0.00     0.044 A 
HETATM    9  N   UNL     1      42.643 -16.348   4.981  1.00  0.00    -0.343 N 
HETATM   10  C   UNL     1      42.981 -17.347   4.180  1.00  0.00     0.112 A 
HETATM   11  H   UNL     1      42.163 -15.483   4.702  1.00  0.00     0.167 HD
HETATM   12  N   UNL     1      43.481 -18.334   4.950  1.00  0.00    -0.311 N 
HETATM   13  C   UNL     1      42.880 -17.478   2.709  1.00  0.00     0.049 A 
HETATM   14  C   UNL     1      43.925 -19.544   4.419  1.00  0.00     0.014 A 
HETATM   15  C   UNL     1      43.451 -17.920   6.276  1.00  0.00     0.125 A 
HETATM   16  C   UNL     1      44.456 -20.630   5.306  1.00  0.00     0.068 C 
HETATM   17  C   UNL     1      43.840 -19.674   3.076  1.00  0.00     0.025 A 
HETATM   18  C   UNL     1      43.318 -18.638   2.192  1.00  0.00     0.006 A 
ENDBRANCH   7   8
ENDBRANCH   1   7
BRANCH   3  19
HETATM   19  C   UNL     1      39.460 -12.615   5.243  1.00  0.00     0.085 C 
HETATM   20  C   UNL     1      39.079 -11.221   5.750  1.00  0.00     0.032 C 
BRANCH  19  21
HETATM   21  C   UNL     1      39.430 -12.670   3.704  1.00  0.00     0.063 C 
BRANCH  21  22
HETATM   22  C   UNL     1      40.241 -13.813   3.075  1.00  0.00     0.177 C 
BRANCH  22  23
HETATM   23  O   UNL     1      39.846 -15.071   3.633  1.00  0.00    -0.389 OA
HETATM   24  H   UNL     1      40.001 -14.992   4.591  1.00  0.00     0.210 HD
ENDBRANCH  22  23
BRANCH  22  25
HETATM   25  C   UNL     1      40.092 -13.905   1.595  1.00  0.00     0.081 A 
HETATM   26  O   UNL     1      39.609 -12.792   0.969  1.00  0.00    -0.324 OA
HETATM   27  C   UNL     1      39.533 -13.076  -0.356  1.00  0.00     0.142 A 
HETATM   28  C   UNL     1      39.967 -14.358  -0.597  1.00  0.00     0.027 A 
HETATM   29  C   UNL     1      40.330 -14.895   0.661  1.00  0.00     0.037 A 
ENDBRANCH  22  25
ENDBRANCH  21  22
ENDBRANCH  19  21
ENDBRANCH   3  19
TORSDOF 7
ENDMDL
MODEL 3
REMARK VINA RESULT:      -7.9      0.642      1.601
REMARK  7 active torsions:
REMARK  status: ('A' for Active; 'I' for Inactive)
REMARK    1  A    between atoms: C_7  and  C_8 
REMARK    2  A    between atoms: C_8  and  N_9 
REMARK       I    between atoms: N_9  and  C_10 
REMARK       I    between atoms: C_10  and  N_11 
REMARK    3  A    between atoms: N_11  and  C_12 
REMARK    4  A    between atoms: C_12  and  C_13 
REMARK    5  A    between atoms: C_13  and  C_14 
REMARK    6  A    between atoms: C_14  and  O_15 
REMARK    7  A    between atoms: C_14  and  C_16 
ROOT
HETATM    1  N   UNL     1      42.315 -11.581   6.754  1.00  0.00    -0.337 N 
HETATM    2  C   UNL     1      43.543 -11.018   7.007  1.00  0.00     0.316 C 
HETATM    3  N   UNL     1      43.688 -10.753   8.340  1.00  0.00    -0.339 N 
HETATM    4  O   UNL     1      44.371 -10.790   6.133  1.00  0.00    -0.247 OA
HETATM    5  H   UNL     1      41.950 -12.075   7.558  1.00  0.00     0.164 HD
HETATM    6  H   UNL     1      42.815 -10.498   8.785  1.00  0.00     0.164 HD
ENDROOT
BRANCH   1   7
HETATM    7  C   UNL     1      42.003 -12.160   5.462  1.00  0.00     0.183 C 
BRANCH   7   8
HETATM    8  C   UNL     1      42.471 -13.565   5.364  1.00  0.00     0.044 A 
HETATM    9  N   UNL     1      42.514 -14.254   4.161  1.00  0.00    -0.343 N 
HETATM   10  C   UNL     1      42.985 -15.481   4.327  1.00  0.00     0.112 A 
HETATM   11  H   UNL     1      42.146 -13.859   3.287  1.00  0.00     0.167 HD
HETATM   12  N   UNL     1      43.257 -15.639   5.637  1.00  0.00    -0.311 N 
HETATM   13  C   UNL     1      43.215 -16.563   3.344  1.00  0.00     0.049 A 
HETATM   14  C   UNL     1      43.761 -16.830   6.158  1.00  0.00     0.014 A 
HETATM   15  C   UNL     1      42.943 -14.459   6.300  1.00  0.00     0.125 A 
HETATM   16  C   UNL     1      44.032 -16.980   7.624  1.00  0.00     0.068 C 
HETATM   17  C   UNL     1      43.978 -17.826   5.269  1.00  0.00     0.025 A 
HETATM   18  C   UNL     1      43.712 -17.709   3.839  1.00  0.00     0.006 A 
ENDBRANCH   7   8
ENDBRANCH   1   7
BRANCH   3  19
HETATM   19  C   UNL     1      44.839 -10.063   8.923  1.00  0.00     0.085 C 
HETATM   20  C   UNL     1      44.869  -8.569   8.586  1.00  0.00     0.032 C 
BRANCH  19  21
HETATM   21  C   UNL     1      44.956 -10.289  10.442  1.00  0.00     0.063 C 
BRANCH  21  22
HETATM   22  C   UNL     1      43.639 -10.628  11.156  1.00  0.00     0.177 C 
BRANCH  22  23
HETATM   23  O   UNL     1      43.743 -11.890  11.824  1.00  0.00    -0.389 OA
HETATM   24  H   UNL     1      44.620 -11.887  12.249  1.00  0.00     0.210 HD
ENDBRANCH  22  23
BRANCH  22  25
HETATM   25  C   UNL     1      43.230  -9.611  12.166  1.00  0.00     0.081 A 
HETATM   26  O   UNL     1      42.384 -10.043  13.146  1.00  0.00    -0.324 OA
HETATM   27  C   UNL     1      42.121  -8.980  13.949  1.00  0.00     0.142 A 
HETATM   28  C   UNL     1      42.792  -7.865  13.504  1.00  0.00     0.027 A 
HETATM   29  C   UNL     1      43.510  -8.270  12.353  1.00  0.00     0.037 A 
ENDBRANCH  22  25
ENDBRANCH  21  22
ENDBRANCH  19  21
ENDBRANCH   3  19
TORSDOF 7
ENDMDL
MODEL 4
REMARK VINA RESULT:      -7.9      2.894      4.758
REMARK  7 active torsions:
REMARK  status: ('A' for Active; 'I' for Inactive)
REMARK    1  A    between atoms: C_7  and  C_8 
REMARK    2  A    between atoms: C_8  and  N_9 
REMARK       I    between atoms: N_9  and  C_10 
REMARK       I    between atoms: C_10  and  N_11 
REMARK    3  A    between atoms: N_11  and  C_12 
REMARK    4  A    between atoms: C_12  and  C_13 
REMARK    5  A    between atoms: C_13  and  C_14 
REMARK    6  A    between atoms: C_14  and  O_15 
REMARK    7  A    between atoms: C_14  and  C_16 
ROOT
HETATM    1  N   UNL     1      43.453 -14.199   2.310  1.00  0.00    -0.337 N 
HETATM    2  C   UNL     1      42.954 -13.328   3.249  1.00  0.00     0.316 C 
HETATM    3  N   UNL     1      43.753 -12.225   3.357  1.00  0.00    -0.339 N 
HETATM    4  O   UNL     1      41.932 -13.544   3.890  1.00  0.00    -0.247 OA
HETATM    5  H   UNL     1      44.005 -13.727   1.607  1.00  0.00     0.164 HD
HETATM    6  H   UNL     1      44.731 -12.434   3.202  1.00  0.00     0.164 HD
ENDROOT
BRANCH   1   7
HETATM    7  C   UNL     1      42.676 -15.333   1.846  1.00  0.00     0.183 C 
BRANCH   7   8
HETATM    8  C   UNL     1      42.985 -16.562   2.619  1.00  0.00     0.044 A 
HETATM    9  N   UNL     1      43.170 -17.796   2.015  1.00  0.00    -0.343 N 
HETATM   10  C   UNL     1      43.454 -18.731   2.907  1.00  0.00     0.112 A 
HETATM   11  H   UNL     1      43.020 -17.944   1.009  1.00  0.00     0.167 HD
HETATM   12  N   UNL     1      43.458 -18.146   4.122  1.00  0.00    -0.311 N 
HETATM   13  C   UNL     1      43.735 -20.174   2.733  1.00  0.00     0.049 A 
HETATM   14  C   UNL     1      43.713 -18.858   5.294  1.00  0.00     0.014 A 
HETATM   15  C   UNL     1      43.167 -16.797   3.964  1.00  0.00     0.125 A 
HETATM   16  C   UNL     1      43.687 -18.181   6.631  1.00  0.00     0.068 C 
HETATM   17  C   UNL     1      43.973 -20.176   5.147  1.00  0.00     0.025 A 
HETATM   18  C   UNL     1      43.994 -20.861   3.859  1.00  0.00     0.006 A 
ENDBRANCH   7   8
ENDBRANCH   1   7
BRANCH   3  19
HETATM   19  C   UNL     1      43.555 -11.156   4.336  1.00  0.00     0.085 C 
HETATM   20  C   UNL     1      42.228 -10.415   4.147  1.00  0.00     0.032 C 
BRANCH  19  21
HETATM   21  C   UNL     1      43.711 -11.649   5.787  1.00  0.00     0.063 C 
BRANCH  21  22
HETATM   22  C   UNL     1      45.142 -11.606   6.342  1.00  0.00     0.177 C 
BRANCH  22  23
HETATM   23  O   UNL     1      46.042 -11.075   5.363  1.00  0.00    -0.389 OA
HETATM   24  H   UNL     1      46.186 -10.146   5.618  1.00  0.00     0.210 HD
ENDBRANCH  22  23
BRANCH  22  25
HETATM   25  C   UNL     1      45.278 -10.784   7.578  1.00  0.00     0.081 A 
HETATM   26  O   UNL     1      44.490 -11.148   8.631  1.00  0.00    -0.324 OA
HETATM   27  C   UNL     1      44.746 -10.280   9.644  1.00  0.00     0.142 A 
HETATM   28  C   UNL     1      45.694  -9.362   9.260  1.00  0.00     0.027 A 
HETATM   29  C   UNL     1      46.041  -9.686   7.927  1.00  0.00     0.037 A 
ENDBRANCH  22  25
ENDBRANCH  21  22
ENDBRANCH  19  21
ENDBRANCH   3  19
TORSDOF 7
ENDMDL
MODEL 5
REMARK VINA RESULT:      -7.9      7.293     10.297
REMARK  7 active torsions:
REMARK  status: ('A' for Active; 'I' for Inactive)
REMARK    1  A    between atoms: C_7  and  C_8 
REMARK    2  A    between atoms: C_8  and  N_9 
REMARK       I    between atoms: N_9  and  C_10 
REMARK       I    between atoms: C_10  and  N_11 
REMARK    3  A    between atoms: N_11  and  C_12 
REMARK    4  A    between atoms: C_12  and  C_13 
REMARK    5  A    between atoms: C_13  and  C_14 
REMARK    6  A    between atoms: C_14  and  O_15 
REMARK    7  A    between atoms: C_14  and  C_16 
ROOT
HETATM    1  N   UNL     1      42.438 -14.872   1.700  1.00  0.00    -0.337 N 
HETATM    2  C   UNL     1      41.858 -13.662   1.396  1.00  0.00     0.316 C 
HETATM    3  N   UNL     1      41.014 -13.786   0.329  1.00  0.00    -0.339 N 
HETATM    4  O   UNL     1      42.093 -12.630   2.013  1.00  0.00    -0.247 OA
HETATM    5  H   UNL     1      41.861 -15.653   1.415  1.00  0.00     0.164 HD
HETATM    6  H   UNL     1      41.328 -14.478  -0.340  1.00  0.00     0.164 HD
ENDROOT
BRANCH   1   7
HETATM    7  C   UNL     1      43.194 -15.058   2.923  1.00  0.00     0.183 C 
BRANCH   7   8
HETATM    8  C   UNL     1      43.381 -16.496   3.238  1.00  0.00     0.044 A 
HETATM    9  N   UNL     1      43.554 -16.959   4.534  1.00  0.00    -0.343 N 
HETATM   10  C   UNL     1      43.678 -18.277   4.561  1.00  0.00     0.112 A 
HETATM   11  H   UNL     1      43.647 -16.325   5.336  1.00  0.00     0.167 HD
HETATM   12  N   UNL     1      43.599 -18.720   3.290  1.00  0.00    -0.311 N 
HETATM   13  C   UNL     1      43.871 -19.202   5.700  1.00  0.00     0.049 A 
HETATM   14  C   UNL     1      43.705 -20.070   2.960  1.00  0.00     0.014 A 
HETATM   15  C   UNL     1      43.415 -17.627   2.451  1.00  0.00     0.125 A 
HETATM   16  C   UNL     1      43.635 -20.526   1.534  1.00  0.00     0.068 C 
HETATM   17  C   UNL     1      43.879 -20.925   3.993  1.00  0.00     0.025 A 
HETATM   18  C   UNL     1      43.961 -20.506   5.389  1.00  0.00     0.006 A 
ENDBRANCH   7   8
ENDBRANCH   1   7
BRANCH   3  19
HETATM   19  C   UNL     1      40.318 -12.666  -0.307  1.00  0.00     0.085 C 
HETATM   20  C   UNL     1      39.799 -11.640   0.704  1.00  0.00     0.032 C 
BRANCH  19  21
HETATM   21  C   UNL     1      41.167 -11.987  -1.397  1.00  0.00     0.063 C 
BRANCH  21  22
HETATM   22  C   UNL     1      40.753 -12.305  -2.842  1.00  0.00     0.177 C 
BRANCH  22  23
HETATM   23  O   UNL     1      41.689 -13.207  -3.442  1.00  0.00    -0.389 OA
HETATM   24  H   UNL     1      42.516 -12.701  -3.535  1.00  0.00     0.210 HD
ENDBRANCH  22  23
BRANCH  22  25
HETATM   25  C   UNL     1      39.398 -12.917  -2.952  1.00  0.00     0.081 A 
HETATM   26  O   UNL     1      39.354 -14.202  -3.410  1.00  0.00    -0.324 OA
HETATM   27  C   UNL     1      38.047 -14.569  -3.452  1.00  0.00     0.142 A 
HETATM   28  C   UNL     1      37.245 -13.539  -3.022  1.00  0.00     0.027 A 
HETATM   29  C   UNL     1      38.115 -12.471  -2.696  1.00  0.00     0.037 A 
ENDBRANCH  22  25
ENDBRANCH  21  22
ENDBRANCH  19  21
ENDBRANCH   3  19
TORSDOF 7
ENDMDL
MODEL 6
REMARK VINA RESULT:      -7.9      1.553      2.403
REMARK  7 active torsions:
REMARK  status: ('A' for Active; 'I' for Inactive)
REMARK    1  A    between atoms: C_7  and  C_8 
REMARK    2  A    between atoms: C_8  and  N_9 
REMARK       I    between atoms: N_9  and  C_10 
REMARK       I    between atoms: C_10  and  N_11 
REMARK    3  A    between atoms: N_11  and  C_12 
REMARK    4  A    between atoms: C_12  and  C_13 
REMARK    5  A    between atoms: C_13  and  C_14 
REMARK    6  A    between atoms: C_14  and  O_15 
REMARK    7  A    between atoms: C_14  and  C_16 
ROOT
HETATM    1  N   UNL     1      43.240 -13.184   7.313  1.00  0.00    -0.337 N 
HETATM    2  C   UNL     1      44.037 -12.071   7.447  1.00  0.00     0.316 C 
HETATM    3  N   UNL     1      43.423 -11.129   8.224  1.00  0.00    -0.339 N 
HETATM    4  O   UNL     1      45.139 -11.967   6.922  1.00  0.00    -0.247 OA
HETATM    5  H   UNL     1      42.610 -13.299   8.096  1.00  0.00     0.164 HD
HETATM    6  H   UNL     1      42.417 -11.129   8.116  1.00  0.00     0.164 HD
ENDROOT
BRANCH   1   7
HETATM    7  C   UNL     1      43.750 -14.410   6.729  1.00  0.00     0.183 C 
BRANCH   7   8
HETATM    8  C   UNL     1      42.972 -14.811   5.531  1.00  0.00     0.044 A 
HETATM    9  N   UNL     1      41.876 -14.091   5.079  1.00  0.00    -0.343 N 
HETATM   10  C   UNL     1      41.362 -14.633   3.986  1.00  0.00     0.112 A 
HETATM   11  H   UNL     1      41.492 -13.290   5.596  1.00  0.00     0.167 HD
HETATM   12  N   UNL     1      42.095 -15.726   3.690  1.00  0.00    -0.311 N 
HETATM   13  C   UNL     1      40.209 -14.217   3.156  1.00  0.00     0.049 A 
HETATM   14  C   UNL     1      41.813 -16.541   2.595  1.00  0.00     0.014 A 
HETATM   15  C   UNL     1      43.101 -15.854   4.641  1.00  0.00     0.125 A 
HETATM   16  C   UNL     1      42.634 -17.762   2.308  1.00  0.00     0.068 C 
HETATM   17  C   UNL     1      40.763 -16.169   1.828  1.00  0.00     0.025 A 
HETATM   18  C   UNL     1      39.941 -14.993   2.092  1.00  0.00     0.006 A 
ENDBRANCH   7   8
ENDBRANCH   1   7
BRANCH   3  19
HETATM   19  C   UNL     1      43.962  -9.792   8.478  1.00  0.00     0.085 C 
HETATM   20  C   UNL     1      43.088  -8.680   7.892  1.00  0.00     0.032 C 
BRANCH  19  21
HETATM   21  C   UNL     1      44.245  -9.544   9.971  1.00  0.00     0.063 C 
BRANCH  21  22
HETATM   22  C   UNL     1      43.232 -10.169  10.942  1.00  0.00     0.177 C 
BRANCH  22  23
HETATM   23  O   UNL     1      43.684 -11.456  11.375  1.00  0.00    -0.389 OA
HETATM   24  H   UNL     1      43.164 -12.101  10.863  1.00  0.00     0.210 HD
ENDBRANCH  22  23
BRANCH  22  25
HETATM   25  C   UNL     1      42.983  -9.341  12.156  1.00  0.00     0.081 A 
HETATM   26  O   UNL     1      42.097  -9.852  13.060  1.00  0.00    -0.324 OA
HETATM   27  C   UNL     1      41.997  -8.955  14.075  1.00  0.00     0.142 A 
HETATM   28  C   UNL     1      42.812  -7.873  13.842  1.00  0.00     0.027 A 
HETATM   29  C   UNL     1      43.451  -8.120  12.604  1.00  0.00     0.037 A 
ENDBRANCH  22  25
ENDBRANCH  21  22
ENDBRANCH  19  21
ENDBRANCH   3  19
TORSDOF 7
ENDMDL
MODEL 7
REMARK VINA RESULT:      -7.8      1.600      3.346
REMARK  7 active torsions:
REMARK  status: ('A' for Active; 'I' for Inactive)
REMARK    1  A    between atoms: C_7  and  C_8 
REMARK    2  A    between atoms: C_8  and  N_9 
REMARK       I    between atoms: N_9  and  C_10 
REMARK       I    between atoms: C_10  and  N_11 
REMARK    3  A    between atoms: N_11  and  C_12 
REMARK    4  A    between atoms: C_12  and  C_13 
REMARK    5  A    between atoms: C_13  and  C_14 
REMARK    6  A    between atoms: C_14  and  O_15 
REMARK    7  A    between atoms: C_14  and  C_16 
ROOT
HETATM    1  N   UNL     1      42.357 -14.405   7.048  1.00  0.00    -0.337 N 
HETATM    2  C   UNL     1      43.180 -13.342   6.760  1.00  0.00     0.316 C 
HETATM    3  N   UNL     1      42.452 -12.200   6.587  1.00  0.00    -0.339 N 
HETATM    4  O   UNL     1      44.399 -13.441   6.671  1.00  0.00    -0.247 OA
HETATM    5  H   UNL     1      41.496 -14.111   7.490  1.00  0.00     0.164 HD
HETATM    6  H   UNL     1      41.543 -12.374   6.177  1.00  0.00     0.164 HD
ENDROOT
BRANCH   1   7
HETATM    7  C   UNL     1      42.895 -15.675   7.496  1.00  0.00     0.183 C 
BRANCH   7   8
HETATM    8  C   UNL     1      43.087 -16.617   6.365  1.00  0.00     0.044 A 
HETATM    9  N   UNL     1      42.779 -16.283   5.055  1.00  0.00    -0.343 N 
HETATM   10  C   UNL     1      43.056 -17.277   4.227  1.00  0.00     0.112 A 
HETATM   11  H   UNL     1      42.322 -15.396   4.807  1.00  0.00     0.167 HD
HETATM   12  N   UNL     1      43.545 -18.296   4.963  1.00  0.00    -0.311 N 
HETATM   13  C   UNL     1      42.904 -17.377   2.758  1.00  0.00     0.049 A 
HETATM   14  C   UNL     1      43.929 -19.510   4.396  1.00  0.00     0.014 A 
HETATM   15  C   UNL     1      43.571 -17.905   6.296  1.00  0.00     0.125 A 
HETATM   16  C   UNL     1      44.448 -20.630   5.246  1.00  0.00     0.068 C 
HETATM   17  C   UNL     1      43.797 -19.612   3.054  1.00  0.00     0.025 A 
HETATM   18  C   UNL     1      43.284 -18.541   2.206  1.00  0.00     0.006 A 
ENDBRANCH   7   8
ENDBRANCH   1   7
BRANCH   3  19
HETATM   19  C   UNL     1      43.018 -10.915   6.173  1.00  0.00     0.085 C 
HETATM   20  C   UNL     1      42.234 -10.262   5.031  1.00  0.00     0.032 C 
BRANCH  19  21
HETATM   21  C   UNL     1      43.193  -9.940   7.352  1.00  0.00     0.063 C 
BRANCH  21  22
HETATM   22  C   UNL     1      44.345 -10.275   8.311  1.00  0.00     0.177 C 
BRANCH  22  23
HETATM   23  O   UNL     1      45.505  -9.499   7.988  1.00  0.00    -0.389 OA
HETATM   24  H   UNL     1      46.098  -9.585   8.757  1.00  0.00     0.210 HD
ENDBRANCH  22  23
BRANCH  22  25
HETATM   25  C   UNL     1      44.017 -10.027   9.744  1.00  0.00     0.081 A 
HETATM   26  O   UNL     1      43.848 -11.136  10.522  1.00  0.00    -0.324 OA
HETATM   27  C   UNL     1      43.545 -10.707  11.774  1.00  0.00     0.142 A 
HETATM   28  C   UNL     1      43.522  -9.333  11.818  1.00  0.00     0.027 A 
HETATM   29  C   UNL     1      43.828  -8.892  10.509  1.00  0.00     0.037 A 
ENDBRANCH  22  25
ENDBRANCH  21  22
ENDBRANCH  19  21
ENDBRANCH   3  19
TORSDOF 7
ENDMDL
MODEL 8
REMARK VINA RESULT:      -7.8      7.116     10.372
REMARK  7 active torsions:
REMARK  status: ('A' for Active; 'I' for Inactive)
REMARK    1  A    between atoms: C_7  and  C_8 
REMARK    2  A    between atoms: C_8  and  N_9 
REMARK       I    between atoms: N_9  and  C_10 
REMARK       I    between atoms: C_10  and  N_11 
REMARK    3  A    between atoms: N_11  and  C_12 
REMARK    4  A    between atoms: C_12  and  C_13 
REMARK    5  A    between atoms: C_13  and  C_14 
REMARK    6  A    between atoms: C_14  and  O_15 
REMARK    7  A    between atoms: C_14  and  C_16 
ROOT
HETATM    1  N   UNL     1      39.564 -14.773   1.711  1.00  0.00    -0.337 N 
HETATM    2  C   UNL     1      40.139 -14.396   0.520  1.00  0.00     0.316 C 
HETATM    3  N   UNL     1      39.246 -14.513  -0.507  1.00  0.00    -0.339 N 
HETATM    4  O   UNL     1      41.301 -14.017   0.426  1.00  0.00    -0.247 OA
HETATM    5  H   UNL     1      38.560 -14.646   1.706  1.00  0.00     0.164 HD
HETATM    6  H   UNL     1      38.600 -15.281  -0.377  1.00  0.00     0.164 HD
ENDROOT
BRANCH   1   7
HETATM    7  C   UNL     1      40.225 -14.528   2.978  1.00  0.00     0.183 C 
BRANCH   7   8
HETATM    8  C   UNL     1      41.263 -15.551   3.260  1.00  0.00     0.044 A 
HETATM    9  N   UNL     1      41.494 -16.630   2.420  1.00  0.00    -0.343 N 
HETATM   10  C   UNL     1      42.480 -17.389   2.873  1.00  0.00     0.112 A 
HETATM   11  H   UNL     1      40.903 -16.827   1.603  1.00  0.00     0.167 HD
HETATM   12  N   UNL     1      42.921 -16.840   4.022  1.00  0.00    -0.311 N 
HETATM   13  C   UNL     1      43.075 -18.625   2.317  1.00  0.00     0.049 A 
HETATM   14  C   UNL     1      43.956 -17.401   4.770  1.00  0.00     0.014 A 
HETATM   15  C   UNL     1      42.176 -15.696   4.282  1.00  0.00     0.125 A 
HETATM   16  C   UNL     1      44.407 -16.778   6.056  1.00  0.00     0.068 C 
HETATM   17  C   UNL     1      44.510 -18.529   4.270  1.00  0.00     0.025 A 
HETATM   18  C   UNL     1      44.081 -19.162   3.027  1.00  0.00     0.006 A 
ENDBRANCH   7   8
ENDBRANCH   1   7
BRANCH   3  19
HETATM   19  C   UNL     1      39.573 -14.285  -1.915  1.00  0.00     0.085 C 
HETATM   20  C   UNL     1      38.674 -15.075  -2.868  1.00  0.00     0.032 C 
BRANCH  19  21
HETATM   21  C   UNL     1      39.590 -12.790  -2.282  1.00  0.00     0.063 C 
BRANCH  21  22
HETATM   22  C   UNL     1      40.987 -12.165  -2.418  1.00  0.00     0.177 C 
BRANCH  22  23
HETATM   23  O   UNL     1      41.724 -12.811  -3.462  1.00  0.00    -0.389 OA
HETATM   24  H   UNL     1      42.477 -12.222  -3.651  1.00  0.00     0.210 HD
ENDBRANCH  22  23
BRANCH  22  25
HETATM   25  C   UNL     1      40.959 -10.705  -2.717  1.00  0.00     0.081 A 
HETATM   26  O   UNL     1      41.671  -9.904  -1.871  1.00  0.00    -0.324 OA
HETATM   27  C   UNL     1      41.511  -8.625  -2.297  1.00  0.00     0.142 A 
HETATM   28  C   UNL     1      40.709  -8.588  -3.412  1.00  0.00     0.027 A 
HETATM   29  C   UNL     1      40.352  -9.930  -3.687  1.00  0.00     0.037 A 
ENDBRANCH  22  25
ENDBRANCH  21  22
ENDBRANCH  19  21
ENDBRANCH   3  19
TORSDOF 7
ENDMDL
MODEL 9
REMARK VINA RESULT:      -7.8      6.816     10.270
REMARK  7 active torsions:
REMARK  status: ('A' for Active; 'I' for Inactive)
REMARK    1  A    between atoms: C_7  and  C_8 
REMARK    2  A    between atoms: C_8  and  N_9 
REMARK       I    between atoms: N_9  and  C_10 
REMARK       I    between atoms: C_10  and  N_11 
REMARK    3  A    between atoms: N_11  and  C_12 
REMARK    4  A    between atoms: C_12  and  C_13 
REMARK    5  A    between atoms: C_13  and  C_14 
REMARK    6  A    between atoms: C_14  and  O_15 
REMARK    7  A    between atoms: C_14  and  C_16 
ROOT
HETATM    1  N   UNL     1      41.164 -14.734   0.602  1.00  0.00    -0.337 N 
HETATM    2  C   UNL     1      40.518 -13.535   0.409  1.00  0.00     0.316 C 
HETATM    3  N   UNL     1      41.227 -12.736  -0.442  1.00  0.00    -0.339 N 
HETATM    4  O   UNL     1      39.455 -13.250   0.949  1.00  0.00    -0.247 OA
HETATM    5  H   UNL     1      41.749 -14.982  -0.185  1.00  0.00     0.164 HD
HETATM    6  H   UNL     1      42.227 -12.864  -0.356  1.00  0.00     0.164 HD
ENDROOT
BRANCH   1   7
HETATM    7  C   UNL     1      40.514 -15.840   1.279  1.00  0.00     0.183 C 
BRANCH   7   8
HETATM    8  C   UNL     1      41.211 -16.196   2.539  1.00  0.00     0.044 A 
HETATM    9  N   UNL     1      40.821 -15.698   3.774  1.00  0.00    -0.343 N 
HETATM   10  C   UNL     1      41.581 -16.175   4.747  1.00  0.00     0.112 A 
HETATM   11  H   UNL     1      40.083 -14.990   3.872  1.00  0.00     0.167 HD
HETATM   12  N   UNL     1      42.495 -16.992   4.186  1.00  0.00    -0.311 N 
HETATM   13  C   UNL     1      41.538 -15.935   6.207  1.00  0.00     0.049 A 
HETATM   14  C   UNL     1      43.465 -17.655   4.936  1.00  0.00     0.014 A 
HETATM   15  C   UNL     1      42.283 -17.017   2.813  1.00  0.00     0.125 A 
HETATM   16  C   UNL     1      44.482 -18.539   4.278  1.00  0.00     0.068 C 
HETATM   17  C   UNL     1      43.434 -17.446   6.272  1.00  0.00     0.025 A 
HETATM   18  C   UNL     1      42.463 -16.582   6.935  1.00  0.00     0.006 A 
ENDBRANCH   7   8
ENDBRANCH   1   7
BRANCH   3  19
HETATM   19  C   UNL     1      40.863 -11.358  -0.775  1.00  0.00     0.085 C 
HETATM   20  C   UNL     1      41.416 -10.340   0.226  1.00  0.00     0.032 C 
BRANCH  19  21
HETATM   21  C   UNL     1      41.244 -10.979  -2.218  1.00  0.00     0.063 C 
BRANCH  21  22
HETATM   22  C   UNL     1      40.857 -12.009  -3.289  1.00  0.00     0.177 C 
BRANCH  22  23
HETATM   23  O   UNL     1      41.871 -13.014  -3.405  1.00  0.00    -0.389 OA
HETATM   24  H   UNL     1      42.101 -13.259  -2.491  1.00  0.00     0.210 HD
ENDBRANCH  22  23
BRANCH  22  25
HETATM   25  C   UNL     1      39.564 -12.698  -3.014  1.00  0.00     0.081 A 
HETATM   26  O   UNL     1      39.592 -14.062  -3.040  1.00  0.00    -0.324 OA
HETATM   27  C   UNL     1      38.331 -14.495  -2.783  1.00  0.00     0.142 A 
HETATM   28  C   UNL     1      37.488 -13.428  -2.585  1.00  0.00     0.027 A 
HETATM   29  C   UNL     1      38.282 -12.266  -2.731  1.00  0.00     0.037 A 
ENDBRANCH  22  25
ENDBRANCH  21  22
ENDBRANCH  19  21
ENDBRANCH   3  19
TORSDOF 7
ENDMDL
MODEL 10
REMARK VINA RESULT:      -7.7      1.774      3.095
REMARK  7 active torsions:
REMARK  status: ('A' for Active; 'I' for Inactive)
REMARK    1  A    between atoms: C_7  and  C_8 
REMARK    2  A    between atoms: C_8  and  N_9 
REMARK       I    between atoms: N_9  and  C_10 
REMARK       I    between atoms: C_10  and  N_11 
REMARK    3  A    between atoms: N_11  and  C_12 
REMARK    4  A    between atoms: C_12  and  C_13 
REMARK    5  A    between atoms: C_13  and  C_14 
REMARK    6  A    between atoms: C_14  and  O_15 
REMARK    7  A    between atoms: C_14  and  C_16 
ROOT
HETATM    1  N   UNL     1      40.847 -10.701   7.226  1.00  0.00    -0.337 N 
HETATM    2  C   UNL     1      41.690  -9.698   7.643  1.00  0.00     0.316 C 
HETATM    3  N   UNL     1      41.756  -9.658   9.007  1.00  0.00    -0.339 N 
HETATM    4  O   UNL     1      42.280  -8.952   6.870  1.00  0.00    -0.247 OA
HETATM    5  H   UNL     1      40.786 -11.453   7.901  1.00  0.00     0.164 HD
HETATM    6  H   UNL     1      40.885  -9.923   9.448  1.00  0.00     0.164 HD
ENDROOT
BRANCH   1   7
HETATM    7  C   UNL     1      40.779 -11.097   5.833  1.00  0.00     0.183 C 
BRANCH   7   8
HETATM    8  C   UNL     1      41.283 -12.479   5.630  1.00  0.00     0.044 A 
HETATM    9  N   UNL     1      41.208 -13.451   6.616  1.00  0.00    -0.343 N 
HETATM   10  C   UNL     1      41.703 -14.604   6.193  1.00  0.00     0.112 A 
HETATM   11  H   UNL     1      40.878 -13.246   7.567  1.00  0.00     0.167 HD
HETATM   12  N   UNL     1      42.123 -14.425   4.924  1.00  0.00    -0.311 N 
HETATM   13  C   UNL     1      41.826 -15.908   6.881  1.00  0.00     0.049 A 
HETATM   14  C   UNL     1      42.711 -15.447   4.181  1.00  0.00     0.014 A 
HETATM   15  C   UNL     1      41.872 -13.109   4.556  1.00  0.00     0.125 A 
HETATM   16  C   UNL     1      43.189 -15.208   2.780  1.00  0.00     0.068 C 
HETATM   17  C   UNL     1      42.828 -16.644   4.798  1.00  0.00     0.025 A 
HETATM   18  C   UNL     1      42.382 -16.900   6.164  1.00  0.00     0.006 A 
ENDBRANCH   7   8
ENDBRANCH   1   7
BRANCH   3  19
HETATM   19  C   UNL     1      42.487  -8.644   9.768  1.00  0.00     0.085 C 
HETATM   20  C   UNL     1      41.655  -7.385  10.029  1.00  0.00     0.032 C 
BRANCH  19  21
HETATM   21  C   UNL     1      43.076  -9.199  11.077  1.00  0.00     0.063 C 
BRANCH  21  22
HETATM   22  C   UNL     1      44.163 -10.271  10.903  1.00  0.00     0.177 C 
BRANCH  22  23
HETATM   23  O   UNL     1      43.584 -11.580  10.944  1.00  0.00    -0.389 OA
HETATM   24  H   UNL     1      44.338 -12.196  10.990  1.00  0.00     0.210 HD
ENDBRANCH  22  23
BRANCH  22  25
HETATM   25  C   UNL     1      44.921 -10.148   9.626  1.00  0.00     0.081 A 
HETATM   26  O   UNL     1      44.705 -11.128   8.701  1.00  0.00    -0.324 OA
HETATM   27  C   UNL     1      45.488 -10.849   7.628  1.00  0.00     0.142 A 
HETATM   28  C   UNL     1      46.205  -9.696   7.843  1.00  0.00     0.027 A 
HETATM   29  C   UNL     1      45.839  -9.240   9.133  1.00  0.00     0.037 A 
ENDBRANCH  22  25
ENDBRANCH  21  22
ENDBRANCH  19  21
ENDBRANCH   3  19
TORSDOF 7
ENDMDL
