MODEL 1
REMARK VINA RESULT:      -7.5      0.000      0.000
REMARK  5 active torsions:
REMARK  status: ('A' for Active; 'I' for Inactive)
REMARK    1  A    between atoms: C_4  and  N_5 
REMARK       I    between atoms: N_5  and  C_6 
REMARK       I    between atoms: C_6  and  N_7 
REMARK    2  A    between atoms: N_7  and  C_8 
REMARK    3  A    between atoms: C_11  and  O_12 
REMARK    4  A    between atoms: O_12  and  C_13 
REMARK    5  A    between atoms: C_13  and  C_14 
ROOT
HETATM    1  N   UNL     1      45.357 -10.344   8.728  1.00  0.00    -0.293 N 
HETATM    2  C   UNL     1      45.152 -11.180   7.664  1.00  0.00     0.326 C 
HETATM    3  N   UNL     1      43.992 -11.900   7.670  1.00  0.00    -0.309 N 
HETATM    4  O   UNL     1      46.019 -11.201   6.791  1.00  0.00    -0.247 OA
HETATM    5  H   UNL     1      46.222  -9.831   8.645  1.00  0.00     0.172 HD
HETATM    6  H   UNL     1      43.410 -11.730   8.488  1.00  0.00     0.170 HD
ENDROOT
BRANCH   3   7
HETATM    7  C   UNL     1      43.502 -12.788   6.698  1.00  0.00     0.036 A 
HETATM    8  C   UNL     1      43.619 -14.176   6.781  1.00  0.00     0.032 A 
HETATM    9  C   UNL     1      43.131 -14.997   5.756  1.00  0.00     0.039 A 
HETATM   10  C   UNL     1      42.527 -14.437   4.631  1.00  0.00     0.068 A 
HETATM   11  C   UNL     1      42.386 -13.052   4.558  1.00  0.00     0.039 A 
HETATM   12  C   UNL     1      42.869 -12.232   5.582  1.00  0.00     0.032 A 
BRANCH  10  13
HETATM   13  O   UNL     1      42.037 -15.127   3.557  1.00  0.00    -0.351 OA
BRANCH  13  14
HETATM   14  C   UNL     1      42.008 -16.552   3.672  1.00  0.00     0.179 C 
BRANCH  14  15
HETATM   15  C   UNL     1      42.635 -17.168   2.413  1.00  0.00     0.002 C 
HETATM   16  C   UNL     1      43.293 -16.097   1.540  1.00  0.00     0.011 C 
HETATM   17  C   UNL     1      43.656 -18.238   2.798  1.00  0.00     0.011 C 
ENDBRANCH  14  15
ENDBRANCH  13  14
ENDBRANCH  10  13
ENDBRANCH   3   7
BRANCH   1  18
HETATM   18  C   UNL     1      44.560 -10.114   9.850  1.00  0.00     0.131 A 
HETATM   19  C   UNL     1      44.049  -8.831  10.022  1.00  0.00     0.057 A 
HETATM   20  C   UNL     1      43.241  -8.557  11.131  1.00  0.00    -0.057 A 
HETATM   21  C   UNL     1      42.701  -7.177  11.357  1.00  0.00     0.048 C 
HETATM   22  C   UNL     1      42.999  -9.579  12.044  1.00  0.00     0.026 A 
HETATM   23  C   UNL     1      43.546 -10.827  11.797  1.00  0.00     0.119 A 
HETATM   24  N   UNL     1      44.312 -11.118  10.721  1.00  0.00    -0.243 NA
ENDBRANCH   1  18
TORSDOF 5
ENDMDL
MODEL 2
REMARK VINA RESULT:      -7.2      2.492      8.878
REMARK  5 active torsions:
REMARK  status: ('A' for Active; 'I' for Inactive)
REMARK    1  A    between atoms: C_4  and  N_5 
REMARK       I    between atoms: N_5  and  C_6 
REMARK       I    between atoms: C_6  and  N_7 
REMARK    2  A    between atoms: N_7  and  C_8 
REMARK    3  A    between atoms: C_11  and  O_12 
REMARK    4  A    between atoms: O_12  and  C_13 
REMARK    5  A    between atoms: C_13  and  C_14 
ROOT
HETATM    1  N   UNL     1      42.628 -15.423   2.872  1.00  0.00    -0.293 N 
HETATM    2  C   UNL     1      42.531 -14.212   3.502  1.00  0.00     0.326 C 
HETATM    3  N   UNL     1      43.052 -14.139   4.762  1.00  0.00    -0.309 N 
HETATM    4  O   UNL     1      41.999 -13.296   2.879  1.00  0.00    -0.247 OA
HETATM    5  H   UNL     1      42.241 -15.397   1.940  1.00  0.00     0.172 HD
HETATM    6  H   UNL     1      43.451 -15.016   5.092  1.00  0.00     0.170 HD
ENDROOT
BRANCH   3   7
HETATM    7  C   UNL     1      43.136 -13.027   5.616  1.00  0.00     0.036 A 
HETATM    8  C   UNL     1      42.178 -12.014   5.674  1.00  0.00     0.032 A 
HETATM    9  C   UNL     1      42.345 -10.918   6.532  1.00  0.00     0.039 A 
HETATM   10  C   UNL     1      43.479 -10.820   7.336  1.00  0.00     0.068 A 
HETATM   11  C   UNL     1      44.425 -11.843   7.300  1.00  0.00     0.039 A 
HETATM   12  C   UNL     1      44.257 -12.939   6.447  1.00  0.00     0.032 A 
BRANCH  10  13
HETATM   13  O   UNL     1      43.769  -9.793   8.190  1.00  0.00    -0.351 OA
BRANCH  13  14
HETATM   14  C   UNL     1      43.032  -9.752   9.415  1.00  0.00     0.179 C 
BRANCH  14  15
HETATM   15  C   UNL     1      44.008  -9.893  10.591  1.00  0.00     0.002 C 
HETATM   16  C   UNL     1      45.448  -9.615  10.154  1.00  0.00     0.011 C 
HETATM   17  C   UNL     1      43.609  -8.952  11.728  1.00  0.00     0.011 C 
ENDBRANCH  14  15
ENDBRANCH  13  14
ENDBRANCH  10  13
ENDBRANCH   3   7
BRANCH   1  18
HETATM   18  C   UNL     1      43.173 -16.625   3.326  1.00  0.00     0.131 A 
HETATM   19  C   UNL     1      43.074 -17.732   2.486  1.00  0.00     0.057 A 
HETATM   20  C   UNL     1      43.610 -18.956   2.898  1.00  0.00    -0.057 A 
HETATM   21  C   UNL     1      43.493 -20.171   2.028  1.00  0.00     0.048 C 
HETATM   22  C   UNL     1      44.202 -19.031   4.156  1.00  0.00     0.026 A 
HETATM   23  C   UNL     1      44.258 -17.882   4.928  1.00  0.00     0.119 A 
HETATM   24  N   UNL     1      43.765 -16.685   4.539  1.00  0.00    -0.243 NA
ENDBRANCH   1  18
TORSDOF 5
ENDMDL
MODEL 3
REMARK VINA RESULT:      -7.1      2.437      8.817
REMARK  5 active torsions:
REMARK  status: ('A' for Active; 'I' for Inactive)
REMARK    1  A    between atoms: C_4  and  N_5 
REMARK       I    between atoms: N_5  and  C_6 
REMARK       I    between atoms: C_6  and  N_7 
REMARK    2  A    between atoms: N_7  and  C_8 
REMARK    3  A    between atoms: C_11  and  O_12 
REMARK    4  A    between atoms: O_12  and  C_13 
REMARK    5  A    between atoms: C_13  and  C_14 
ROOT
HETATM    1  N   UNL     1      40.570 -14.964   4.689  1.00  0.00    -0.293 N 
HETATM    2  C   UNL     1      40.837 -14.002   5.625  1.00  0.00     0.326 C 
HETATM    3  N   UNL     1      42.000 -13.305   5.467  1.00  0.00    -0.309 N 
HETATM    4  O   UNL     1      40.005 -13.840   6.516  1.00  0.00    -0.247 OA
HETATM    5  H   UNL     1      39.687 -15.422   4.859  1.00  0.00     0.172 HD
HETATM    6  H   UNL     1      42.544 -13.596   4.658  1.00  0.00     0.170 HD
ENDROOT
BRANCH   3   7
HETATM    7  C   UNL     1      42.501 -12.243   6.238  1.00  0.00     0.036 A 
HETATM    8  C   UNL     1      41.871 -11.004   6.360  1.00  0.00     0.032 A 
HETATM    9  C   UNL     1      42.448  -9.980   7.124  1.00  0.00     0.039 A 
HETATM   10  C   UNL     1      43.667 -10.183   7.768  1.00  0.00     0.068 A 
HETATM   11  C   UNL     1      44.286 -11.429   7.670  1.00  0.00     0.039 A 
HETATM   12  C   UNL     1      43.709 -12.451   6.910  1.00  0.00     0.032 A 
BRANCH  10  13
HETATM   13  O   UNL     1      44.341  -9.259   8.517  1.00  0.00    -0.351 OA
BRANCH  13  14
HETATM   14  C   UNL     1      45.129  -9.764   9.598  1.00  0.00     0.179 C 
BRANCH  14  15
HETATM   15  C   UNL     1      44.423  -9.447  10.924  1.00  0.00     0.002 C 
HETATM   16  C   UNL     1      43.454  -8.271  10.769  1.00  0.00     0.011 C 
HETATM   17  C   UNL     1      43.681 -10.680  11.439  1.00  0.00     0.011 C 
ENDBRANCH  14  15
ENDBRANCH  13  14
ENDBRANCH  10  13
ENDBRANCH   3   7
BRANCH   1  18
HETATM   18  C   UNL     1      41.318 -15.364   3.581  1.00  0.00     0.131 A 
HETATM   19  C   UNL     1      41.831 -16.659   3.587  1.00  0.00     0.057 A 
HETATM   20  C   UNL     1      42.584 -17.104   2.496  1.00  0.00    -0.057 A 
HETATM   21  C   UNL     1      43.172 -18.483   2.488  1.00  0.00     0.048 C 
HETATM   22  C   UNL     1      42.820 -16.219   1.447  1.00  0.00     0.026 A 
HETATM   23  C   UNL     1      42.273 -14.949   1.522  1.00  0.00     0.119 A 
HETATM   24  N   UNL     1      41.525 -14.506   2.558  1.00  0.00    -0.243 NA
ENDBRANCH   1  18
TORSDOF 5
ENDMDL
MODEL 4
REMARK VINA RESULT:      -7.1      2.120      3.134
REMARK  5 active torsions:
REMARK  status: ('A' for Active; 'I' for Inactive)
REMARK    1  A    between atoms: C_4  and  N_5 
REMARK       I    between atoms: N_5  and  C_6 
REMARK       I    between atoms: C_6  and  N_7 
REMARK    2  A    between atoms: N_7  and  C_8 
REMARK    3  A    between atoms: C_11  and  O_12 
REMARK    4  A    between atoms: O_12  and  C_13 
REMARK    5  A    between atoms: C_13  and  C_14 
ROOT
HETATM    1  N   UNL     1      42.545 -10.941   7.129  1.00  0.00    -0.293 N 
HETATM    2  C   UNL     1      42.342 -12.190   6.610  1.00  0.00     0.326 C 
HETATM    3  N   UNL     1      43.271 -13.140   6.926  1.00  0.00    -0.309 N 
HETATM    4  O   UNL     1      41.339 -12.354   5.917  1.00  0.00    -0.247 OA
HETATM    5  H   UNL     1      41.811 -10.299   6.870  1.00  0.00     0.172 HD
HETATM    6  H   UNL     1      44.025 -12.793   7.517  1.00  0.00     0.170 HD
ENDROOT
BRANCH   3   7
HETATM    7  C   UNL     1      43.293 -14.500   6.578  1.00  0.00     0.036 A 
HETATM    8  C   UNL     1      43.199 -15.542   7.501  1.00  0.00     0.032 A 
HETATM    9  C   UNL     1      43.258 -16.878   7.082  1.00  0.00     0.039 A 
HETATM   10  C   UNL     1      43.420 -17.186   5.732  1.00  0.00     0.068 A 
HETATM   11  C   UNL     1      43.488 -16.147   4.804  1.00  0.00     0.039 A 
HETATM   12  C   UNL     1      43.426 -14.814   5.223  1.00  0.00     0.032 A 
BRANCH  10  13
HETATM   13  O   UNL     1      43.518 -18.443   5.203  1.00  0.00    -0.351 OA
BRANCH  13  14
HETATM   14  C   UNL     1      44.080 -18.543   3.892  1.00  0.00     0.179 C 
BRANCH  14  15
HETATM   15  C   UNL     1      44.108 -20.019   3.471  1.00  0.00     0.002 C 
HETATM   16  C   UNL     1      43.694 -20.934   4.627  1.00  0.00     0.011 C 
HETATM   17  C   UNL     1      43.198 -20.245   2.265  1.00  0.00     0.011 C 
ENDBRANCH  14  15
ENDBRANCH  13  14
ENDBRANCH  10  13
ENDBRANCH   3   7
BRANCH   1  18
HETATM   18  C   UNL     1      43.580 -10.467   7.938  1.00  0.00     0.131 A 
HETATM   19  C   UNL     1      43.241  -9.995   9.203  1.00  0.00     0.057 A 
HETATM   20  C   UNL     1      44.245  -9.515  10.049  1.00  0.00    -0.057 A 
HETATM   21  C   UNL     1      43.906  -8.975  11.405  1.00  0.00     0.048 C 
HETATM   22  C   UNL     1      45.556  -9.499   9.579  1.00  0.00     0.026 A 
HETATM   23  C   UNL     1      45.806  -9.986   8.307  1.00  0.00     0.119 A 
HETATM   24  N   UNL     1      44.852 -10.474   7.483  1.00  0.00    -0.243 NA
ENDBRANCH   1  18
TORSDOF 5
ENDMDL
MODEL 5
REMARK VINA RESULT:      -6.9      7.215      9.136
REMARK  5 active torsions:
REMARK  status: ('A' for Active; 'I' for Inactive)
REMARK    1  A    between atoms: C_4  and  N_5 
REMARK       I    between atoms: N_5  and  C_6 
REMARK       I    between atoms: C_6  and  N_7 
REMARK    2  A    between atoms: N_7  and  C_8 
REMARK    3  A    between atoms: C_11  and  O_12 
REMARK    4  A    between atoms: O_12  and  C_13 
REMARK    5  A    between atoms: C_13  and  C_14 
ROOT
HETATM    1  N   UNL     1      38.883 -12.399   0.892  1.00  0.00    -0.293 N 
HETATM    2  C   UNL     1      39.438 -13.238   1.820  1.00  0.00     0.326 C 
HETATM    3  N   UNL     1      40.364 -14.129   1.359  1.00  0.00    -0.309 N 
HETATM    4  O   UNL     1      39.066 -13.110   2.986  1.00  0.00    -0.247 OA
HETATM    5  H   UNL     1      38.225 -11.757   1.308  1.00  0.00     0.172 HD
HETATM    6  H   UNL     1      40.528 -14.065   0.356  1.00  0.00     0.170 HD
ENDROOT
BRANCH   3   7
HETATM    7  C   UNL     1      41.121 -15.065   2.083  1.00  0.00     0.036 A 
HETATM    8  C   UNL     1      40.678 -15.694   3.246  1.00  0.00     0.032 A 
HETATM    9  C   UNL     1      41.503 -16.596   3.931  1.00  0.00     0.039 A 
HETATM   10  C   UNL     1      42.786 -16.872   3.463  1.00  0.00     0.068 A 
HETATM   11  C   UNL     1      43.222 -16.265   2.286  1.00  0.00     0.039 A 
HETATM   12  C   UNL     1      42.398 -15.368   1.600  1.00  0.00     0.032 A 
BRANCH  10  13
HETATM   13  O   UNL     1      43.692 -17.709   4.053  1.00  0.00    -0.351 OA
BRANCH  13  14
HETATM   14  C   UNL     1      44.354 -18.642   3.196  1.00  0.00     0.179 C 
BRANCH  14  15
HETATM   15  C   UNL     1      43.488 -19.903   3.066  1.00  0.00     0.002 C 
HETATM   16  C   UNL     1      43.544 -20.472   1.645  1.00  0.00     0.011 C 
HETATM   17  C   UNL     1      43.932 -20.959   4.076  1.00  0.00     0.011 C 
ENDBRANCH  14  15
ENDBRANCH  13  14
ENDBRANCH  10  13
ENDBRANCH   3   7
BRANCH   1  18
HETATM   18  C   UNL     1      39.107 -12.315  -0.483  1.00  0.00     0.131 A 
HETATM   19  C   UNL     1      39.722 -11.161  -0.963  1.00  0.00     0.057 A 
HETATM   20  C   UNL     1      39.970 -11.036  -2.334  1.00  0.00    -0.057 A 
HETATM   21  C   UNL     1      40.604  -9.793  -2.883  1.00  0.00     0.048 C 
HETATM   22  C   UNL     1      39.564 -12.066  -3.179  1.00  0.00     0.026 A 
HETATM   23  C   UNL     1      38.959 -13.178  -2.617  1.00  0.00     0.119 A 
HETATM   24  N   UNL     1      38.729 -13.328  -1.294  1.00  0.00    -0.243 NA
ENDBRANCH   1  18
TORSDOF 5
ENDMDL
MODEL 6
REMARK VINA RESULT:      -6.9      2.433      8.607
REMARK  5 active torsions:
REMARK  status: ('A' for Active; 'I' for Inactive)
REMARK    1  A    between atoms: C_4  and  N_5 
REMARK       I    between atoms: N_5  and  C_6 
REMARK       I    between atoms: C_6  and  N_7 
REMARK    2  A    between atoms: N_7  and  C_8 
REMARK    3  A    between atoms: C_11  and  O_12 
REMARK    4  A    between atoms: O_12  and  C_13 
REMARK    5  A    between atoms: C_13  and  C_14 
ROOT
HETATM    1  N   UNL     1      43.274 -13.094   2.851  1.00  0.00    -0.293 N 
HETATM    2  C   UNL     1      43.704 -12.162   3.755  1.00  0.00     0.326 C 
HETATM    3  N   UNL     1      43.463 -12.434   5.071  1.00  0.00    -0.309 N 
HETATM    4  O   UNL     1      44.279 -11.171   3.309  1.00  0.00    -0.247 OA
HETATM    5  H   UNL     1      43.504 -12.836   1.903  1.00  0.00     0.172 HD
HETATM    6  H   UNL     1      42.974 -13.314   5.224  1.00  0.00     0.170 HD
ENDROOT
BRANCH   3   7
HETATM    7  C   UNL     1      43.830 -11.691   6.205  1.00  0.00     0.036 A 
HETATM    8  C   UNL     1      45.108 -11.701   6.764  1.00  0.00     0.032 A 
HETATM    9  C   UNL     1      45.392 -10.955   7.916  1.00  0.00     0.039 A 
HETATM   10  C   UNL     1      44.396 -10.196   8.527  1.00  0.00     0.068 A 
HETATM   11  C   UNL     1      43.124 -10.162   7.956  1.00  0.00     0.039 A 
HETATM   12  C   UNL     1      42.842 -10.904   6.804  1.00  0.00     0.032 A 
BRANCH  10  13
HETATM   13  O   UNL     1      44.540  -9.450   9.664  1.00  0.00    -0.351 OA
BRANCH  13  14
HETATM   14  C   UNL     1      43.395  -8.708  10.091  1.00  0.00     0.179 C 
BRANCH  14  15
HETATM   15  C   UNL     1      42.975  -9.196  11.485  1.00  0.00     0.002 C 
HETATM   16  C   UNL     1      43.536 -10.590  11.778  1.00  0.00     0.011 C 
HETATM   17  C   UNL     1      43.432  -8.205  12.555  1.00  0.00     0.011 C 
ENDBRANCH  14  15
ENDBRANCH  13  14
ENDBRANCH  10  13
ENDBRANCH   3   7
BRANCH   1  18
HETATM   18  C   UNL     1      42.602 -14.299   3.061  1.00  0.00     0.131 A 
HETATM   19  C   UNL     1      43.246 -15.470   2.671  1.00  0.00     0.057 A 
HETATM   20  C   UNL     1      42.612 -16.701   2.866  1.00  0.00    -0.057 A 
HETATM   21  C   UNL     1      43.269 -17.975   2.430  1.00  0.00     0.048 C 
HETATM   22  C   UNL     1      41.335 -16.708   3.423  1.00  0.00     0.026 A 
HETATM   23  C   UNL     1      40.767 -15.497   3.783  1.00  0.00     0.119 A 
HETATM   24  N   UNL     1      41.372 -14.299   3.621  1.00  0.00    -0.243 NA
ENDBRANCH   1  18
TORSDOF 5
ENDMDL
MODEL 7
REMARK VINA RESULT:      -6.8      5.887      9.738
REMARK  5 active torsions:
REMARK  status: ('A' for Active; 'I' for Inactive)
REMARK    1  A    between atoms: C_4  and  N_5 
REMARK       I    between atoms: N_5  and  C_6 
REMARK       I    between atoms: C_6  and  N_7 
REMARK    2  A    between atoms: N_7  and  C_8 
REMARK    3  A    between atoms: C_11  and  O_12 
REMARK    4  A    between atoms: O_12  and  C_13 
REMARK    5  A    between atoms: C_13  and  C_14 
ROOT
HETATM    1  N   UNL     1      40.367 -12.480  -0.442  1.00  0.00    -0.293 N 
HETATM    2  C   UNL     1      40.982 -13.054   0.637  1.00  0.00     0.326 C 
HETATM    3  N   UNL     1      40.771 -14.391   0.818  1.00  0.00    -0.309 N 
HETATM    4  O   UNL     1      41.679 -12.325   1.340  1.00  0.00    -0.247 OA
HETATM    5  H   UNL     1      40.584 -11.498  -0.522  1.00  0.00     0.172 HD
HETATM    6  H   UNL     1      40.161 -14.807   0.116  1.00  0.00     0.170 HD
ENDROOT
BRANCH   3   7
HETATM    7  C   UNL     1      41.307 -15.242   1.799  1.00  0.00     0.036 A 
HETATM    8  C   UNL     1      40.641 -15.594   2.973  1.00  0.00     0.032 A 
HETATM    9  C   UNL     1      41.253 -16.426   3.921  1.00  0.00     0.039 A 
HETATM   10  C   UNL     1      42.542 -16.908   3.707  1.00  0.00     0.068 A 
HETATM   11  C   UNL     1      43.200 -16.580   2.522  1.00  0.00     0.039 A 
HETATM   12  C   UNL     1      42.589 -15.753   1.575  1.00  0.00     0.032 A 
BRANCH  10  13
HETATM   13  O   UNL     1      43.254 -17.702   4.563  1.00  0.00    -0.351 OA
BRANCH  13  14
HETATM   14  C   UNL     1      44.517 -17.197   5.003  1.00  0.00     0.179 C 
BRANCH  14  15
HETATM   15  C   UNL     1      44.373 -16.671   6.438  1.00  0.00     0.002 C 
HETATM   16  C   UNL     1      43.966 -15.195   6.450  1.00  0.00     0.011 C 
HETATM   17  C   UNL     1      43.354 -17.507   7.211  1.00  0.00     0.011 C 
ENDBRANCH  14  15
ENDBRANCH  13  14
ENDBRANCH  10  13
ENDBRANCH   3   7
BRANCH   1  18
HETATM   18  C   UNL     1      39.529 -13.051  -1.401  1.00  0.00     0.131 A 
HETATM   19  C   UNL     1      38.372 -12.354  -1.738  1.00  0.00     0.057 A 
HETATM   20  C   UNL     1      37.505 -12.887  -2.698  1.00  0.00    -0.057 A 
HETATM   21  C   UNL     1      36.238 -12.173  -3.060  1.00  0.00     0.048 C 
HETATM   22  C   UNL     1      37.819 -14.119  -3.264  1.00  0.00     0.026 A 
HETATM   23  C   UNL     1      38.990 -14.745  -2.872  1.00  0.00     0.119 A 
HETATM   24  N   UNL     1      39.852 -14.237  -1.961  1.00  0.00    -0.243 NA
ENDBRANCH   1  18
TORSDOF 5
ENDMDL
MODEL 8
REMARK VINA RESULT:      -6.6      3.300      4.392
REMARK  5 active torsions:
REMARK  status: ('A' for Active; 'I' for Inactive)
REMARK    1  A    between atoms: C_4  and  N_5 
REMARK       I    between atoms: N_5  and  C_6 
REMARK       I    between atoms: C_6  and  N_7 
REMARK    2  A    between atoms: N_7  and  C_8 
REMARK    3  A    between atoms: C_11  and  O_12 
REMARK    4  A    between atoms: O_12  and  C_13 
REMARK    5  A    between atoms: C_13  and  C_14 
ROOT
HETATM    1  N   UNL     1      42.430 -10.419   4.796  1.00  0.00    -0.293 N 
HETATM    2  C   UNL     1      43.006 -11.466   4.128  1.00  0.00     0.326 C 
HETATM    3  N   UNL     1      42.405 -12.683   4.269  1.00  0.00    -0.309 N 
HETATM    4  O   UNL     1      44.002 -11.219   3.450  1.00  0.00    -0.247 OA
HETATM    5  H   UNL     1      42.915  -9.551   4.628  1.00  0.00     0.172 HD
HETATM    6  H   UNL     1      41.586 -12.667   4.875  1.00  0.00     0.170 HD
ENDROOT
BRANCH   3   7
HETATM    7  C   UNL     1      42.744 -13.907   3.670  1.00  0.00     0.036 A 
HETATM    8  C   UNL     1      42.963 -14.071   2.302  1.00  0.00     0.032 A 
HETATM    9  C   UNL     1      43.269 -15.331   1.771  1.00  0.00     0.039 A 
HETATM   10  C   UNL     1      43.351 -16.445   2.605  1.00  0.00     0.068 A 
HETATM   11  C   UNL     1      43.158 -16.281   3.976  1.00  0.00     0.039 A 
HETATM   12  C   UNL     1      42.856 -15.022   4.506  1.00  0.00     0.032 A 
BRANCH  10  13
HETATM   13  O   UNL     1      43.614 -17.726   2.207  1.00  0.00    -0.351 OA
BRANCH  13  14
HETATM   14  C   UNL     1      44.121 -18.615   3.206  1.00  0.00     0.179 C 
BRANCH  14  15
HETATM   15  C   UNL     1      43.443 -19.983   3.049  1.00  0.00     0.002 C 
HETATM   16  C   UNL     1      43.675 -20.560   1.649  1.00  0.00     0.011 C 
HETATM   17  C   UNL     1      43.953 -20.954   4.112  1.00  0.00     0.011 C 
ENDBRANCH  14  15
ENDBRANCH  13  14
ENDBRANCH  10  13
ENDBRANCH   3   7
BRANCH   1  18
HETATM   18  C   UNL     1      41.310 -10.399   5.628  1.00  0.00     0.131 A 
HETATM   19  C   UNL     1      41.430  -9.743   6.850  1.00  0.00     0.057 A 
HETATM   20  C   UNL     1      40.332  -9.694   7.714  1.00  0.00    -0.057 A 
HETATM   21  C   UNL     1      40.441  -9.020   9.048  1.00  0.00     0.048 C 
HETATM   22  C   UNL     1      39.156 -10.334   7.329  1.00  0.00     0.026 A 
HETATM   23  C   UNL     1      39.122 -10.963   6.096  1.00  0.00     0.119 A 
HETATM   24  N   UNL     1      40.166 -11.004   5.238  1.00  0.00    -0.243 NA
ENDBRANCH   1  18
TORSDOF 5
ENDMDL
MODEL 9
REMARK VINA RESULT:      -6.6      1.697      2.343
REMARK  5 active torsions:
REMARK  status: ('A' for Active; 'I' for Inactive)
REMARK    1  A    between atoms: C_4  and  N_5 
REMARK       I    between atoms: N_5  and  C_6 
REMARK       I    between atoms: C_6  and  N_7 
REMARK    2  A    between atoms: N_7  and  C_8 
REMARK    3  A    between atoms: C_11  and  O_12 
REMARK    4  A    between atoms: O_12  and  C_13 
REMARK    5  A    between atoms: C_13  and  C_14 
ROOT
HETATM    1  N   UNL     1      42.367  -9.473   7.453  1.00  0.00    -0.293 N 
HETATM    2  C   UNL     1      41.957 -10.455   6.594  1.00  0.00     0.326 C 
HETATM    3  N   UNL     1      42.551 -11.676   6.737  1.00  0.00    -0.309 N 
HETATM    4  O   UNL     1      41.085 -10.160   5.779  1.00  0.00    -0.247 OA
HETATM    5  H   UNL     1      41.872  -8.607   7.301  1.00  0.00     0.172 HD
HETATM    6  H   UNL     1      43.249 -11.707   7.478  1.00  0.00     0.170 HD
ENDROOT
BRANCH   3   7
HETATM    7  C   UNL     1      42.297 -12.866   6.036  1.00  0.00     0.036 A 
HETATM    8  C   UNL     1      41.362 -12.980   5.006  1.00  0.00     0.032 A 
HETATM    9  C   UNL     1      41.142 -14.210   4.372  1.00  0.00     0.039 A 
HETATM   10  C   UNL     1      41.850 -15.343   4.767  1.00  0.00     0.068 A 
HETATM   11  C   UNL     1      42.803 -15.228   5.778  1.00  0.00     0.039 A 
HETATM   12  C   UNL     1      43.026 -13.999   6.409  1.00  0.00     0.032 A 
BRANCH  10  13
HETATM   13  O   UNL     1      41.707 -16.600   4.247  1.00  0.00    -0.351 OA
BRANCH  13  14
HETATM   14  C   UNL     1      41.427 -16.685   2.848  1.00  0.00     0.179 C 
BRANCH  14  15
HETATM   15  C   UNL     1      42.712 -17.075   2.103  1.00  0.00     0.002 C 
HETATM   16  C   UNL     1      43.445 -15.839   1.576  1.00  0.00     0.011 C 
HETATM   17  C   UNL     1      43.629 -17.887   3.016  1.00  0.00     0.011 C 
ENDBRANCH  14  15
ENDBRANCH  13  14
ENDBRANCH  10  13
ENDBRANCH   3   7
BRANCH   1  18
HETATM   18  C   UNL     1      43.325  -9.515   8.467  1.00  0.00     0.131 A 
HETATM   19  C   UNL     1      42.958  -9.029   9.719  1.00  0.00     0.057 A 
HETATM   20  C   UNL     1      43.885  -9.056  10.765  1.00  0.00    -0.057 A 
HETATM   21  C   UNL     1      43.526  -8.513  12.115  1.00  0.00     0.048 C 
HETATM   22  C   UNL     1      45.163  -9.546  10.507  1.00  0.00     0.026 A 
HETATM   23  C   UNL     1      45.445 -10.010   9.233  1.00  0.00     0.119 A 
HETATM   24  N   UNL     1      44.557 -10.012   8.214  1.00  0.00    -0.243 NA
ENDBRANCH   1  18
TORSDOF 5
ENDMDL
MODEL 10
REMARK VINA RESULT:      -6.6      2.752      8.713
REMARK  5 active torsions:
REMARK  status: ('A' for Active; 'I' for Inactive)
REMARK    1  A    between atoms: C_4  and  N_5 
REMARK       I    between atoms: N_5  and  C_6 
REMARK       I    between atoms: C_6  and  N_7 
REMARK    2  A    between atoms: N_7  and  C_8 
REMARK    3  A    between atoms: C_11  and  O_12 
REMARK    4  A    between atoms: O_12  and  C_13 
REMARK    5  A    between atoms: C_13  and  C_14 
ROOT
HETATM    1  N   UNL     1      40.066 -14.564   4.824  1.00  0.00    -0.293 N 
HETATM    2  C   UNL     1      40.570 -13.692   5.750  1.00  0.00     0.326 C 
HETATM    3  N   UNL     1      41.819 -13.198   5.504  1.00  0.00    -0.309 N 
HETATM    4  O   UNL     1      39.854 -13.418   6.711  1.00  0.00    -0.247 OA
HETATM    5  H   UNL     1      39.134 -14.871   5.061  1.00  0.00     0.172 HD
HETATM    6  H   UNL     1      42.238 -13.553   4.646  1.00  0.00     0.170 HD
ENDROOT
BRANCH   3   7
HETATM    7  C   UNL     1      42.557 -12.261   6.246  1.00  0.00     0.036 A 
HETATM    8  C   UNL     1      43.776 -12.542   6.863  1.00  0.00     0.032 A 
HETATM    9  C   UNL     1      44.441 -11.562   7.613  1.00  0.00     0.039 A 
HETATM   10  C   UNL     1      43.888 -10.292   7.760  1.00  0.00     0.068 A 
HETATM   11  C   UNL     1      42.682 -10.000   7.123  1.00  0.00     0.039 A 
HETATM   12  C   UNL     1      42.021 -10.976   6.372  1.00  0.00     0.032 A 
BRANCH  10  13
HETATM   13  O   UNL     1      44.423  -9.263   8.485  1.00  0.00    -0.351 OA
BRANCH  13  14
HETATM   14  C   UNL     1      45.222  -9.624   9.614  1.00  0.00     0.179 C 
BRANCH  14  15
HETATM   15  C   UNL     1      44.418  -9.373  10.897  1.00  0.00     0.002 C 
HETATM   16  C   UNL     1      43.380  -8.266  10.694  1.00  0.00     0.011 C 
HETATM   17  C   UNL     1      43.736 -10.660  11.357  1.00  0.00     0.011 C 
ENDBRANCH  14  15
ENDBRANCH  13  14
ENDBRANCH  10  13
ENDBRANCH   3   7
BRANCH   1  18
HETATM   18  C   UNL     1      40.642 -15.052   3.650  1.00  0.00     0.131 A 
HETATM   19  C   UNL     1      40.027 -14.716   2.446  1.00  0.00     0.057 A 
HETATM   20  C   UNL     1      40.572 -15.180   1.245  1.00  0.00    -0.057 A 
HETATM   21  C   UNL     1      39.916 -14.857  -0.064  1.00  0.00     0.048 C 
HETATM   22  C   UNL     1      41.702 -15.991   1.298  1.00  0.00     0.026 A 
HETATM   23  C   UNL     1      42.250 -16.277   2.537  1.00  0.00     0.119 A 
HETATM   24  N   UNL     1      41.751 -15.822   3.709  1.00  0.00    -0.243 NA
ENDBRANCH   1  18
TORSDOF 5
ENDMDL
