MODEL 1
REMARK VINA RESULT:      -9.3      0.000      0.000
REMARK  8 active torsions:
REMARK  status: ('A' for Active; 'I' for Inactive)
REMARK    1  A    between atoms: C_5  and  C_6 
REMARK    2  A    between atoms: C_6  and  N_7 
REMARK       I    between atoms: N_7  and  C_8 
REMARK    3  A    between atoms: C_8  and  C_9 
REMARK    4  A    between atoms: N_12  and  C_13 
REMARK    5  A    between atoms: C_13  and  C_14 
REMARK       I    between atoms: C_14  and  N_15 
REMARK    6  A    between atoms: N_15  and  C_16 
REMARK    7  A    between atoms: C_20  and  O_21 
REMARK    8  A    between atoms: C_26  and  N_27 
ROOT
HETATM    1  C   UNL     1      43.974 -11.326   5.785  1.00  0.00     0.186 A 
HETATM    2  N   UNL     1      42.899 -10.967   6.573  1.00  0.00    -0.150 NA
HETATM    3  N   UNL     1      43.362 -10.445   7.699  1.00  0.00     0.007 NA
HETATM    4  N   UNL     1      44.711 -10.463   7.628  1.00  0.00    -0.248 N 
HETATM    5  C   UNL     1      45.149 -11.019   6.454  1.00  0.00     0.151 A 
ENDROOT
BRANCH   4   6
HETATM    6  C   UNL     1      45.473  -9.768   8.638  1.00  0.00     0.251 C 
BRANCH   6   7
HETATM    7  C   UNL     1      44.864 -10.002  10.006  1.00  0.00     0.241 C 
HETATM    8  N   UNL     1      43.781  -9.177  10.278  1.00  0.00    -0.326 N 
HETATM    9  H   UNL     1      43.543  -8.494   9.560  1.00  0.00     0.169 HD
HETATM   10  O   UNL     1      45.306 -10.884  10.738  1.00  0.00    -0.271 OA
BRANCH   8  11
HETATM   11  C   UNL     1      43.030  -9.094  11.467  1.00  0.00     0.036 A 
HETATM   12  C   UNL     1      41.877  -9.832  11.723  1.00  0.00     0.056 A 
HETATM   13  C   UNL     1      41.208  -9.689  12.946  1.00  0.00     0.069 A 
HETATM   14 CL   UNL     1      39.788 -10.645  13.206  1.00  0.00    -0.081 Cl
HETATM   15  C   UNL     1      41.670  -8.798  13.927  1.00  0.00     0.090 A 
HETATM   16  C   UNL     1      42.830  -8.065  13.667  1.00  0.00     0.041 A 
HETATM   17  C   UNL     1      43.502  -8.214  12.449  1.00  0.00     0.032 A 
BRANCH  15  18
HETATM   18  O   UNL     1      40.953  -8.721  15.091  1.00  0.00    -0.354 OA
HETATM   19  C   UNL     1      41.365  -7.760  16.055  1.00  0.00     0.210 C 
ENDBRANCH  15  18
ENDBRANCH   8  11
ENDBRANCH   6   7
ENDBRANCH   4   6
BRANCH   5  20
HETATM   20  N   UNL     1      46.452 -11.150   6.117  1.00  0.00    -0.382 N 
HETATM   21  H   UNL     1      47.224 -11.098   6.778  1.00  0.00     0.157 HD
HETATM   22  H   UNL     1      46.735 -10.929   5.158  1.00  0.00     0.157 HD
ENDBRANCH   5  20
BRANCH   1  23
HETATM   23  C   UNL     1      43.829 -11.865   4.440  1.00  0.00     0.275 C 
HETATM   24  N   UNL     1      42.946 -12.919   4.362  1.00  0.00    -0.351 N 
HETATM   25  H   UNL     1      42.449 -13.176   5.206  1.00  0.00     0.163 HD
HETATM   26  O   UNL     1      44.408 -11.393   3.466  1.00  0.00    -0.266 OA
BRANCH  24  27
HETATM   27  C   UNL     1      42.512 -13.473   3.104  1.00  0.00     0.161 C 
BRANCH  27  28
HETATM   28  C   UNL     1      42.821 -14.948   3.020  1.00  0.00    -0.041 A 
HETATM   29  C   UNL     1      42.850 -15.602   1.780  1.00  0.00     0.009 A 
HETATM   30  C   UNL     1      43.150 -16.964   1.699  1.00  0.00     0.007 A 
HETATM   31  C   UNL     1      43.428 -17.700   2.855  1.00  0.00    -0.062 A 
HETATM   32  C   UNL     1      43.787 -19.153   2.774  1.00  0.00     0.048 C 
HETATM   33  C   UNL     1      43.417 -17.046   4.093  1.00  0.00     0.007 A 
HETATM   34  C   UNL     1      43.112 -15.684   4.175  1.00  0.00     0.009 A 
ENDBRANCH  27  28
ENDBRANCH  24  27
ENDBRANCH   1  23
TORSDOF 8
ENDMDL
MODEL 2
REMARK VINA RESULT:      -8.5      2.324      3.268
REMARK  8 active torsions:
REMARK  status: ('A' for Active; 'I' for Inactive)
REMARK    1  A    between atoms: C_5  and  C_6 
REMARK    2  A    between atoms: C_6  and  N_7 
REMARK       I    between atoms: N_7  and  C_8 
REMARK    3  A    between atoms: C_8  and  C_9 
REMARK    4  A    between atoms: N_12  and  C_13 
REMARK    5  A    between atoms: C_13  and  C_14 
REMARK       I    between atoms: C_14  and  N_15 
REMARK    6  A    between atoms: N_15  and  C_16 
REMARK    7  A    between atoms: C_20  and  O_21 
REMARK    8  A    between atoms: C_26  and  N_27 
ROOT
HETATM    1  C   UNL     1      43.349 -13.465   6.692  1.00  0.00     0.186 A 
HETATM    2  N   UNL     1      44.491 -12.689   6.696  1.00  0.00    -0.150 NA
HETATM    3  N   UNL     1      44.153 -11.446   6.389  1.00  0.00     0.007 NA
HETATM    4  N   UNL     1      42.815 -11.427   6.199  1.00  0.00    -0.248 N 
HETATM    5  C   UNL     1      42.262 -12.671   6.362  1.00  0.00     0.151 A 
ENDROOT
BRANCH   4   6
HETATM    6  C   UNL     1      42.149 -10.155   6.050  1.00  0.00     0.251 C 
BRANCH   6   7
HETATM    7  C   UNL     1      42.328  -9.321   7.303  1.00  0.00     0.241 C 
HETATM    8  N   UNL     1      42.321 -10.070   8.471  1.00  0.00    -0.326 N 
HETATM    9  H   UNL     1      42.162 -11.071   8.364  1.00  0.00     0.169 HD
HETATM   10  O   UNL     1      42.502  -8.109   7.220  1.00  0.00    -0.271 OA
BRANCH   8  11
HETATM   11  C   UNL     1      42.404  -9.609   9.800  1.00  0.00     0.036 A 
HETATM   12  C   UNL     1      41.310  -9.435  10.643  1.00  0.00     0.056 A 
HETATM   13  C   UNL     1      41.498  -8.985  11.956  1.00  0.00     0.069 A 
HETATM   14 CL   UNL     1      40.096  -8.802  12.957  1.00  0.00    -0.081 Cl
HETATM   15  C   UNL     1      42.780  -8.690  12.446  1.00  0.00     0.090 A 
HETATM   16  C   UNL     1      43.874  -8.872  11.599  1.00  0.00     0.041 A 
HETATM   17  C   UNL     1      43.686  -9.328  10.289  1.00  0.00     0.032 A 
BRANCH  15  18
HETATM   18  O   UNL     1      42.870  -8.254  13.741  1.00  0.00    -0.354 OA
HETATM   19  C   UNL     1      42.977  -6.853  13.958  1.00  0.00     0.210 C 
ENDBRANCH  15  18
ENDBRANCH   8  11
ENDBRANCH   6   7
ENDBRANCH   4   6
BRANCH   5  20
HETATM   20  N   UNL     1      40.942 -12.935   6.243  1.00  0.00    -0.382 N 
HETATM   21  H   UNL     1      40.553 -13.864   6.095  1.00  0.00     0.157 HD
HETATM   22  H   UNL     1      40.319 -12.188   5.920  1.00  0.00     0.157 HD
ENDBRANCH   5  20
BRANCH   1  23
HETATM   23  C   UNL     1      43.345 -14.874   7.060  1.00  0.00     0.275 C 
HETATM   24  N   UNL     1      43.928 -15.692   6.118  1.00  0.00    -0.351 N 
HETATM   25  H   UNL     1      44.347 -15.248   5.309  1.00  0.00     0.163 HD
HETATM   26  O   UNL     1      42.901 -15.283   8.130  1.00  0.00    -0.266 OA
BRANCH  24  27
HETATM   27  C   UNL     1      44.200 -17.086   6.364  1.00  0.00     0.161 C 
BRANCH  27  28
HETATM   28  C   UNL     1      43.974 -17.915   5.124  1.00  0.00    -0.041 A 
HETATM   29  C   UNL     1      43.619 -17.305   3.911  1.00  0.00     0.009 A 
HETATM   30  C   UNL     1      43.424 -18.070   2.759  1.00  0.00     0.007 A 
HETATM   31  C   UNL     1      43.580 -19.459   2.794  1.00  0.00    -0.062 A 
HETATM   32  C   UNL     1      43.408 -20.284   1.554  1.00  0.00     0.048 C 
HETATM   33  C   UNL     1      43.950 -20.069   3.998  1.00  0.00     0.007 A 
HETATM   34  C   UNL     1      44.142 -19.305   5.153  1.00  0.00     0.009 A 
ENDBRANCH  27  28
ENDBRANCH  24  27
ENDBRANCH   1  23
TORSDOF 8
ENDMDL
MODEL 3
REMARK VINA RESULT:      -8.5      3.141     10.112
REMARK  8 active torsions:
REMARK  status: ('A' for Active; 'I' for Inactive)
REMARK    1  A    between atoms: C_5  and  C_6 
REMARK    2  A    between atoms: C_6  and  N_7 
REMARK       I    between atoms: N_7  and  C_8 
REMARK    3  A    between atoms: C_8  and  C_9 
REMARK    4  A    between atoms: N_12  and  C_13 
REMARK    5  A    between atoms: C_13  and  C_14 
REMARK       I    between atoms: C_14  and  N_15 
REMARK    6  A    between atoms: N_15  and  C_16 
REMARK    7  A    between atoms: C_20  and  O_21 
REMARK    8  A    between atoms: C_26  and  N_27 
ROOT
HETATM    1  C   UNL     1      44.272 -11.024   6.420  1.00  0.00     0.186 A 
HETATM    2  N   UNL     1      45.069 -11.066   5.294  1.00  0.00    -0.150 NA
HETATM    3  N   UNL     1      44.338 -11.506   4.281  1.00  0.00     0.007 NA
HETATM    4  N   UNL     1      43.092 -11.734   4.752  1.00  0.00    -0.248 N 
HETATM    5  C   UNL     1      42.999 -11.462   6.092  1.00  0.00     0.151 A 
ENDROOT
BRANCH   4   6
HETATM    6  C   UNL     1      42.035 -12.030   3.814  1.00  0.00     0.251 C 
BRANCH   6   7
HETATM    7  C   UNL     1      41.817 -13.527   3.726  1.00  0.00     0.241 C 
HETATM    8  N   UNL     1      42.995 -14.260   3.759  1.00  0.00    -0.326 N 
HETATM    9  H   UNL     1      43.860 -13.722   3.799  1.00  0.00     0.169 HD
HETATM   10  O   UNL     1      40.679 -13.985   3.677  1.00  0.00    -0.271 OA
BRANCH   8  11
HETATM   11  C   UNL     1      43.154 -15.655   3.640  1.00  0.00     0.036 A 
HETATM   12  C   UNL     1      43.405 -16.513   4.707  1.00  0.00     0.056 A 
HETATM   13  C   UNL     1      43.532 -17.890   4.488  1.00  0.00     0.069 A 
HETATM   14 CL   UNL     1      43.832 -18.903   5.861  1.00  0.00    -0.081 Cl
HETATM   15  C   UNL     1      43.423 -18.434   3.198  1.00  0.00     0.090 A 
HETATM   16  C   UNL     1      43.165 -17.570   2.132  1.00  0.00     0.041 A 
HETATM   17  C   UNL     1      43.031 -16.194   2.353  1.00  0.00     0.032 A 
BRANCH  15  18
HETATM   18  O   UNL     1      43.563 -19.790   3.076  1.00  0.00    -0.354 OA
HETATM   19  C   UNL     1      43.719 -20.320   1.765  1.00  0.00     0.210 C 
ENDBRANCH  15  18
ENDBRANCH   8  11
ENDBRANCH   6   7
ENDBRANCH   4   6
BRANCH   5  20
HETATM   20  N   UNL     1      41.863 -11.590   6.814  1.00  0.00    -0.382 N 
HETATM   21  H   UNL     1      41.711 -11.165   7.726  1.00  0.00     0.157 HD
HETATM   22  H   UNL     1      41.272 -12.411   6.656  1.00  0.00     0.157 HD
ENDBRANCH   5  20
BRANCH   1  23
HETATM   23  C   UNL     1      44.736 -10.515   7.704  1.00  0.00     0.275 C 
HETATM   24  N   UNL     1      44.233  -9.273   8.019  1.00  0.00    -0.351 N 
HETATM   25  H   UNL     1      43.560  -8.865   7.380  1.00  0.00     0.163 HD
HETATM   26  O   UNL     1      45.472 -11.156   8.449  1.00  0.00    -0.266 OA
BRANCH  24  27
HETATM   27  C   UNL     1      44.409  -8.673   9.318  1.00  0.00     0.161 C 
BRANCH  27  28
HETATM   28  C   UNL     1      43.299  -9.070  10.259  1.00  0.00    -0.041 A 
HETATM   29  C   UNL     1      41.961  -9.045   9.839  1.00  0.00     0.009 A 
HETATM   30  C   UNL     1      40.933  -9.426  10.705  1.00  0.00     0.007 A 
HETATM   31  C   UNL     1      41.222  -9.840  12.009  1.00  0.00    -0.062 A 
HETATM   32  C   UNL     1      40.129 -10.286  12.933  1.00  0.00     0.048 C 
HETATM   33  C   UNL     1      42.557  -9.883  12.427  1.00  0.00     0.007 A 
HETATM   34  C   UNL     1      43.586  -9.498  11.562  1.00  0.00     0.009 A 
ENDBRANCH  27  28
ENDBRANCH  24  27
ENDBRANCH   1  23
TORSDOF 8
ENDMDL
MODEL 4
REMARK VINA RESULT:      -8.5      6.230      9.708
REMARK  8 active torsions:
REMARK  status: ('A' for Active; 'I' for Inactive)
REMARK    1  A    between atoms: C_5  and  C_6 
REMARK    2  A    between atoms: C_6  and  N_7 
REMARK       I    between atoms: N_7  and  C_8 
REMARK    3  A    between atoms: C_8  and  C_9 
REMARK    4  A    between atoms: N_12  and  C_13 
REMARK    5  A    between atoms: C_13  and  C_14 
REMARK       I    between atoms: C_14  and  N_15 
REMARK    6  A    between atoms: N_15  and  C_16 
REMARK    7  A    between atoms: C_20  and  O_21 
REMARK    8  A    between atoms: C_26  and  N_27 
ROOT
HETATM    1  C   UNL     1      42.253 -13.330   5.535  1.00  0.00     0.186 A 
HETATM    2  N   UNL     1      40.901 -13.572   5.391  1.00  0.00    -0.150 NA
HETATM    3  N   UNL     1      40.348 -12.520   4.806  1.00  0.00     0.007 NA
HETATM    4  N   UNL     1      41.333 -11.623   4.574  1.00  0.00    -0.248 N 
HETATM    5  C   UNL     1      42.546 -12.075   5.026  1.00  0.00     0.151 A 
ENDROOT
BRANCH   4   6
HETATM    6  C   UNL     1      41.045 -10.465   3.762  1.00  0.00     0.251 C 
BRANCH   6   7
HETATM    7  C   UNL     1      40.376 -10.886   2.469  1.00  0.00     0.241 C 
HETATM    8  N   UNL     1      41.038 -11.917   1.815  1.00  0.00    -0.326 N 
HETATM    9  H   UNL     1      41.901 -12.244   2.246  1.00  0.00     0.169 HD
HETATM   10  O   UNL     1      39.328 -10.356   2.113  1.00  0.00    -0.271 OA
BRANCH   8  11
HETATM   11  C   UNL     1      40.722 -12.501   0.572  1.00  0.00     0.036 A 
HETATM   12  C   UNL     1      40.977 -11.911  -0.663  1.00  0.00     0.056 A 
HETATM   13  C   UNL     1      40.639 -12.581  -1.846  1.00  0.00     0.069 A 
HETATM   14 CL   UNL     1      40.993 -11.797  -3.349  1.00  0.00    -0.081 Cl
HETATM   15  C   UNL     1      40.030 -13.846  -1.816  1.00  0.00     0.090 A 
HETATM   16  C   UNL     1      39.783 -14.435  -0.574  1.00  0.00     0.041 A 
HETATM   17  C   UNL     1      40.127 -13.768   0.606  1.00  0.00     0.032 A 
BRANCH  15  18
HETATM   18  O   UNL     1      39.732 -14.427  -3.019  1.00  0.00    -0.354 OA
HETATM   19  C   UNL     1      38.364 -14.486  -3.400  1.00  0.00     0.210 C 
ENDBRANCH  15  18
ENDBRANCH   8  11
ENDBRANCH   6   7
ENDBRANCH   4   6
BRANCH   5  20
HETATM   20  N   UNL     1      43.703 -11.384   4.910  1.00  0.00    -0.382 N 
HETATM   21  H   UNL     1      43.773 -10.370   4.949  1.00  0.00     0.157 HD
HETATM   22  H   UNL     1      44.484 -11.816   4.407  1.00  0.00     0.157 HD
ENDBRANCH   5  20
BRANCH   1  23
HETATM   23  C   UNL     1      43.182 -14.312   6.077  1.00  0.00     0.275 C 
HETATM   24  N   UNL     1      42.820 -15.615   5.818  1.00  0.00    -0.351 N 
HETATM   25  H   UNL     1      42.000 -15.766   5.242  1.00  0.00     0.163 HD
HETATM   26  O   UNL     1      44.212 -14.000   6.669  1.00  0.00    -0.266 OA
BRANCH  24  27
HETATM   27  C   UNL     1      43.690 -16.730   6.094  1.00  0.00     0.161 C 
BRANCH  27  28
HETATM   28  C   UNL     1      43.701 -17.712   4.948  1.00  0.00    -0.041 A 
HETATM   29  C   UNL     1      44.070 -19.049   5.156  1.00  0.00     0.009 A 
HETATM   30  C   UNL     1      44.067 -19.963   4.099  1.00  0.00     0.007 A 
HETATM   31  C   UNL     1      43.695 -19.559   2.813  1.00  0.00    -0.062 A 
HETATM   32  C   UNL     1      43.652 -20.541   1.681  1.00  0.00     0.048 C 
HETATM   33  C   UNL     1      43.309 -18.230   2.605  1.00  0.00     0.007 A 
HETATM   34  C   UNL     1      43.316 -17.314   3.662  1.00  0.00     0.009 A 
ENDBRANCH  27  28
ENDBRANCH  24  27
ENDBRANCH   1  23
TORSDOF 8
ENDMDL
MODEL 5
REMARK VINA RESULT:      -8.5      3.621     10.163
REMARK  8 active torsions:
REMARK  status: ('A' for Active; 'I' for Inactive)
REMARK    1  A    between atoms: C_5  and  C_6 
REMARK    2  A    between atoms: C_6  and  N_7 
REMARK       I    between atoms: N_7  and  C_8 
REMARK    3  A    between atoms: C_8  and  C_9 
REMARK    4  A    between atoms: N_12  and  C_13 
REMARK    5  A    between atoms: C_13  and  C_14 
REMARK       I    between atoms: C_14  and  N_15 
REMARK    6  A    between atoms: N_15  and  C_16 
REMARK    7  A    between atoms: C_20  and  O_21 
REMARK    8  A    between atoms: C_26  and  N_27 
ROOT
HETATM    1  C   UNL     1      43.365 -11.321   5.997  1.00  0.00     0.186 A 
HETATM    2  N   UNL     1      42.074 -11.552   6.428  1.00  0.00    -0.150 NA
HETATM    3  N   UNL     1      41.363 -11.995   5.403  1.00  0.00     0.007 NA
HETATM    4  N   UNL     1      42.189 -12.054   4.335  1.00  0.00    -0.248 N 
HETATM    5  C   UNL     1      43.453 -11.629   4.648  1.00  0.00     0.151 A 
ENDROOT
BRANCH   4   6
HETATM    6  C   UNL     1      41.725 -12.697   3.128  1.00  0.00     0.251 C 
BRANCH   6   7
HETATM    7  C   UNL     1      42.488 -13.985   2.895  1.00  0.00     0.241 C 
HETATM    8  N   UNL     1      42.259 -14.947   3.870  1.00  0.00    -0.326 N 
HETATM    9  H   UNL     1      41.647 -14.674   4.638  1.00  0.00     0.169 HD
HETATM   10  O   UNL     1      43.189 -14.117   1.897  1.00  0.00    -0.271 OA
BRANCH   8  11
HETATM   11  C   UNL     1      42.848 -16.221   3.988  1.00  0.00     0.036 A 
HETATM   12  C   UNL     1      42.751 -17.226   3.028  1.00  0.00     0.056 A 
HETATM   13  C   UNL     1      43.387 -18.457   3.231  1.00  0.00     0.069 A 
HETATM   14 CL   UNL     1      43.236 -19.659   1.993  1.00  0.00    -0.081 Cl
HETATM   15  C   UNL     1      44.121 -18.711   4.401  1.00  0.00     0.090 A 
HETATM   16  C   UNL     1      44.221 -17.698   5.356  1.00  0.00     0.041 A 
HETATM   17  C   UNL     1      43.590 -16.466   5.149  1.00  0.00     0.032 A 
BRANCH  15  18
HETATM   18  O   UNL     1      44.708 -19.943   4.517  1.00  0.00    -0.354 OA
HETATM   19  C   UNL     1      44.067 -20.901   5.349  1.00  0.00     0.210 C 
ENDBRANCH  15  18
ENDBRANCH   8  11
ENDBRANCH   6   7
ENDBRANCH   4   6
BRANCH   5  20
HETATM   20  N   UNL     1      44.482 -11.597   3.771  1.00  0.00    -0.382 N 
HETATM   21  H   UNL     1      45.063 -10.780   3.596  1.00  0.00     0.157 HD
HETATM   22  H   UNL     1      44.478 -12.256   2.987  1.00  0.00     0.157 HD
ENDBRANCH   5  20
BRANCH   1  23
HETATM   23  C   UNL     1      44.436 -10.896   6.887  1.00  0.00     0.275 C 
HETATM   24  N   UNL     1      43.994 -10.484   8.124  1.00  0.00    -0.351 N 
HETATM   25  H   UNL     1      43.003 -10.569   8.318  1.00  0.00     0.163 HD
HETATM   26  O   UNL     1      45.622 -10.943   6.573  1.00  0.00    -0.266 OA
BRANCH  24  27
HETATM   27  C   UNL     1      44.895 -10.207   9.215  1.00  0.00     0.161 C 
BRANCH  27  28
HETATM   28  C   UNL     1      44.138  -9.863  10.475  1.00  0.00    -0.041 A 
HETATM   29  C   UNL     1      43.673 -10.873  11.329  1.00  0.00     0.009 A 
HETATM   30  C   UNL     1      42.985 -10.556  12.502  1.00  0.00     0.007 A 
HETATM   31  C   UNL     1      42.747  -9.222  12.846  1.00  0.00    -0.062 A 
HETATM   32  C   UNL     1      42.042  -8.871  14.122  1.00  0.00     0.048 C 
HETATM   33  C   UNL     1      43.224  -8.210  12.005  1.00  0.00     0.007 A 
HETATM   34  C   UNL     1      43.909  -8.527  10.828  1.00  0.00     0.009 A 
ENDBRANCH  27  28
ENDBRANCH  24  27
ENDBRANCH   1  23
TORSDOF 8
ENDMDL
MODEL 6
REMARK VINA RESULT:      -8.4      2.062      3.068
REMARK  8 active torsions:
REMARK  status: ('A' for Active; 'I' for Inactive)
REMARK    1  A    between atoms: C_5  and  C_6 
REMARK    2  A    between atoms: C_6  and  N_7 
REMARK       I    between atoms: N_7  and  C_8 
REMARK    3  A    between atoms: C_8  and  C_9 
REMARK    4  A    between atoms: N_12  and  C_13 
REMARK    5  A    between atoms: C_13  and  C_14 
REMARK       I    between atoms: C_14  and  N_15 
REMARK    6  A    between atoms: N_15  and  C_16 
REMARK    7  A    between atoms: C_20  and  O_21 
REMARK    8  A    between atoms: C_26  and  N_27 
ROOT
HETATM    1  C   UNL     1      43.080 -13.068   4.058  1.00  0.00     0.186 A 
HETATM    2  N   UNL     1      43.552 -11.920   3.453  1.00  0.00    -0.150 NA
HETATM    3  N   UNL     1      44.164 -11.186   4.369  1.00  0.00     0.007 NA
HETATM    4  N   UNL     1      44.089 -11.857   5.540  1.00  0.00    -0.248 N 
HETATM    5  C   UNL     1      43.407 -13.038   5.405  1.00  0.00     0.151 A 
ENDROOT
BRANCH   4   6
HETATM    6  C   UNL     1      44.851 -11.378   6.668  1.00  0.00     0.251 C 
BRANCH   6   7
HETATM    7  C   UNL     1      43.937 -10.694   7.665  1.00  0.00     0.241 C 
HETATM    8  N   UNL     1      44.519 -10.507   8.911  1.00  0.00    -0.326 N 
HETATM    9  H   UNL     1      45.462 -10.875   9.029  1.00  0.00     0.169 HD
HETATM   10  O   UNL     1      42.816 -10.326   7.326  1.00  0.00    -0.271 OA
BRANCH   8  11
HETATM   11  C   UNL     1      43.933  -9.962  10.071  1.00  0.00     0.036 A 
HETATM   12  C   UNL     1      43.562  -8.627  10.213  1.00  0.00     0.056 A 
HETATM   13  C   UNL     1      42.970  -8.184  11.403  1.00  0.00     0.069 A 
HETATM   14 CL   UNL     1      42.522  -6.515  11.511  1.00  0.00    -0.081 Cl
HETATM   15  C   UNL     1      42.750  -9.063  12.476  1.00  0.00     0.090 A 
HETATM   16  C   UNL     1      43.117 -10.402  12.325  1.00  0.00     0.041 A 
HETATM   17  C   UNL     1      43.702 -10.844  11.133  1.00  0.00     0.032 A 
BRANCH  15  18
HETATM   18  O   UNL     1      42.168  -8.544  13.601  1.00  0.00    -0.354 OA
HETATM   19  C   UNL     1      40.907  -9.072  13.993  1.00  0.00     0.210 C 
ENDBRANCH  15  18
ENDBRANCH   8  11
ENDBRANCH   6   7
ENDBRANCH   4   6
BRANCH   5  20
HETATM   20  N   UNL     1      43.196 -13.912   6.415  1.00  0.00    -0.382 N 
HETATM   21  H   UNL     1      43.298 -13.684   7.402  1.00  0.00     0.157 HD
HETATM   22  H   UNL     1      43.298 -14.913   6.226  1.00  0.00     0.157 HD
ENDBRANCH   5  20
BRANCH   1  23
HETATM   23  C   UNL     1      42.418 -14.138   3.325  1.00  0.00     0.275 C 
HETATM   24  N   UNL     1      43.289 -14.967   2.653  1.00  0.00    -0.351 N 
HETATM   25  H   UNL     1      44.281 -14.799   2.775  1.00  0.00     0.163 HD
HETATM   26  O   UNL     1      41.201 -14.307   3.344  1.00  0.00    -0.266 OA
BRANCH  24  27
HETATM   27  C   UNL     1      42.863 -16.193   2.027  1.00  0.00     0.161 C 
BRANCH  27  28
HETATM   28  C   UNL     1      43.287 -17.396   2.834  1.00  0.00    -0.041 A 
HETATM   29  C   UNL     1      43.683 -17.255   4.172  1.00  0.00     0.009 A 
HETATM   30  C   UNL     1      44.062 -18.369   4.925  1.00  0.00     0.007 A 
HETATM   31  C   UNL     1      44.054 -19.646   4.355  1.00  0.00    -0.062 A 
HETATM   32  C   UNL     1      44.424 -20.852   5.166  1.00  0.00     0.048 C 
HETATM   33  C   UNL     1      43.644 -19.793   3.025  1.00  0.00     0.007 A 
HETATM   34  C   UNL     1      43.267 -18.677   2.270  1.00  0.00     0.009 A 
ENDBRANCH  27  28
ENDBRANCH  24  27
ENDBRANCH   1  23
TORSDOF 8
ENDMDL
MODEL 7
REMARK VINA RESULT:      -8.4      2.048      2.785
REMARK  8 active torsions:
REMARK  status: ('A' for Active; 'I' for Inactive)
REMARK    1  A    between atoms: C_5  and  C_6 
REMARK    2  A    between atoms: C_6  and  N_7 
REMARK       I    between atoms: N_7  and  C_8 
REMARK    3  A    between atoms: C_8  and  C_9 
REMARK    4  A    between atoms: N_12  and  C_13 
REMARK    5  A    between atoms: C_13  and  C_14 
REMARK       I    between atoms: C_14  and  N_15 
REMARK    6  A    between atoms: N_15  and  C_16 
REMARK    7  A    between atoms: C_20  and  O_21 
REMARK    8  A    between atoms: C_26  and  N_27 
ROOT
HETATM    1  C   UNL     1      43.272 -12.731   5.074  1.00  0.00     0.186 A 
HETATM    2  N   UNL     1      43.932 -11.709   4.421  1.00  0.00    -0.150 NA
HETATM    3  N   UNL     1      44.675 -11.060   5.305  1.00  0.00     0.007 NA
HETATM    4  N   UNL     1      44.498 -11.662   6.501  1.00  0.00    -0.248 N 
HETATM    5  C   UNL     1      43.616 -12.708   6.416  1.00  0.00     0.151 A 
ENDROOT
BRANCH   4   6
HETATM    6  C   UNL     1      45.346 -11.283   7.606  1.00  0.00     0.251 C 
BRANCH   6   7
HETATM    7  C   UNL     1      44.747 -10.103   8.345  1.00  0.00     0.241 C 
HETATM    8  N   UNL     1      43.841 -10.470   9.330  1.00  0.00    -0.326 N 
HETATM    9  H   UNL     1      43.653 -11.468   9.422  1.00  0.00     0.169 HD
HETATM   10  O   UNL     1      45.105  -8.960   8.078  1.00  0.00    -0.271 OA
BRANCH   8  11
HETATM   11  C   UNL     1      43.067  -9.630  10.155  1.00  0.00     0.036 A 
HETATM   12  C   UNL     1      43.503  -9.095  11.365  1.00  0.00     0.056 A 
HETATM   13  C   UNL     1      42.662  -8.255  12.106  1.00  0.00     0.069 A 
HETATM   14 CL   UNL     1      43.270  -7.614  13.596  1.00  0.00    -0.081 Cl
HETATM   15  C   UNL     1      41.368  -7.945  11.660  1.00  0.00     0.090 A 
HETATM   16  C   UNL     1      40.939  -8.479  10.443  1.00  0.00     0.041 A 
HETATM   17  C   UNL     1      41.782  -9.312   9.700  1.00  0.00     0.032 A 
BRANCH  15  18
HETATM   18  O   UNL     1      40.614  -7.118  12.449  1.00  0.00    -0.354 OA
HETATM   19  C   UNL     1      39.561  -7.707  13.201  1.00  0.00     0.210 C 
ENDBRANCH  15  18
ENDBRANCH   8  11
ENDBRANCH   6   7
ENDBRANCH   4   6
BRANCH   5  20
HETATM   20  N   UNL     1      43.267 -13.493   7.461  1.00  0.00    -0.382 N 
HETATM   21  H   UNL     1      43.245 -14.510   7.434  1.00  0.00     0.157 HD
HETATM   22  H   UNL     1      42.656 -13.103   8.185  1.00  0.00     0.157 HD
ENDBRANCH   5  20
BRANCH   1  23
HETATM   23  C   UNL     1      42.422 -13.695   4.387  1.00  0.00     0.275 C 
HETATM   24  N   UNL     1      43.092 -14.449   3.449  1.00  0.00    -0.351 N 
HETATM   25  H   UNL     1      44.093 -14.313   3.368  1.00  0.00     0.163 HD
HETATM   26  O   UNL     1      41.233 -13.844   4.654  1.00  0.00    -0.266 OA
BRANCH  24  27
HETATM   27  C   UNL     1      42.489 -15.584   2.796  1.00  0.00     0.161 C 
BRANCH  27  28
HETATM   28  C   UNL     1      43.031 -16.882   3.343  1.00  0.00    -0.041 A 
HETATM   29  C   UNL     1      43.297 -17.025   4.713  1.00  0.00     0.009 A 
HETATM   30  C   UNL     1      43.785 -18.229   5.223  1.00  0.00     0.007 A 
HETATM   31  C   UNL     1      44.018 -19.317   4.375  1.00  0.00    -0.062 A 
HETATM   32  C   UNL     1      44.507 -20.625   4.919  1.00  0.00     0.048 C 
HETATM   33  C   UNL     1      43.738 -19.184   3.010  1.00  0.00     0.007 A 
HETATM   34  C   UNL     1      43.253 -17.976   2.498  1.00  0.00     0.009 A 
ENDBRANCH  27  28
ENDBRANCH  24  27
ENDBRANCH   1  23
TORSDOF 8
ENDMDL
MODEL 8
REMARK VINA RESULT:      -8.1      5.790      9.035
REMARK  8 active torsions:
REMARK  status: ('A' for Active; 'I' for Inactive)
REMARK    1  A    between atoms: C_5  and  C_6 
REMARK    2  A    between atoms: C_6  and  N_7 
REMARK       I    between atoms: N_7  and  C_8 
REMARK    3  A    between atoms: C_8  and  C_9 
REMARK    4  A    between atoms: N_12  and  C_13 
REMARK    5  A    between atoms: C_13  and  C_14 
REMARK       I    between atoms: C_14  and  N_15 
REMARK    6  A    between atoms: N_15  and  C_16 
REMARK    7  A    between atoms: C_20  and  O_21 
REMARK    8  A    between atoms: C_26  and  N_27 
ROOT
HETATM    1  C   UNL     1      41.857 -13.751   6.254  1.00  0.00     0.186 A 
HETATM    2  N   UNL     1      40.625 -14.372   6.196  1.00  0.00    -0.150 NA
HETATM    3  N   UNL     1      39.695 -13.443   6.035  1.00  0.00     0.007 NA
HETATM    4  N   UNL     1      40.324 -12.248   5.983  1.00  0.00    -0.248 N 
HETATM    5  C   UNL     1      41.680 -12.382   6.130  1.00  0.00     0.151 A 
ENDROOT
BRANCH   4   6
HETATM    6  C   UNL     1      39.567 -11.076   5.611  1.00  0.00     0.251 C 
BRANCH   6   7
HETATM    7  C   UNL     1      39.607 -10.884   4.108  1.00  0.00     0.241 C 
HETATM    8  N   UNL     1      38.875 -11.836   3.410  1.00  0.00    -0.326 N 
HETATM    9  H   UNL     1      38.433 -12.564   3.968  1.00  0.00     0.169 HD
HETATM   10  O   UNL     1      40.209  -9.932   3.621  1.00  0.00    -0.271 OA
BRANCH   8  11
HETATM   11  C   UNL     1      38.750 -11.983   2.014  1.00  0.00     0.036 A 
HETATM   12  C   UNL     1      39.567 -12.795   1.231  1.00  0.00     0.056 A 
HETATM   13  C   UNL     1      39.351 -12.887  -0.150  1.00  0.00     0.069 A 
HETATM   14 CL   UNL     1      40.395 -13.924  -1.064  1.00  0.00    -0.081 Cl
HETATM   15  C   UNL     1      38.325 -12.160  -0.775  1.00  0.00     0.090 A 
HETATM   16  C   UNL     1      37.505 -11.353   0.016  1.00  0.00     0.041 A 
HETATM   17  C   UNL     1      37.717 -11.267   1.396  1.00  0.00     0.032 A 
BRANCH  15  18
HETATM   18  O   UNL     1      38.187 -12.308  -2.129  1.00  0.00    -0.354 OA
HETATM   19  C   UNL     1      38.541 -11.203  -2.951  1.00  0.00     0.210 C 
ENDBRANCH  15  18
ENDBRANCH   8  11
ENDBRANCH   6   7
ENDBRANCH   4   6
BRANCH   5  20
HETATM   20  N   UNL     1      42.552 -11.348   6.103  1.00  0.00    -0.382 N 
HETATM   21  H   UNL     1      43.282 -11.230   5.405  1.00  0.00     0.157 HD
HETATM   22  H   UNL     1      42.757 -10.857   6.979  1.00  0.00     0.157 HD
ENDBRANCH   5  20
BRANCH   1  23
HETATM   23  C   UNL     1      43.112 -14.483   6.352  1.00  0.00     0.275 C 
HETATM   24  N   UNL     1      42.973 -15.841   6.176  1.00  0.00    -0.351 N 
HETATM   25  H   UNL     1      42.051 -16.191   5.942  1.00  0.00     0.163 HD
HETATM   26  O   UNL     1      44.194 -13.930   6.532  1.00  0.00    -0.266 OA
BRANCH  24  27
HETATM   27  C   UNL     1      44.105 -16.725   6.044  1.00  0.00     0.161 C 
BRANCH  27  28
HETATM   28  C   UNL     1      43.917 -17.686   4.896  1.00  0.00    -0.041 A 
HETATM   29  C   UNL     1      43.504 -17.225   3.638  1.00  0.00     0.009 A 
HETATM   30  C   UNL     1      43.342 -18.111   2.570  1.00  0.00     0.007 A 
HETATM   31  C   UNL     1      43.592 -19.477   2.739  1.00  0.00    -0.062 A 
HETATM   32  C   UNL     1      43.458 -20.430   1.589  1.00  0.00     0.048 C 
HETATM   33  C   UNL     1      44.021 -19.939   3.989  1.00  0.00     0.007 A 
HETATM   34  C   UNL     1      44.179 -19.052   5.058  1.00  0.00     0.009 A 
ENDBRANCH  27  28
ENDBRANCH  24  27
ENDBRANCH   1  23
TORSDOF 8
ENDMDL
MODEL 9
REMARK VINA RESULT:      -7.9      3.331      4.330
REMARK  8 active torsions:
REMARK  status: ('A' for Active; 'I' for Inactive)
REMARK    1  A    between atoms: C_5  and  C_6 
REMARK    2  A    between atoms: C_6  and  N_7 
REMARK       I    between atoms: N_7  and  C_8 
REMARK    3  A    between atoms: C_8  and  C_9 
REMARK    4  A    between atoms: N_12  and  C_13 
REMARK    5  A    between atoms: C_13  and  C_14 
REMARK       I    between atoms: C_14  and  N_15 
REMARK    6  A    between atoms: N_15  and  C_16 
REMARK    7  A    between atoms: C_20  and  O_21 
REMARK    8  A    between atoms: C_26  and  N_27 
ROOT
HETATM    1  C   UNL     1      42.304 -13.344   6.069  1.00  0.00     0.186 A 
HETATM    2  N   UNL     1      43.064 -12.221   5.813  1.00  0.00    -0.150 NA
HETATM    3  N   UNL     1      42.256 -11.251   5.411  1.00  0.00     0.007 NA
HETATM    4  N   UNL     1      40.998 -11.746   5.417  1.00  0.00    -0.248 N 
HETATM    5  C   UNL     1      40.972 -13.059   5.809  1.00  0.00     0.151 A 
ENDROOT
BRANCH   4   6
HETATM    6  C   UNL     1      39.892 -10.841   5.215  1.00  0.00     0.251 C 
BRANCH   6   7
HETATM    7  C   UNL     1      39.252 -10.492   6.544  1.00  0.00     0.241 C 
HETATM    8  N   UNL     1      39.907  -9.473   7.222  1.00  0.00    -0.326 N 
HETATM    9  H   UNL     1      40.749  -9.106   6.781  1.00  0.00     0.169 HD
HETATM   10  O   UNL     1      38.228 -11.063   6.907  1.00  0.00    -0.271 OA
BRANCH   8  11
HETATM   11  C   UNL     1      39.615  -8.950   8.497  1.00  0.00     0.036 A 
HETATM   12  C   UNL     1      39.801  -9.639   9.693  1.00  0.00     0.056 A 
HETATM   13  C   UNL     1      39.494  -9.024  10.914  1.00  0.00     0.069 A 
HETATM   14 CL   UNL     1      39.760  -9.932  12.365  1.00  0.00    -0.081 Cl
HETATM   15  C   UNL     1      38.984  -7.717  10.961  1.00  0.00     0.090 A 
HETATM   16  C   UNL     1      38.806  -7.029   9.760  1.00  0.00     0.041 A 
HETATM   17  C   UNL     1      39.119  -7.641   8.541  1.00  0.00     0.032 A 
BRANCH  15  18
HETATM   18  O   UNL     1      38.710  -7.196  12.198  1.00  0.00    -0.354 OA
HETATM   19  C   UNL     1      39.651  -6.284  12.750  1.00  0.00     0.210 C 
ENDBRANCH  15  18
ENDBRANCH   8  11
ENDBRANCH   6   7
ENDBRANCH   4   6
BRANCH   5  20
HETATM   20  N   UNL     1      39.843 -13.796   5.917  1.00  0.00    -0.382 N 
HETATM   21  H   UNL     1      39.740 -14.745   5.564  1.00  0.00     0.157 HD
HETATM   22  H   UNL     1      38.947 -13.309   6.012  1.00  0.00     0.157 HD
ENDBRANCH   5  20
BRANCH   1  23
HETATM   23  C   UNL     1      42.864 -14.579   6.602  1.00  0.00     0.275 C 
HETATM   24  N   UNL     1      43.154 -15.514   5.634  1.00  0.00    -0.351 N 
HETATM   25  H   UNL     1      43.013 -15.246   4.667  1.00  0.00     0.163 HD
HETATM   26  O   UNL     1      43.093 -14.746   7.796  1.00  0.00    -0.266 OA
BRANCH  24  27
HETATM   27  C   UNL     1      43.887 -16.722   5.920  1.00  0.00     0.161 C 
BRANCH  27  28
HETATM   28  C   UNL     1      43.779 -17.709   4.784  1.00  0.00    -0.041 A 
HETATM   29  C   UNL     1      43.347 -17.296   3.515  1.00  0.00     0.009 A 
HETATM   30  C   UNL     1      43.259 -18.205   2.459  1.00  0.00     0.007 A 
HETATM   31  C   UNL     1      43.603 -19.548   2.649  1.00  0.00    -0.062 A 
HETATM   32  C   UNL     1      43.548 -20.523   1.512  1.00  0.00     0.048 C 
HETATM   33  C   UNL     1      44.050 -19.961   3.909  1.00  0.00     0.007 A 
HETATM   34  C   UNL     1      44.134 -19.052   4.967  1.00  0.00     0.009 A 
ENDBRANCH  27  28
ENDBRANCH  24  27
ENDBRANCH   1  23
TORSDOF 8
ENDMDL
MODEL 10
REMARK VINA RESULT:      -7.8      3.488      4.950
REMARK  8 active torsions:
REMARK  status: ('A' for Active; 'I' for Inactive)
REMARK    1  A    between atoms: C_5  and  C_6 
REMARK    2  A    between atoms: C_6  and  N_7 
REMARK       I    between atoms: N_7  and  C_8 
REMARK    3  A    between atoms: C_8  and  C_9 
REMARK    4  A    between atoms: N_12  and  C_13 
REMARK    5  A    between atoms: C_13  and  C_14 
REMARK       I    between atoms: C_14  and  N_15 
REMARK    6  A    between atoms: N_15  and  C_16 
REMARK    7  A    between atoms: C_20  and  O_21 
REMARK    8  A    between atoms: C_26  and  N_27 
ROOT
HETATM    1  C   UNL     1      41.015 -14.026   3.593  1.00  0.00     0.186 A 
HETATM    2  N   UNL     1      41.845 -13.677   4.640  1.00  0.00    -0.150 NA
HETATM    3  N   UNL     1      41.238 -12.748   5.362  1.00  0.00     0.007 NA
HETATM    4  N   UNL     1      40.037 -12.512   4.789  1.00  0.00    -0.248 N 
HETATM    5  C   UNL     1      39.852 -13.277   3.667  1.00  0.00     0.151 A 
ENDROOT
BRANCH   4   6
HETATM    6  C   UNL     1      39.080 -11.686   5.487  1.00  0.00     0.251 C 
BRANCH   6   7
HETATM    7  C   UNL     1      39.752 -10.427   5.999  1.00  0.00     0.241 C 
HETATM    8  N   UNL     1      40.094 -10.490   7.343  1.00  0.00    -0.326 N 
HETATM    9  H   UNL     1      39.827 -11.341   7.837  1.00  0.00     0.169 HD
HETATM   10  O   UNL     1      39.983  -9.494   5.236  1.00  0.00    -0.271 OA
BRANCH   8  11
HETATM   11  C   UNL     1      40.672  -9.483   8.141  1.00  0.00     0.036 A 
HETATM   12  C   UNL     1      42.024  -9.150   8.131  1.00  0.00     0.056 A 
HETATM   13  C   UNL     1      42.500  -8.120   8.952  1.00  0.00     0.069 A 
HETATM   14 CL   UNL     1      44.190  -7.747   8.882  1.00  0.00    -0.081 Cl
HETATM   15  C   UNL     1      41.639  -7.414   9.806  1.00  0.00     0.090 A 
HETATM   16  C   UNL     1      40.283  -7.748   9.807  1.00  0.00     0.041 A 
HETATM   17  C   UNL     1      39.807  -8.772   8.982  1.00  0.00     0.032 A 
BRANCH  15  18
HETATM   18  O   UNL     1      42.190  -6.424  10.575  1.00  0.00    -0.354 OA
HETATM   19  C   UNL     1      42.325  -6.672  11.968  1.00  0.00     0.210 C 
ENDBRANCH  15  18
ENDBRANCH   8  11
ENDBRANCH   6   7
ENDBRANCH   4   6
BRANCH   5  20
HETATM   20  N   UNL     1      38.733 -13.251   2.908  1.00  0.00    -0.382 N 
HETATM   21  H   UNL     1      38.431 -14.012   2.304  1.00  0.00     0.157 HD
HETATM   22  H   UNL     1      38.357 -12.343   2.619  1.00  0.00     0.157 HD
ENDBRANCH   5  20
BRANCH   1  23
HETATM   23  C   UNL     1      41.339 -15.078   2.639  1.00  0.00     0.275 C 
HETATM   24  N   UNL     1      42.691 -15.301   2.502  1.00  0.00    -0.351 N 
HETATM   25  H   UNL     1      43.315 -14.773   3.102  1.00  0.00     0.163 HD
HETATM   26  O   UNL     1      40.482 -15.730   2.049  1.00  0.00    -0.266 OA
BRANCH  24  27
HETATM   27  C   UNL     1      43.220 -16.418   1.761  1.00  0.00     0.161 C 
BRANCH  27  28
HETATM   28  C   UNL     1      43.509 -17.589   2.668  1.00  0.00    -0.041 A 
HETATM   29  C   UNL     1      43.829 -17.386   4.018  1.00  0.00     0.009 A 
HETATM   30  C   UNL     1      44.083 -18.469   4.863  1.00  0.00     0.007 A 
HETATM   31  C   UNL     1      44.021 -19.778   4.375  1.00  0.00    -0.062 A 
HETATM   32  C   UNL     1      44.256 -20.949   5.282  1.00  0.00     0.048 C 
HETATM   33  C   UNL     1      43.685 -19.987   3.032  1.00  0.00     0.007 A 
HETATM   34  C   UNL     1      43.435 -18.902   2.185  1.00  0.00     0.009 A 
ENDBRANCH  27  28
ENDBRANCH  24  27
ENDBRANCH   1  23
TORSDOF 8
ENDMDL
