MODEL 1
REMARK VINA RESULT:      -9.8      0.000      0.000
REMARK  8 active torsions:
REMARK  status: ('A' for Active; 'I' for Inactive)
REMARK    1  A    between atoms: C_4  and  O_5 
REMARK    2  A    between atoms: O_5  and  C_6 
REMARK    3  A    between atoms: C_9  and  N_10 
REMARK    4  A    between atoms: N_10  and  C_11 
REMARK    5  A    between atoms: C_13  and  N_14 
REMARK    6  A    between atoms: C_16  and  C_17 
REMARK    7  A    between atoms: C_17  and  N_18 
REMARK    8  A    between atoms: N_22  and  C_23 
ROOT
HETATM    1  C   UNL     1      39.707 -14.086  -0.852  1.00  0.00     0.731 A 
HETATM    2  N   UNL     1      38.986 -14.648  -1.814  1.00  0.00    -0.031 NA
HETATM    3  C   UNL     1      38.999 -14.055  -2.995  1.00  0.00     0.219 A 
HETATM    4  N   UNL     1      39.690 -12.961  -3.280  1.00  0.00    -0.200 NA
HETATM    5  C   UNL     1      40.372 -12.453  -2.259  1.00  0.00     0.174 A 
HETATM    6  N   UNL     1      40.454 -13.002  -1.050  1.00  0.00    -0.045 NA
ENDROOT
BRANCH   1   7
HETATM    7  N   UNL     1      39.703 -14.748   0.370  1.00  0.00    -0.188 N 
HETATM    8  H   UNL     1      38.793 -14.651   0.807  1.00  0.00     0.184 HD
BRANCH   7   9
HETATM    9  C   UNL     1      40.714 -15.240   1.209  1.00  0.00     0.049 A 
HETATM   10  C   UNL     1      42.080 -15.176   0.907  1.00  0.00     0.033 A 
HETATM   11  C   UNL     1      43.038 -15.721   1.770  1.00  0.00     0.039 A 
HETATM   12  C   UNL     1      42.641 -16.336   2.953  1.00  0.00     0.076 A 
HETATM   13  C   UNL     1      41.287 -16.454   3.255  1.00  0.00     0.039 A 
HETATM   14  C   UNL     1      40.336 -15.906   2.388  1.00  0.00     0.033 A 
BRANCH  12  15
HETATM   15  O   UNL     1      43.622 -16.878   3.744  1.00  0.00    -0.311 OA
BRANCH  15  16
HETATM   16  C   UNL     1      43.751 -18.250   3.761  1.00  0.00     0.076 A 
HETATM   17  C   UNL     1      44.004 -18.829   5.007  1.00  0.00     0.037 A 
HETATM   18  C   UNL     1      44.109 -20.216   5.125  1.00  0.00     0.003 A 
HETATM   19  C   UNL     1      43.952 -21.025   4.001  1.00  0.00     0.000 A 
HETATM   20  C   UNL     1      43.679 -20.451   2.760  1.00  0.00     0.003 A 
HETATM   21  C   UNL     1      43.569 -19.064   2.639  1.00  0.00     0.037 A 
ENDBRANCH  15  16
ENDBRANCH  12  15
ENDBRANCH   7   9
ENDBRANCH   1   7
BRANCH   3  22
HETATM   22  N   UNL     1      38.280 -14.637  -4.014  1.00  0.00    -0.270 NA
HETATM   23  H   UNL     1      38.453 -15.636  -4.051  1.00  0.00     0.127 HD
HETATM   24  H   UNL     1      37.304 -14.374  -3.994  1.00  0.00     0.127 HD
ENDBRANCH   3  22
BRANCH   5  25
HETATM   25  C   UNL     1      41.309 -11.300  -2.556  1.00  0.00     0.316 C 
BRANCH  25  26
HETATM   26  N   UNL     1      40.941  -9.953  -1.904  1.00  0.00    -0.061 N 
HETATM   27  H   UNL     1      39.928 -10.013  -1.732  1.00  0.00     0.280 HD
HETATM   28  C   UNL     1      41.626  -9.756  -0.554  1.00  0.00     0.255 C 
HETATM   29  C   UNL     1      41.144  -8.435   0.095  1.00  0.00     0.152 C 
HETATM   30  N   UNL     1      41.273  -7.267  -0.814  1.00  0.00    -0.364 N 
HETATM   31  C   UNL     1      40.700  -7.459  -2.170  1.00  0.00     0.152 C 
HETATM   32  C   UNL     1      41.194  -8.771  -2.831  1.00  0.00     0.255 C 
BRANCH  30  33
HETATM   33  C   UNL     1      42.347  -6.406  -0.686  1.00  0.00     0.102 A 
HETATM   34  N   UNL     1      42.494  -5.761   0.486  1.00  0.00    -0.352 N 
HETATM   35  H   UNL     1      41.829  -5.981   1.225  1.00  0.00     0.166 HD
HETATM   36  C   UNL     1      43.499  -4.916   0.759  1.00  0.00     0.089 A 
HETATM   37  C   UNL     1      44.471  -4.666  -0.195  1.00  0.00     0.017 A 
HETATM   38  C   UNL     1      44.387  -5.317  -1.417  1.00  0.00     0.005 A 
HETATM   39  C   UNL     1      43.330  -6.195  -1.662  1.00  0.00     0.048 A 
ENDBRANCH  30  33
ENDBRANCH  25  26
ENDBRANCH   5  25
TORSDOF 8
ENDMDL
MODEL 2
REMARK VINA RESULT:      -9.6      8.305      9.772
REMARK  8 active torsions:
REMARK  status: ('A' for Active; 'I' for Inactive)
REMARK    1  A    between atoms: C_4  and  O_5 
REMARK    2  A    between atoms: O_5  and  C_6 
REMARK    3  A    between atoms: C_9  and  N_10 
REMARK    4  A    between atoms: N_10  and  C_11 
REMARK    5  A    between atoms: C_13  and  N_14 
REMARK    6  A    between atoms: C_16  and  C_17 
REMARK    7  A    between atoms: C_17  and  N_18 
REMARK    8  A    between atoms: N_22  and  C_23 
ROOT
HETATM    1  C   UNL     1      42.619 -11.723   5.464  1.00  0.00     0.731 A 
HETATM    2  N   UNL     1      43.935 -11.896   5.484  1.00  0.00    -0.031 NA
HETATM    3  C   UNL     1      44.625 -11.136   6.317  1.00  0.00     0.219 A 
HETATM    4  N   UNL     1      44.094 -10.240   7.134  1.00  0.00    -0.200 NA
HETATM    5  C   UNL     1      42.773 -10.118   7.042  1.00  0.00     0.174 A 
HETATM    6  N   UNL     1      41.992 -10.866   6.267  1.00  0.00    -0.045 NA
ENDROOT
BRANCH   1   7
HETATM    7  N   UNL     1      41.914 -12.557   4.604  1.00  0.00    -0.188 N 
HETATM    8  H   UNL     1      40.922 -12.355   4.670  1.00  0.00     0.184 HD
BRANCH   7   9
HETATM    9  C   UNL     1      42.233 -13.743   3.927  1.00  0.00     0.049 A 
HETATM   10  C   UNL     1      43.121 -13.811   2.847  1.00  0.00     0.033 A 
HETATM   11  C   UNL     1      43.367 -15.022   2.188  1.00  0.00     0.039 A 
HETATM   12  C   UNL     1      42.729 -16.185   2.606  1.00  0.00     0.076 A 
HETATM   13  C   UNL     1      41.807 -16.136   3.647  1.00  0.00     0.039 A 
HETATM   14  C   UNL     1      41.567 -14.923   4.301  1.00  0.00     0.033 A 
BRANCH  12  15
HETATM   15  O   UNL     1      42.987 -17.336   1.904  1.00  0.00    -0.311 OA
BRANCH  15  16
HETATM   16  C   UNL     1      43.390 -18.446   2.613  1.00  0.00     0.076 A 
HETATM   17  C   UNL     1      43.876 -18.210   3.901  1.00  0.00     0.037 A 
HETATM   18  C   UNL     1      44.269 -19.280   4.707  1.00  0.00     0.003 A 
HETATM   19  C   UNL     1      44.167 -20.586   4.230  1.00  0.00     0.000 A 
HETATM   20  C   UNL     1      43.663 -20.826   2.952  1.00  0.00     0.003 A 
HETATM   21  C   UNL     1      43.265 -19.757   2.145  1.00  0.00     0.037 A 
ENDBRANCH  15  16
ENDBRANCH  12  15
ENDBRANCH   7   9
ENDBRANCH   1   7
BRANCH   3  22
HETATM   22  N   UNL     1      45.988 -11.319   6.372  1.00  0.00    -0.270 NA
HETATM   23  H   UNL     1      46.319 -11.276   7.330  1.00  0.00     0.127 HD
HETATM   24  H   UNL     1      46.287 -12.134   5.854  1.00  0.00     0.127 HD
ENDBRANCH   3  22
BRANCH   5  25
HETATM   25  C   UNL     1      42.086  -9.231   8.059  1.00  0.00     0.316 C 
BRANCH  25  26
HETATM   26  N   UNL     1      42.007  -9.794   9.492  1.00  0.00    -0.061 N 
HETATM   27  H   UNL     1      41.843 -10.802   9.369  1.00  0.00     0.280 HD
HETATM   28  C   UNL     1      43.319  -9.631  10.254  1.00  0.00     0.255 C 
HETATM   29  C   UNL     1      43.209 -10.299  11.646  1.00  0.00     0.152 C 
HETATM   30  N   UNL     1      42.018  -9.846  12.410  1.00  0.00    -0.364 N 
HETATM   31  C   UNL     1      40.735  -9.902  11.666  1.00  0.00     0.152 C 
HETATM   32  C   UNL     1      40.836  -9.218  10.278  1.00  0.00     0.255 C 
BRANCH  30  33
HETATM   33  C   UNL     1      42.151  -8.879  13.389  1.00  0.00     0.102 A 
HETATM   34  N   UNL     1      41.331  -8.952  14.454  1.00  0.00    -0.352 N 
HETATM   35  H   UNL     1      40.692  -9.743  14.496  1.00  0.00     0.166 HD
HETATM   36  C   UNL     1      41.363  -8.098  15.488  1.00  0.00     0.089 A 
HETATM   37  C   UNL     1      42.283  -7.063  15.502  1.00  0.00     0.017 A 
HETATM   38  C   UNL     1      43.171  -6.947  14.442  1.00  0.00     0.005 A 
HETATM   39  C   UNL     1      43.112  -7.859  13.387  1.00  0.00     0.048 A 
ENDBRANCH  30  33
ENDBRANCH  25  26
ENDBRANCH   5  25
TORSDOF 8
ENDMDL
MODEL 3
REMARK VINA RESULT:      -9.6      8.008      9.304
REMARK  8 active torsions:
REMARK  status: ('A' for Active; 'I' for Inactive)
REMARK    1  A    between atoms: C_4  and  O_5 
REMARK    2  A    between atoms: O_5  and  C_6 
REMARK    3  A    between atoms: C_9  and  N_10 
REMARK    4  A    between atoms: N_10  and  C_11 
REMARK    5  A    between atoms: C_13  and  N_14 
REMARK    6  A    between atoms: C_16  and  C_17 
REMARK    7  A    between atoms: C_17  and  N_18 
REMARK    8  A    between atoms: N_22  and  C_23 
ROOT
HETATM    1  C   UNL     1      39.686 -12.070   5.938  1.00  0.00     0.731 A 
HETATM    2  N   UNL     1      38.977 -11.562   4.938  1.00  0.00    -0.031 NA
HETATM    3  C   UNL     1      38.814 -10.250   4.928  1.00  0.00     0.219 A 
HETATM    4  N   UNL     1      39.320  -9.422   5.829  1.00  0.00    -0.200 NA
HETATM    5  C   UNL     1      40.002 -10.012   6.805  1.00  0.00     0.174 A 
HETATM    6  N   UNL     1      40.255 -11.317   6.875  1.00  0.00    -0.045 NA
ENDROOT
BRANCH   1   7
HETATM    7  N   UNL     1      39.870 -13.448   5.907  1.00  0.00    -0.188 N 
HETATM    8  H   UNL     1      39.076 -13.908   6.337  1.00  0.00     0.184 HD
BRANCH   7   9
HETATM    9  C   UNL     1      40.985 -14.271   5.687  1.00  0.00     0.049 A 
HETATM   10  C   UNL     1      42.061 -13.924   4.862  1.00  0.00     0.033 A 
HETATM   11  C   UNL     1      43.126 -14.809   4.653  1.00  0.00     0.039 A 
HETATM   12  C   UNL     1      43.130 -16.054   5.272  1.00  0.00     0.076 A 
HETATM   13  C   UNL     1      42.050 -16.442   6.060  1.00  0.00     0.039 A 
HETATM   14  C   UNL     1      40.990 -15.553   6.265  1.00  0.00     0.033 A 
BRANCH  12  15
HETATM   15  O   UNL     1      44.186 -16.890   5.007  1.00  0.00    -0.311 OA
BRANCH  15  16
HETATM   16  C   UNL     1      43.957 -17.977   4.193  1.00  0.00     0.076 A 
HETATM   17  C   UNL     1      44.210 -19.231   4.755  1.00  0.00     0.037 A 
HETATM   18  C   UNL     1      43.968 -20.390   4.016  1.00  0.00     0.003 A 
HETATM   19  C   UNL     1      43.463 -20.299   2.720  1.00  0.00     0.000 A 
HETATM   20  C   UNL     1      43.191 -19.049   2.164  1.00  0.00     0.003 A 
HETATM   21  C   UNL     1      43.428 -17.888   2.902  1.00  0.00     0.037 A 
ENDBRANCH  15  16
ENDBRANCH  12  15
ENDBRANCH   7   9
ENDBRANCH   1   7
BRANCH   3  22
HETATM   22  N   UNL     1      38.106  -9.699   3.884  1.00  0.00    -0.270 NA
HETATM   23  H   UNL     1      38.146  -8.686   3.916  1.00  0.00     0.127 HD
HETATM   24  H   UNL     1      38.355 -10.107   2.993  1.00  0.00     0.127 HD
ENDBRANCH   3  22
BRANCH   5  25
HETATM   25  C   UNL     1      40.743  -9.114   7.775  1.00  0.00     0.316 C 
BRANCH  25  26
HETATM   26  N   UNL     1      41.046  -9.727   9.156  1.00  0.00    -0.061 N 
HETATM   27  H   UNL     1      40.929 -10.741   9.025  1.00  0.00     0.280 HD
HETATM   28  C   UNL     1      42.486  -9.483   9.596  1.00  0.00     0.255 C 
HETATM   29  C   UNL     1      42.757 -10.201  10.940  1.00  0.00     0.152 C 
HETATM   30  N   UNL     1      41.752  -9.870  11.984  1.00  0.00    -0.364 N 
HETATM   31  C   UNL     1      40.337 -10.006  11.559  1.00  0.00     0.152 C 
HETATM   32  C   UNL     1      40.056  -9.272  10.222  1.00  0.00     0.255 C 
BRANCH  30  33
HETATM   33  C   UNL     1      42.045  -8.927  12.951  1.00  0.00     0.102 A 
HETATM   34  N   UNL     1      41.270  -8.901  14.052  1.00  0.00    -0.352 N 
HETATM   35  H   UNL     1      40.543  -9.608  14.126  1.00  0.00     0.166 HD
HETATM   36  C   UNL     1      41.452  -8.057  15.079  1.00  0.00     0.089 A 
HETATM   37  C   UNL     1      42.491  -7.142  15.048  1.00  0.00     0.017 A 
HETATM   38  C   UNL     1      43.338  -7.135  13.950  1.00  0.00     0.005 A 
HETATM   39  C   UNL     1      43.122  -8.032  12.903  1.00  0.00     0.048 A 
ENDBRANCH  30  33
ENDBRANCH  25  26
ENDBRANCH   5  25
TORSDOF 8
ENDMDL
MODEL 4
REMARK VINA RESULT:      -9.4      3.193      5.582
REMARK  8 active torsions:
REMARK  status: ('A' for Active; 'I' for Inactive)
REMARK    1  A    between atoms: C_4  and  O_5 
REMARK    2  A    between atoms: O_5  and  C_6 
REMARK    3  A    between atoms: C_9  and  N_10 
REMARK    4  A    between atoms: N_10  and  C_11 
REMARK    5  A    between atoms: C_13  and  N_14 
REMARK    6  A    between atoms: C_16  and  C_17 
REMARK    7  A    between atoms: C_17  and  N_18 
REMARK    8  A    between atoms: N_22  and  C_23 
ROOT
HETATM    1  C   UNL     1      39.890 -13.564   0.145  1.00  0.00     0.731 A 
HETATM    2  N   UNL     1      39.016 -13.462  -0.848  1.00  0.00    -0.031 NA
HETATM    3  C   UNL     1      38.524 -12.258  -1.089  1.00  0.00     0.219 A 
HETATM    4  N   UNL     1      38.857 -11.163  -0.425  1.00  0.00    -0.200 NA
HETATM    5  C   UNL     1      39.725 -11.354   0.563  1.00  0.00     0.174 A 
HETATM    6  N   UNL     1      40.305 -12.516   0.852  1.00  0.00    -0.045 NA
ENDROOT
BRANCH   1   7
HETATM    7  N   UNL     1      40.416 -14.834   0.356  1.00  0.00    -0.188 N 
HETATM    8  H   UNL     1      39.862 -15.520  -0.145  1.00  0.00     0.184 HD
BRANCH   7   9
HETATM    9  C   UNL     1      41.315 -15.366   1.292  1.00  0.00     0.049 A 
HETATM   10  C   UNL     1      42.707 -15.324   1.150  1.00  0.00     0.033 A 
HETATM   11  C   UNL     1      43.549 -15.909   2.103  1.00  0.00     0.039 A 
HETATM   12  C   UNL     1      43.008 -16.542   3.217  1.00  0.00     0.076 A 
HETATM   13  C   UNL     1      41.626 -16.639   3.359  1.00  0.00     0.039 A 
HETATM   14  C   UNL     1      40.791 -16.051   2.403  1.00  0.00     0.033 A 
BRANCH  12  15
HETATM   15  O   UNL     1      43.881 -17.123   4.101  1.00  0.00    -0.311 OA
BRANCH  15  16
HETATM   16  C   UNL     1      43.900 -18.498   4.179  1.00  0.00     0.076 A 
HETATM   17  C   UNL     1      43.883 -19.043   5.465  1.00  0.00     0.037 A 
HETATM   18  C   UNL     1      43.859 -20.428   5.638  1.00  0.00     0.003 A 
HETATM   19  C   UNL     1      43.842 -21.269   4.527  1.00  0.00     0.000 A 
HETATM   20  C   UNL     1      43.838 -20.728   3.241  1.00  0.00     0.003 A 
HETATM   21  C   UNL     1      43.857 -19.343   3.065  1.00  0.00     0.037 A 
ENDBRANCH  15  16
ENDBRANCH  12  15
ENDBRANCH   7   9
ENDBRANCH   1   7
BRANCH   3  22
HETATM   22  N   UNL     1      37.637 -12.125  -2.133  1.00  0.00    -0.270 NA
HETATM   23  H   UNL     1      36.885 -12.801  -2.055  1.00  0.00     0.127 HD
HETATM   24  H   UNL     1      37.338 -11.168  -2.263  1.00  0.00     0.127 HD
ENDBRANCH   3  22
BRANCH   5  25
HETATM   25  C   UNL     1      40.271 -10.122   1.255  1.00  0.00     0.316 C 
BRANCH  25  26
HETATM   26  N   UNL     1      40.439 -10.232   2.783  1.00  0.00    -0.061 N 
HETATM   27  H   UNL     1      40.346  -9.267   3.128  1.00  0.00     0.280 HD
HETATM   28  C   UNL     1      39.333 -11.061   3.431  1.00  0.00     0.255 C 
HETATM   29  C   UNL     1      39.500 -11.055   4.970  1.00  0.00     0.152 C 
HETATM   30  N   UNL     1      40.867 -11.446   5.402  1.00  0.00    -0.364 N 
HETATM   31  C   UNL     1      41.971 -10.725   4.723  1.00  0.00     0.152 C 
HETATM   32  C   UNL     1      41.818 -10.743   3.180  1.00  0.00     0.255 C 
BRANCH  30  33
HETATM   33  C   UNL     1      41.112 -12.735   5.837  1.00  0.00     0.102 A 
HETATM   34  N   UNL     1      42.352 -13.019   6.279  1.00  0.00    -0.352 N 
HETATM   35  H   UNL     1      43.022 -12.255   6.309  1.00  0.00     0.166 HD
HETATM   36  C   UNL     1      42.725 -14.219   6.750  1.00  0.00     0.089 A 
HETATM   37  C   UNL     1      41.810 -15.256   6.806  1.00  0.00     0.017 A 
HETATM   38  C   UNL     1      40.510 -15.019   6.384  1.00  0.00     0.005 A 
HETATM   39  C   UNL     1      40.156 -13.757   5.906  1.00  0.00     0.048 A 
ENDBRANCH  30  33
ENDBRANCH  25  26
ENDBRANCH   5  25
TORSDOF 8
ENDMDL
MODEL 5
REMARK VINA RESULT:      -9.4     10.245     13.589
REMARK  8 active torsions:
REMARK  status: ('A' for Active; 'I' for Inactive)
REMARK    1  A    between atoms: C_4  and  O_5 
REMARK    2  A    between atoms: O_5  and  C_6 
REMARK    3  A    between atoms: C_9  and  N_10 
REMARK    4  A    between atoms: N_10  and  C_11 
REMARK    5  A    between atoms: C_13  and  N_14 
REMARK    6  A    between atoms: C_16  and  C_17 
REMARK    7  A    between atoms: C_17  and  N_18 
REMARK    8  A    between atoms: N_22  and  C_23 
ROOT
HETATM    1  C   UNL     1      44.511 -10.489   9.756  1.00  0.00     0.731 A 
HETATM    2  N   UNL     1      45.587  -9.827   9.351  1.00  0.00    -0.031 NA
HETATM    3  C   UNL     1      45.832  -9.823   8.052  1.00  0.00     0.219 A 
HETATM    4  N   UNL     1      45.074 -10.413   7.141  1.00  0.00    -0.200 NA
HETATM    5  C   UNL     1      44.025 -11.068   7.631  1.00  0.00     0.174 A 
HETATM    6  N   UNL     1      43.675 -11.092   8.914  1.00  0.00    -0.045 NA
ENDROOT
BRANCH   1   7
HETATM    7  N   UNL     1      44.258 -10.450  11.123  1.00  0.00    -0.188 N 
HETATM    8  H   UNL     1      44.682 -11.255  11.571  1.00  0.00     0.184 HD
BRANCH   7   9
HETATM    9  C   UNL     1      43.349  -9.738  11.919  1.00  0.00     0.049 A 
HETATM   10  C   UNL     1      42.157 -10.278  12.418  1.00  0.00     0.033 A 
HETATM   11  C   UNL     1      41.273  -9.501  13.176  1.00  0.00     0.039 A 
HETATM   12  C   UNL     1      41.573  -8.170  13.449  1.00  0.00     0.076 A 
HETATM   13  C   UNL     1      42.728  -7.596  12.926  1.00  0.00     0.039 A 
HETATM   14  C   UNL     1      43.607  -8.379  12.171  1.00  0.00     0.033 A 
BRANCH  12  15
HETATM   15  O   UNL     1      40.654  -7.450  14.171  1.00  0.00    -0.311 OA
BRANCH  15  16
HETATM   16  C   UNL     1      41.053  -6.933  15.384  1.00  0.00     0.076 A 
HETATM   17  C   UNL     1      40.976  -5.544  15.517  1.00  0.00     0.037 A 
HETATM   18  C   UNL     1      41.321  -4.937  16.725  1.00  0.00     0.003 A 
HETATM   19  C   UNL     1      41.733  -5.716  17.805  1.00  0.00     0.000 A 
HETATM   20  C   UNL     1      41.791  -7.105  17.682  1.00  0.00     0.003 A 
HETATM   21  C   UNL     1      41.442  -7.716  16.476  1.00  0.00     0.037 A 
ENDBRANCH  15  16
ENDBRANCH  12  15
ENDBRANCH   7   9
ENDBRANCH   1   7
BRANCH   3  22
HETATM   22  N   UNL     1      46.928  -9.118   7.608  1.00  0.00    -0.270 NA
HETATM   23  H   UNL     1      47.102  -8.313   8.199  1.00  0.00     0.127 HD
HETATM   24  H   UNL     1      47.730  -9.714   7.453  1.00  0.00     0.127 HD
ENDBRANCH   3  22
BRANCH   5  25
HETATM   25  C   UNL     1      43.030 -11.626   6.634  1.00  0.00     0.316 C 
BRANCH  25  26
HETATM   26  N   UNL     1      42.733 -13.133   6.759  1.00  0.00    -0.061 N 
HETATM   27  H   UNL     1      42.461 -13.268   7.742  1.00  0.00     0.280 HD
HETATM   28  C   UNL     1      41.554 -13.566   5.892  1.00  0.00     0.255 C 
HETATM   29  C   UNL     1      41.244 -15.064   6.131  1.00  0.00     0.152 C 
HETATM   30  N   UNL     1      42.441 -15.931   5.983  1.00  0.00    -0.364 N 
HETATM   31  C   UNL     1      43.638 -15.486   6.739  1.00  0.00     0.152 C 
HETATM   32  C   UNL     1      43.963 -13.991   6.488  1.00  0.00     0.255 C 
BRANCH  30  33
HETATM   33  C   UNL     1      42.647 -16.631   4.808  1.00  0.00     0.102 A 
HETATM   34  N   UNL     1      43.612 -17.569   4.801  1.00  0.00    -0.352 N 
HETATM   35  H   UNL     1      44.102 -17.739   5.676  1.00  0.00     0.166 HD
HETATM   36  C   UNL     1      43.905 -18.338   3.741  1.00  0.00     0.089 A 
HETATM   37  C   UNL     1      43.194 -18.192   2.562  1.00  0.00     0.017 A 
HETATM   38  C   UNL     1      42.171 -17.256   2.514  1.00  0.00     0.005 A 
HETATM   39  C   UNL     1      41.890 -16.479   3.638  1.00  0.00     0.048 A 
ENDBRANCH  30  33
ENDBRANCH  25  26
ENDBRANCH   5  25
TORSDOF 8
ENDMDL
MODEL 6
REMARK VINA RESULT:      -9.3      9.410     12.856
REMARK  8 active torsions:
REMARK  status: ('A' for Active; 'I' for Inactive)
REMARK    1  A    between atoms: C_4  and  O_5 
REMARK    2  A    between atoms: O_5  and  C_6 
REMARK    3  A    between atoms: C_9  and  N_10 
REMARK    4  A    between atoms: N_10  and  C_11 
REMARK    5  A    between atoms: C_13  and  N_14 
REMARK    6  A    between atoms: C_16  and  C_17 
REMARK    7  A    between atoms: C_17  and  N_18 
REMARK    8  A    between atoms: N_22  and  C_23 
ROOT
HETATM    1  C   UNL     1      44.136 -10.949   8.469  1.00  0.00     0.731 A 
HETATM    2  N   UNL     1      45.428 -10.651   8.515  1.00  0.00    -0.031 NA
HETATM    3  C   UNL     1      46.118 -10.808   7.398  1.00  0.00     0.219 A 
HETATM    4  N   UNL     1      45.606 -11.222   6.250  1.00  0.00    -0.200 NA
HETATM    5  C   UNL     1      44.310 -11.515   6.292  1.00  0.00     0.174 A 
HETATM    6  N   UNL     1      43.527 -11.347   7.354  1.00  0.00    -0.045 NA
ENDROOT
BRANCH   1   7
HETATM    7  N   UNL     1      43.427 -10.744   9.647  1.00  0.00    -0.188 N 
HETATM    8  H   UNL     1      42.742 -11.482   9.766  1.00  0.00     0.184 HD
BRANCH   7   9
HETATM    9  C   UNL     1      43.265  -9.642  10.500  1.00  0.00     0.049 A 
HETATM   10  C   UNL     1      43.334  -9.719  11.896  1.00  0.00     0.033 A 
HETATM   11  C   UNL     1      43.125  -8.587  12.694  1.00  0.00     0.039 A 
HETATM   12  C   UNL     1      42.847  -7.359  12.102  1.00  0.00     0.076 A 
HETATM   13  C   UNL     1      42.727  -7.265  10.719  1.00  0.00     0.039 A 
HETATM   14  C   UNL     1      42.939  -8.400   9.928  1.00  0.00     0.033 A 
BRANCH  12  15
HETATM   15  O   UNL     1      42.622  -6.292  12.936  1.00  0.00    -0.311 OA
BRANCH  15  16
HETATM   16  C   UNL     1      41.852  -6.503  14.058  1.00  0.00     0.076 A 
HETATM   17  C   UNL     1      42.545  -6.813  15.231  1.00  0.00     0.037 A 
HETATM   18  C   UNL     1      41.848  -7.004  16.425  1.00  0.00     0.003 A 
HETATM   19  C   UNL     1      40.460  -6.874  16.451  1.00  0.00     0.000 A 
HETATM   20  C   UNL     1      39.768  -6.545  15.286  1.00  0.00     0.003 A 
HETATM   21  C   UNL     1      40.462  -6.350  14.090  1.00  0.00     0.037 A 
ENDBRANCH  15  16
ENDBRANCH  12  15
ENDBRANCH   7   9
ENDBRANCH   1   7
BRANCH   3  22
HETATM   22  N   UNL     1      47.454 -10.478   7.418  1.00  0.00    -0.270 NA
HETATM   23  H   UNL     1      47.808 -10.466   8.368  1.00  0.00     0.127 HD
HETATM   24  H   UNL     1      47.996 -11.031   6.768  1.00  0.00     0.127 HD
ENDBRANCH   3  22
BRANCH   5  25
HETATM   25  C   UNL     1      43.629 -11.836   4.978  1.00  0.00     0.316 C 
BRANCH  25  26
HETATM   26  N   UNL     1      42.764 -13.112   4.967  1.00  0.00    -0.061 N 
HETATM   27  H   UNL     1      41.883 -12.836   5.422  1.00  0.00     0.280 HD
HETATM   28  C   UNL     1      42.425 -13.572   3.552  1.00  0.00     0.255 C 
HETATM   29  C   UNL     1      41.479 -14.796   3.606  1.00  0.00     0.152 C 
HETATM   30  N   UNL     1      41.993 -15.884   4.479  1.00  0.00    -0.364 N 
HETATM   31  C   UNL     1      42.421 -15.454   5.833  1.00  0.00     0.152 C 
HETATM   32  C   UNL     1      43.383 -14.240   5.783  1.00  0.00     0.255 C 
BRANCH  30  33
HETATM   33  C   UNL     1      42.631 -16.976   3.920  1.00  0.00     0.102 A 
HETATM   34  N   UNL     1      43.447 -17.695   4.713  1.00  0.00    -0.352 N 
HETATM   35  H   UNL     1      43.510 -17.418   5.690  1.00  0.00     0.166 HD
HETATM   36  C   UNL     1      44.111 -18.790   4.312  1.00  0.00     0.089 A 
HETATM   37  C   UNL     1      43.975 -19.245   3.011  1.00  0.00     0.017 A 
HETATM   38  C   UNL     1      43.130 -18.558   2.151  1.00  0.00     0.005 A 
HETATM   39  C   UNL     1      42.450 -17.427   2.606  1.00  0.00     0.048 A 
ENDBRANCH  30  33
ENDBRANCH  25  26
ENDBRANCH   5  25
TORSDOF 8
ENDMDL
MODEL 7
REMARK VINA RESULT:      -9.2      8.688     10.520
REMARK  8 active torsions:
REMARK  status: ('A' for Active; 'I' for Inactive)
REMARK    1  A    between atoms: C_4  and  O_5 
REMARK    2  A    between atoms: O_5  and  C_6 
REMARK    3  A    between atoms: C_9  and  N_10 
REMARK    4  A    between atoms: N_10  and  C_11 
REMARK    5  A    between atoms: C_13  and  N_14 
REMARK    6  A    between atoms: C_16  and  C_17 
REMARK    7  A    between atoms: C_17  and  N_18 
REMARK    8  A    between atoms: N_22  and  C_23 
ROOT
HETATM    1  C   UNL     1      44.325 -11.649   7.572  1.00  0.00     0.731 A 
HETATM    2  N   UNL     1      45.354 -10.939   7.127  1.00  0.00    -0.031 NA
HETATM    3  C   UNL     1      45.862 -10.040   7.953  1.00  0.00     0.219 A 
HETATM    4  N   UNL     1      45.427  -9.819   9.184  1.00  0.00    -0.200 NA
HETATM    5  C   UNL     1      44.384 -10.560   9.546  1.00  0.00     0.174 A 
HETATM    6  N   UNL     1      43.835 -11.517   8.802  1.00  0.00    -0.045 NA
ENDROOT
BRANCH   1   7
HETATM    7  N   UNL     1      43.831 -12.610   6.696  1.00  0.00    -0.188 N 
HETATM    8  H   UNL     1      43.230 -12.168   6.010  1.00  0.00     0.184 HD
BRANCH   7   9
HETATM    9  C   UNL     1      43.757 -14.009   6.736  1.00  0.00     0.049 A 
HETATM   10  C   UNL     1      44.817 -14.858   6.396  1.00  0.00     0.033 A 
HETATM   11  C   UNL     1      44.666 -16.250   6.419  1.00  0.00     0.039 A 
HETATM   12  C   UNL     1      43.449 -16.812   6.789  1.00  0.00     0.076 A 
HETATM   13  C   UNL     1      42.366 -15.991   7.087  1.00  0.00     0.039 A 
HETATM   14  C   UNL     1      42.525 -14.602   7.063  1.00  0.00     0.033 A 
BRANCH  12  15
HETATM   15  O   UNL     1      43.352 -18.181   6.765  1.00  0.00    -0.311 OA
BRANCH  15  16
HETATM   16  C   UNL     1      43.575 -18.821   5.566  1.00  0.00     0.076 A 
HETATM   17  C   UNL     1      43.757 -20.205   5.631  1.00  0.00     0.037 A 
HETATM   18  C   UNL     1      43.950 -20.941   4.461  1.00  0.00     0.003 A 
HETATM   19  C   UNL     1      43.950 -20.298   3.225  1.00  0.00     0.000 A 
HETATM   20  C   UNL     1      43.748 -18.919   3.155  1.00  0.00     0.003 A 
HETATM   21  C   UNL     1      43.551 -18.181   4.324  1.00  0.00     0.037 A 
ENDBRANCH  15  16
ENDBRANCH  12  15
ENDBRANCH   7   9
ENDBRANCH   1   7
BRANCH   3  22
HETATM   22  N   UNL     1      46.947  -9.313   7.521  1.00  0.00    -0.270 NA
HETATM   23  H   UNL     1      47.011  -8.431   8.018  1.00  0.00     0.127 HD
HETATM   24  H   UNL     1      47.798  -9.860   7.513  1.00  0.00     0.127 HD
ENDBRANCH   3  22
BRANCH   5  25
HETATM   25  C   UNL     1      43.942 -10.474  10.993  1.00  0.00     0.316 C 
BRANCH  25  26
HETATM   26  N   UNL     1      42.422 -10.353  11.221  1.00  0.00    -0.061 N 
HETATM   27  H   UNL     1      42.046 -11.280  10.980  1.00  0.00     0.280 HD
HETATM   28  C   UNL     1      42.075 -10.081  12.682  1.00  0.00     0.255 C 
HETATM   29  C   UNL     1      40.537 -10.066  12.866  1.00  0.00     0.152 C 
HETATM   30  N   UNL     1      39.852  -9.157  11.911  1.00  0.00    -0.364 N 
HETATM   31  C   UNL     1      40.238  -9.330  10.489  1.00  0.00     0.152 C 
HETATM   32  C   UNL     1      41.776  -9.327  10.298  1.00  0.00     0.255 C 
BRANCH  30  33
HETATM   33  C   UNL     1      39.456  -7.897  12.321  1.00  0.00     0.102 A 
HETATM   34  N   UNL     1      38.982  -7.056  11.382  1.00  0.00    -0.352 N 
HETATM   35  H   UNL     1      38.901  -7.415  10.434  1.00  0.00     0.166 HD
HETATM   36  C   UNL     1      38.542  -5.815  11.638  1.00  0.00     0.089 A 
HETATM   37  C   UNL     1      38.554  -5.329  12.934  1.00  0.00     0.017 A 
HETATM   38  C   UNL     1      39.011  -6.157  13.950  1.00  0.00     0.005 A 
HETATM   39  C   UNL     1      39.455  -7.445  13.647  1.00  0.00     0.048 A 
ENDBRANCH  30  33
ENDBRANCH  25  26
ENDBRANCH   5  25
TORSDOF 8
ENDMDL
MODEL 8
REMARK VINA RESULT:      -9.1     10.849     13.650
REMARK  8 active torsions:
REMARK  status: ('A' for Active; 'I' for Inactive)
REMARK    1  A    between atoms: C_4  and  O_5 
REMARK    2  A    between atoms: O_5  and  C_6 
REMARK    3  A    between atoms: C_9  and  N_10 
REMARK    4  A    between atoms: N_10  and  C_11 
REMARK    5  A    between atoms: C_13  and  N_14 
REMARK    6  A    between atoms: C_16  and  C_17 
REMARK    7  A    between atoms: C_17  and  N_18 
REMARK    8  A    between atoms: N_22  and  C_23 
ROOT
HETATM    1  C   UNL     1      43.824 -10.263  10.362  1.00  0.00     0.731 A 
HETATM    2  N   UNL     1      44.194  -9.022  10.074  1.00  0.00    -0.031 NA
HETATM    3  C   UNL     1      44.720  -8.818   8.878  1.00  0.00     0.219 A 
HETATM    4  N   UNL     1      44.882  -9.755   7.958  1.00  0.00    -0.200 NA
HETATM    5  C   UNL     1      44.501 -10.973   8.331  1.00  0.00     0.174 A 
HETATM    6  N   UNL     1      43.924 -11.266   9.493  1.00  0.00    -0.045 NA
ENDROOT
BRANCH   1   7
HETATM    7  N   UNL     1      43.244 -10.445  11.613  1.00  0.00    -0.188 N 
HETATM    8  H   UNL     1      42.994 -11.420  11.734  1.00  0.00     0.184 HD
BRANCH   7   9
HETATM    9  C   UNL     1      42.697  -9.570  12.562  1.00  0.00     0.049 A 
HETATM   10  C   UNL     1      41.510  -9.818  13.261  1.00  0.00     0.033 A 
HETATM   11  C   UNL     1      40.996  -8.885  14.169  1.00  0.00     0.039 A 
HETATM   12  C   UNL     1      41.668  -7.688  14.394  1.00  0.00     0.076 A 
HETATM   13  C   UNL     1      42.826  -7.396  13.678  1.00  0.00     0.039 A 
HETATM   14  C   UNL     1      43.333  -8.334  12.773  1.00  0.00     0.033 A 
BRANCH  12  15
HETATM   15  O   UNL     1      41.102  -6.799  15.272  1.00  0.00    -0.311 OA
BRANCH  15  16
HETATM   16  C   UNL     1      41.089  -7.134  16.609  1.00  0.00     0.076 A 
HETATM   17  C   UNL     1      42.311  -7.037  17.280  1.00  0.00     0.037 A 
HETATM   18  C   UNL     1      42.383  -7.319  18.644  1.00  0.00     0.003 A 
HETATM   19  C   UNL     1      41.234  -7.688  19.343  1.00  0.00     0.000 A 
HETATM   20  C   UNL     1      40.009  -7.766  18.680  1.00  0.00     0.003 A 
HETATM   21  C   UNL     1      39.933  -7.480  17.315  1.00  0.00     0.037 A 
ENDBRANCH  15  16
ENDBRANCH  12  15
ENDBRANCH   7   9
ENDBRANCH   1   7
BRANCH   3  22
HETATM   22  N   UNL     1      45.085  -7.532   8.549  1.00  0.00    -0.270 NA
HETATM   23  H   UNL     1      45.770  -7.173   9.205  1.00  0.00     0.127 HD
HETATM   24  H   UNL     1      45.340  -7.443   7.575  1.00  0.00     0.127 HD
ENDBRANCH   3  22
BRANCH   5  25
HETATM   25  C   UNL     1      44.508 -12.056   7.272  1.00  0.00     0.316 C 
BRANCH  25  26
HETATM   26  N   UNL     1      43.176 -12.806   7.074  1.00  0.00    -0.061 N 
HETATM   27  H   UNL     1      42.659 -12.661   7.952  1.00  0.00     0.280 HD
HETATM   28  C   UNL     1      42.338 -12.214   5.944  1.00  0.00     0.255 C 
HETATM   29  C   UNL     1      40.976 -12.944   5.857  1.00  0.00     0.152 C 
HETATM   30  N   UNL     1      41.118 -14.421   5.781  1.00  0.00    -0.364 N 
HETATM   31  C   UNL     1      42.003 -15.022   6.809  1.00  0.00     0.152 C 
HETATM   32  C   UNL     1      43.376 -14.305   6.887  1.00  0.00     0.255 C 
BRANCH  30  33
HETATM   33  C   UNL     1      41.024 -15.063   4.559  1.00  0.00     0.102 A 
HETATM   34  N   UNL     1      40.132 -14.586   3.671  1.00  0.00    -0.352 N 
HETATM   35  H   UNL     1      39.611 -13.753   3.936  1.00  0.00     0.166 HD
HETATM   36  C   UNL     1      39.950 -15.093   2.443  1.00  0.00     0.089 A 
HETATM   37  C   UNL     1      40.708 -16.172   2.020  1.00  0.00     0.017 A 
HETATM   38  C   UNL     1      41.661 -16.694   2.882  1.00  0.00     0.005 A 
HETATM   39  C   UNL     1      41.827 -16.136   4.151  1.00  0.00     0.048 A 
ENDBRANCH  30  33
ENDBRANCH  25  26
ENDBRANCH   5  25
TORSDOF 8
ENDMDL
MODEL 9
REMARK VINA RESULT:      -9.0      3.364      4.899
REMARK  8 active torsions:
REMARK  status: ('A' for Active; 'I' for Inactive)
REMARK    1  A    between atoms: C_4  and  O_5 
REMARK    2  A    between atoms: O_5  and  C_6 
REMARK    3  A    between atoms: C_9  and  N_10 
REMARK    4  A    between atoms: N_10  and  C_11 
REMARK    5  A    between atoms: C_13  and  N_14 
REMARK    6  A    between atoms: C_16  and  C_17 
REMARK    7  A    between atoms: C_17  and  N_18 
REMARK    8  A    between atoms: N_22  and  C_23 
ROOT
HETATM    1  C   UNL     1      39.989 -13.329  -0.409  1.00  0.00     0.731 A 
HETATM    2  N   UNL     1      39.133 -13.816  -1.299  1.00  0.00    -0.031 NA
HETATM    3  C   UNL     1      38.062 -13.087  -1.560  1.00  0.00     0.219 A 
HETATM    4  N   UNL     1      37.802 -11.910  -1.012  1.00  0.00    -0.200 NA
HETATM    5  C   UNL     1      38.699 -11.501  -0.120  1.00  0.00     0.174 A 
HETATM    6  N   UNL     1      39.826 -12.144   0.175  1.00  0.00    -0.045 NA
ENDROOT
BRANCH   1   7
HETATM    7  N   UNL     1      41.122 -14.100  -0.177  1.00  0.00    -0.188 N 
HETATM    8  H   UNL     1      41.628 -14.232  -1.046  1.00  0.00     0.184 HD
BRANCH   7   9
HETATM    9  C   UNL     1      41.531 -14.927   0.879  1.00  0.00     0.049 A 
HETATM   10  C   UNL     1      42.870 -15.159   1.217  1.00  0.00     0.033 A 
HETATM   11  C   UNL     1      43.213 -16.028   2.259  1.00  0.00     0.039 A 
HETATM   12  C   UNL     1      42.217 -16.677   2.982  1.00  0.00     0.076 A 
HETATM   13  C   UNL     1      40.880 -16.500   2.637  1.00  0.00     0.039 A 
HETATM   14  C   UNL     1      40.545 -15.629   1.595  1.00  0.00     0.033 A 
BRANCH  12  15
HETATM   15  O   UNL     1      42.614 -17.539   3.973  1.00  0.00    -0.311 OA
BRANCH  15  16
HETATM   16  C   UNL     1      42.936 -17.004   5.201  1.00  0.00     0.076 A 
HETATM   17  C   UNL     1      41.864 -16.569   5.984  1.00  0.00     0.037 A 
HETATM   18  C   UNL     1      42.094 -16.050   7.259  1.00  0.00     0.003 A 
HETATM   19  C   UNL     1      43.393 -15.975   7.757  1.00  0.00     0.000 A 
HETATM   20  C   UNL     1      44.464 -16.428   6.987  1.00  0.00     0.003 A 
HETATM   21  C   UNL     1      44.237 -16.952   5.712  1.00  0.00     0.037 A 
ENDBRANCH  15  16
ENDBRANCH  12  15
ENDBRANCH   7   9
ENDBRANCH   1   7
BRANCH   3  22
HETATM   22  N   UNL     1      37.177 -13.561  -2.501  1.00  0.00    -0.270 NA
HETATM   23  H   UNL     1      37.423 -13.229  -3.427  1.00  0.00     0.127 HD
HETATM   24  H   UNL     1      37.039 -14.560  -2.429  1.00  0.00     0.127 HD
ENDBRANCH   3  22
BRANCH   5  25
HETATM   25  C   UNL     1      38.547 -10.095   0.422  1.00  0.00     0.316 C 
BRANCH  25  26
HETATM   26  N   UNL     1      39.025  -9.881   1.871  1.00  0.00    -0.061 N 
HETATM   27  H   UNL     1      38.496  -9.064   2.205  1.00  0.00     0.280 HD
HETATM   28  C   UNL     1      38.673 -11.057   2.778  1.00  0.00     0.255 C 
HETATM   29  C   UNL     1      39.090 -10.745   4.236  1.00  0.00     0.152 C 
HETATM   30  N   UNL     1      40.507 -10.310   4.348  1.00  0.00    -0.364 N 
HETATM   31  C   UNL     1      40.909  -9.230   3.413  1.00  0.00     0.152 C 
HETATM   32  C   UNL     1      40.509  -9.547   1.949  1.00  0.00     0.255 C 
BRANCH  30  33
HETATM   33  C   UNL     1      41.477 -11.211   4.746  1.00  0.00     0.102 A 
HETATM   34  N   UNL     1      42.130 -10.959   5.896  1.00  0.00    -0.352 N 
HETATM   35  H   UNL     1      41.837 -10.143   6.428  1.00  0.00     0.166 HD
HETATM   36  C   UNL     1      43.077 -11.756   6.413  1.00  0.00     0.089 A 
HETATM   37  C   UNL     1      43.433 -12.922   5.758  1.00  0.00     0.017 A 
HETATM   38  C   UNL     1      42.781 -13.249   4.578  1.00  0.00     0.005 A 
HETATM   39  C   UNL     1      41.796 -12.398   4.073  1.00  0.00     0.048 A 
ENDBRANCH  30  33
ENDBRANCH  25  26
ENDBRANCH   5  25
TORSDOF 8
ENDMDL
MODEL 10
REMARK VINA RESULT:      -8.8      9.248     13.226
REMARK  8 active torsions:
REMARK  status: ('A' for Active; 'I' for Inactive)
REMARK    1  A    between atoms: C_4  and  O_5 
REMARK    2  A    between atoms: O_5  and  C_6 
REMARK    3  A    between atoms: C_9  and  N_10 
REMARK    4  A    between atoms: N_10  and  C_11 
REMARK    5  A    between atoms: C_13  and  N_14 
REMARK    6  A    between atoms: C_16  and  C_17 
REMARK    7  A    between atoms: C_17  and  N_18 
REMARK    8  A    between atoms: N_22  and  C_23 
ROOT
HETATM    1  C   UNL     1      44.576 -10.376   9.451  1.00  0.00     0.731 A 
HETATM    2  N   UNL     1      45.824 -10.291   9.009  1.00  0.00    -0.031 NA
HETATM    3  C   UNL     1      46.049 -10.701   7.772  1.00  0.00     0.219 A 
HETATM    4  N   UNL     1      45.119 -11.166   6.953  1.00  0.00    -0.200 NA
HETATM    5  C   UNL     1      43.899 -11.232   7.477  1.00  0.00     0.174 A 
HETATM    6  N   UNL     1      43.569 -10.805   8.694  1.00  0.00    -0.045 NA
ENDROOT
BRANCH   1   7
HETATM    7  N   UNL     1      44.361  -9.908  10.743  1.00  0.00    -0.188 N 
HETATM    8  H   UNL     1      44.581 -10.639  11.411  1.00  0.00     0.184 HD
BRANCH   7   9
HETATM    9  C   UNL     1      43.667  -8.810  11.272  1.00  0.00     0.049 A 
HETATM   10  C   UNL     1      43.409  -8.633  12.636  1.00  0.00     0.033 A 
HETATM   11  C   UNL     1      42.676  -7.532  13.097  1.00  0.00     0.039 A 
HETATM   12  C   UNL     1      42.193  -6.589  12.195  1.00  0.00     0.076 A 
HETATM   13  C   UNL     1      42.396  -6.766  10.829  1.00  0.00     0.039 A 
HETATM   14  C   UNL     1      43.131  -7.868  10.377  1.00  0.00     0.033 A 
BRANCH  12  15
HETATM   15  O   UNL     1      41.457  -5.548  12.701  1.00  0.00    -0.311 OA
BRANCH  15  16
HETATM   16  C   UNL     1      40.084  -5.665  12.689  1.00  0.00     0.076 A 
HETATM   17  C   UNL     1      39.383  -4.634  12.059  1.00  0.00     0.037 A 
HETATM   18  C   UNL     1      37.992  -4.689  11.965  1.00  0.00     0.003 A 
HETATM   19  C   UNL     1      37.300  -5.780  12.490  1.00  0.00     0.000 A 
HETATM   20  C   UNL     1      37.999  -6.821  13.101  1.00  0.00     0.003 A 
HETATM   21  C   UNL     1      39.391  -6.770  13.193  1.00  0.00     0.037 A 
ENDBRANCH  15  16
ENDBRANCH  12  15
ENDBRANCH   7   9
ENDBRANCH   1   7
BRANCH   3  22
HETATM   22  N   UNL     1      47.332 -10.596   7.285  1.00  0.00    -0.270 NA
HETATM   23  H   UNL     1      47.821  -9.822   7.722  1.00  0.00     0.127 HD
HETATM   24  H   UNL     1      47.825 -11.478   7.308  1.00  0.00     0.127 HD
ENDBRANCH   3  22
BRANCH   5  25
HETATM   25  C   UNL     1      42.763 -11.600   6.545  1.00  0.00     0.316 C 
BRANCH  25  26
HETATM   26  N   UNL     1      42.296 -13.068   6.606  1.00  0.00    -0.061 N 
HETATM   27  H   UNL     1      41.660 -13.108   7.414  1.00  0.00     0.280 HD
HETATM   28  C   UNL     1      41.498 -13.475   5.371  1.00  0.00     0.255 C 
HETATM   29  C   UNL     1      40.976 -14.923   5.533  1.00  0.00     0.152 C 
HETATM   30  N   UNL     1      42.049 -15.886   5.892  1.00  0.00    -0.364 N 
HETATM   31  C   UNL     1      42.906 -15.476   7.031  1.00  0.00     0.152 C 
HETATM   32  C   UNL     1      43.447 -14.032   6.865  1.00  0.00     0.255 C 
BRANCH  30  33
HETATM   33  C   UNL     1      42.616 -16.684   4.915  1.00  0.00     0.102 A 
HETATM   34  N   UNL     1      43.527 -17.596   5.306  1.00  0.00    -0.352 N 
HETATM   35  H   UNL     1      43.709 -17.674   6.303  1.00  0.00     0.166 HD
HETATM   36  C   UNL     1      44.140 -18.451   4.473  1.00  0.00     0.089 A 
HETATM   37  C   UNL     1      43.844 -18.431   3.120  1.00  0.00     0.017 A 
HETATM   38  C   UNL     1      42.898 -17.528   2.659  1.00  0.00     0.005 A 
HETATM   39  C   UNL     1      42.276 -16.658   3.557  1.00  0.00     0.048 A 
ENDBRANCH  30  33
ENDBRANCH  25  26
ENDBRANCH   5  25
TORSDOF 8
ENDMDL
