MODEL 1
REMARK VINA RESULT:      -9.3      0.000      0.000
REMARK  5 active torsions:
REMARK  status: ('A' for Active; 'I' for Inactive)
REMARK    1  A    between atoms: C_4  and  C_5 
REMARK    2  A    between atoms: C_6  and  N_7 
REMARK    3  A    between atoms: C_9  and  C_10 
REMARK       I    between atoms: C_10  and  N_11 
REMARK    4  A    between atoms: N_11  and  C_12 
REMARK    5  A    between atoms: C_12  and  C_13 
ROOT
HETATM    1  C   UNL     1      42.425 -16.352   4.349  1.00  0.00     0.019 A 
HETATM    2  C   UNL     1      42.399 -15.679   5.531  1.00  0.00     0.111 A 
HETATM    3  C   UNL     1      42.946 -16.364   6.780  1.00  0.00     0.273 A 
HETATM    4  O   UNL     1      42.927 -15.834   7.891  1.00  0.00    -0.266 OA
HETATM    5  N   UNL     1      43.469 -17.618   6.646  1.00  0.00    -0.321 N 
HETATM    6  C   UNL     1      43.532 -18.306   5.440  1.00  0.00     0.046 A 
HETATM    7  C   UNL     1      43.025 -17.712   4.281  1.00  0.00     0.006 A 
HETATM    8  C   UNL     1      44.111 -19.578   5.414  1.00  0.00     0.032 A 
HETATM    9  C   UNL     1      44.199 -20.272   4.209  1.00  0.00     0.026 A 
HETATM   10  C   UNL     1      43.706 -19.690   3.043  1.00  0.00     0.035 A 
HETATM   11 CL   UNL     1      43.823 -20.542   1.552  1.00  0.00    -0.084 Cl
HETATM   12  C   UNL     1      43.123 -18.423   3.074  1.00  0.00     0.038 A 
HETATM   13  H   UNL     1      43.821 -18.030   7.497  1.00  0.00     0.169 HD
ENDROOT
BRANCH   2  14
HETATM   14  N   UNL     1      41.890 -14.366   5.685  1.00  0.00    -0.375 N 
HETATM   15  C   UNL     1      42.778 -13.298   6.186  1.00  0.00     0.137 C 
HETATM   16  C   UNL     1      42.317 -11.924   5.685  1.00  0.00     0.096 C 
HETATM   17  C   UNL     1      40.843 -11.696   6.062  1.00  0.00     0.017 C 
HETATM   18  C   UNL     1      39.950 -12.871   5.653  1.00  0.00     0.021 C 
HETATM   19  C   UNL     1      40.505 -14.203   6.155  1.00  0.00     0.123 C 
BRANCH  16  20
HETATM   20  C   UNL     1      42.571 -11.718   4.189  1.00  0.00     0.223 C 
HETATM   21  N   UNL     1      41.519 -11.160   3.497  1.00  0.00    -0.358 N 
HETATM   22  H   UNL     1      40.600 -11.126   3.917  1.00  0.00     0.162 HD
HETATM   23  O   UNL     1      43.594 -12.094   3.622  1.00  0.00    -0.273 OA
BRANCH  21  24
HETATM   24  C   UNL     1      41.584 -10.887   2.072  1.00  0.00     0.154 C 
BRANCH  24  25
HETATM   25  C   UNL     1      40.208 -10.587   1.484  1.00  0.00     0.139 C 
HETATM   26  O   UNL     1      40.170 -10.971   0.091  1.00  0.00    -0.384 OA
HETATM   27  C   UNL     1      38.901 -11.589  -0.174  1.00  0.00     0.168 C 
HETATM   28  C   UNL     1      38.059 -11.437   1.075  1.00  0.00     0.029 C 
HETATM   29  C   UNL     1      39.101 -11.380   2.160  1.00  0.00     0.035 C 
ENDBRANCH  24  25
ENDBRANCH  21  24
ENDBRANCH  16  20
ENDBRANCH   2  14
BRANCH   1  30
HETATM   30  C   UNL     1      41.883 -15.665   3.148  1.00  0.00    -0.023 A 
HETATM   31  C   UNL     1      42.733 -14.936   2.307  1.00  0.00     0.012 A 
HETATM   32  C   UNL     1      42.229 -14.311   1.166  1.00  0.00     0.001 A 
HETATM   33  C   UNL     1      40.874 -14.415   0.853  1.00  0.00     0.000 A 
HETATM   34  C   UNL     1      40.022 -15.146   1.680  1.00  0.00     0.001 A 
HETATM   35  C   UNL     1      40.524 -15.773   2.822  1.00  0.00     0.012 A 
ENDBRANCH   1  30
TORSDOF 5
ENDMDL
MODEL 2
REMARK VINA RESULT:      -8.7      2.374      6.836
REMARK  5 active torsions:
REMARK  status: ('A' for Active; 'I' for Inactive)
REMARK    1  A    between atoms: C_4  and  C_5 
REMARK    2  A    between atoms: C_6  and  N_7 
REMARK    3  A    between atoms: C_9  and  C_10 
REMARK       I    between atoms: C_10  and  N_11 
REMARK    4  A    between atoms: N_11  and  C_12 
REMARK    5  A    between atoms: C_12  and  C_13 
ROOT
HETATM    1  C   UNL     1      40.626 -12.891   1.304  1.00  0.00     0.019 A 
HETATM    2  C   UNL     1      40.811 -11.709   1.952  1.00  0.00     0.111 A 
HETATM    3  C   UNL     1      40.331 -10.423   1.286  1.00  0.00     0.273 A 
HETATM    4  O   UNL     1      40.491  -9.312   1.794  1.00  0.00    -0.266 OA
HETATM    5  N   UNL     1      39.706 -10.522   0.077  1.00  0.00    -0.321 N 
HETATM    6  C   UNL     1      39.481 -11.724  -0.583  1.00  0.00     0.046 A 
HETATM    7  C   UNL     1      39.922 -12.919  -0.007  1.00  0.00     0.006 A 
HETATM    8  C   UNL     1      38.808 -11.711  -1.808  1.00  0.00     0.032 A 
HETATM    9  C   UNL     1      38.558 -12.910  -2.472  1.00  0.00     0.026 A 
HETATM   10  C   UNL     1      38.985 -14.110  -1.907  1.00  0.00     0.035 A 
HETATM   11 CL   UNL     1      38.668 -15.593  -2.721  1.00  0.00    -0.084 Cl
HETATM   12  C   UNL     1      39.661 -14.119  -0.687  1.00  0.00     0.038 A 
HETATM   13  H   UNL     1      39.402  -9.646  -0.323  1.00  0.00     0.169 HD
ENDROOT
BRANCH   2  14
HETATM   14  N   UNL     1      41.428 -11.589   3.220  1.00  0.00    -0.375 N 
HETATM   15  C   UNL     1      40.719 -10.888   4.309  1.00  0.00     0.137 C 
HETATM   16  C   UNL     1      41.179 -11.399   5.680  1.00  0.00     0.096 C 
HETATM   17  C   UNL     1      42.709 -11.282   5.797  1.00  0.00     0.017 C 
HETATM   18  C   UNL     1      43.431 -11.899   4.596  1.00  0.00     0.021 C 
HETATM   19  C   UNL     1      42.883 -11.368   3.273  1.00  0.00     0.123 C 
BRANCH  16  20
HETATM   20  C   UNL     1      40.680 -12.814   5.987  1.00  0.00     0.223 C 
HETATM   21  N   UNL     1      41.651 -13.684   6.434  1.00  0.00    -0.358 N 
HETATM   22  H   UNL     1      42.628 -13.446   6.327  1.00  0.00     0.162 HD
HETATM   23  O   UNL     1      39.527 -13.182   5.776  1.00  0.00    -0.273 OA
BRANCH  21  24
HETATM   24  C   UNL     1      41.359 -15.064   6.779  1.00  0.00     0.154 C 
BRANCH  24  25
HETATM   25  C   UNL     1      42.621 -15.844   7.134  1.00  0.00     0.139 C 
HETATM   26  O   UNL     1      42.498 -17.214   6.689  1.00  0.00    -0.384 OA
HETATM   27  C   UNL     1      43.758 -17.626   6.137  1.00  0.00     0.168 C 
HETATM   28  C   UNL     1      44.747 -16.510   6.396  1.00  0.00     0.029 C 
HETATM   29  C   UNL     1      43.857 -15.296   6.439  1.00  0.00     0.035 C 
ENDBRANCH  24  25
ENDBRANCH  21  24
ENDBRANCH  16  20
ENDBRANCH   2  14
BRANCH   1  30
HETATM   30  C   UNL     1      41.106 -14.130   1.970  1.00  0.00    -0.023 A 
HETATM   31  C   UNL     1      40.259 -14.847   2.824  1.00  0.00     0.012 A 
HETATM   32  C   UNL     1      40.700 -16.023   3.430  1.00  0.00     0.001 A 
HETATM   33  C   UNL     1      41.989 -16.494   3.185  1.00  0.00     0.000 A 
HETATM   34  C   UNL     1      42.837 -15.791   2.330  1.00  0.00     0.001 A 
HETATM   35  C   UNL     1      42.398 -14.614   1.721  1.00  0.00     0.012 A 
ENDBRANCH   1  30
TORSDOF 5
ENDMDL
MODEL 3
REMARK VINA RESULT:      -8.3      3.144      6.663
REMARK  5 active torsions:
REMARK  status: ('A' for Active; 'I' for Inactive)
REMARK    1  A    between atoms: C_4  and  C_5 
REMARK    2  A    between atoms: C_6  and  N_7 
REMARK    3  A    between atoms: C_9  and  C_10 
REMARK       I    between atoms: C_10  and  N_11 
REMARK    4  A    between atoms: N_11  and  C_12 
REMARK    5  A    between atoms: C_12  and  C_13 
ROOT
HETATM    1  C   UNL     1      40.643 -13.685   1.808  1.00  0.00     0.019 A 
HETATM    2  C   UNL     1      40.610 -12.864   2.892  1.00  0.00     0.111 A 
HETATM    3  C   UNL     1      39.747 -11.606   2.838  1.00  0.00     0.273 A 
HETATM    4  O   UNL     1      39.691 -10.798   3.765  1.00  0.00    -0.266 OA
HETATM    5  N   UNL     1      39.018 -11.379   1.707  1.00  0.00    -0.321 N 
HETATM    6  C   UNL     1      39.015 -12.224   0.603  1.00  0.00     0.046 A 
HETATM    7  C   UNL     1      39.807 -13.375   0.616  1.00  0.00     0.006 A 
HETATM    8  C   UNL     1      38.211 -11.904  -0.494  1.00  0.00     0.032 A 
HETATM    9  C   UNL     1      38.183 -12.752  -1.600  1.00  0.00     0.026 A 
HETATM   10  C   UNL     1      38.960 -13.908  -1.600  1.00  0.00     0.035 A 
HETATM   11 CL   UNL     1      38.919 -14.961  -2.960  1.00  0.00    -0.084 Cl
HETATM   12  C   UNL     1      39.767 -14.221  -0.505  1.00  0.00     0.038 A 
HETATM   13  H   UNL     1      38.459 -10.537   1.717  1.00  0.00     0.169 HD
ENDROOT
BRANCH   2  14
HETATM   14  N   UNL     1      41.334 -13.099   4.086  1.00  0.00    -0.375 N 
HETATM   15  C   UNL     1      42.798 -12.909   4.097  1.00  0.00     0.137 C 
HETATM   16  C   UNL     1      43.295 -12.564   5.507  1.00  0.00     0.096 C 
HETATM   17  C   UNL     1      42.828 -13.637   6.505  1.00  0.00     0.017 C 
HETATM   18  C   UNL     1      41.327 -13.919   6.395  1.00  0.00     0.021 C 
HETATM   19  C   UNL     1      40.911 -14.210   4.954  1.00  0.00     0.123 C 
BRANCH  16  20
HETATM   20  C   UNL     1      42.903 -11.151   5.947  1.00  0.00     0.223 C 
HETATM   21  N   UNL     1      42.824 -10.973   7.311  1.00  0.00    -0.358 N 
HETATM   22  H   UNL     1      42.799 -11.778   7.924  1.00  0.00     0.162 HD
HETATM   23  O   UNL     1      42.596 -10.260   5.158  1.00  0.00    -0.273 OA
BRANCH  21  24
HETATM   24  C   UNL     1      42.472  -9.698   7.910  1.00  0.00     0.154 C 
BRANCH  24  25
HETATM   25  C   UNL     1      43.372  -9.353   9.094  1.00  0.00     0.139 C 
HETATM   26  O   UNL     1      42.812  -9.890  10.314  1.00  0.00    -0.384 OA
HETATM   27  C   UNL     1      43.883 -10.426  11.106  1.00  0.00     0.168 C 
HETATM   28  C   UNL     1      45.179 -10.062  10.412  1.00  0.00     0.029 C 
HETATM   29  C   UNL     1      44.755  -9.969   8.970  1.00  0.00     0.035 C 
ENDBRANCH  24  25
ENDBRANCH  21  24
ENDBRANCH  16  20
ENDBRANCH   2  14
BRANCH   1  30
HETATM   30  C   UNL     1      41.494 -14.900   1.883  1.00  0.00    -0.023 A 
HETATM   31  C   UNL     1      42.843 -14.843   1.514  1.00  0.00     0.012 A 
HETATM   32  C   UNL     1      43.648 -15.978   1.607  1.00  0.00     0.001 A 
HETATM   33  C   UNL     1      43.113 -17.178   2.075  1.00  0.00     0.000 A 
HETATM   34  C   UNL     1      41.772 -17.242   2.453  1.00  0.00     0.001 A 
HETATM   35  C   UNL     1      40.964 -16.107   2.361  1.00  0.00     0.012 A 
ENDBRANCH   1  30
TORSDOF 5
ENDMDL
MODEL 4
REMARK VINA RESULT:      -8.1      2.668      7.160
REMARK  5 active torsions:
REMARK  status: ('A' for Active; 'I' for Inactive)
REMARK    1  A    between atoms: C_4  and  C_5 
REMARK    2  A    between atoms: C_6  and  N_7 
REMARK    3  A    between atoms: C_9  and  C_10 
REMARK       I    between atoms: C_10  and  N_11 
REMARK    4  A    between atoms: N_11  and  C_12 
REMARK    5  A    between atoms: C_12  and  C_13 
ROOT
HETATM    1  C   UNL     1      40.295 -12.667   2.820  1.00  0.00     0.019 A 
HETATM    2  C   UNL     1      40.382 -12.309   4.130  1.00  0.00     0.111 A 
HETATM    3  C   UNL     1      39.499 -11.175   4.643  1.00  0.00     0.273 A 
HETATM    4  O   UNL     1      39.543 -10.772   5.806  1.00  0.00    -0.266 OA
HETATM    5  N   UNL     1      38.635 -10.588   3.764  1.00  0.00    -0.321 N 
HETATM    6  C   UNL     1      38.511 -10.963   2.431  1.00  0.00     0.046 A 
HETATM    7  C   UNL     1      39.317 -11.988   1.927  1.00  0.00     0.006 A 
HETATM    8  C   UNL     1      37.575 -10.308   1.626  1.00  0.00     0.032 A 
HETATM    9  C   UNL     1      37.427 -10.686   0.292  1.00  0.00     0.026 A 
HETATM   10  C   UNL     1      38.216 -11.712  -0.223  1.00  0.00     0.035 A 
HETATM   11 CL   UNL     1      38.027 -12.186  -1.867  1.00  0.00    -0.084 Cl
HETATM   12  C   UNL     1      39.154 -12.359   0.582  1.00  0.00     0.038 A 
HETATM   13  H   UNL     1      38.069  -9.846   4.148  1.00  0.00     0.169 HD
ENDROOT
BRANCH   2  14
HETATM   14  N   UNL     1      41.248 -12.926   5.064  1.00  0.00    -0.375 N 
HETATM   15  C   UNL     1      40.680 -13.780   6.126  1.00  0.00     0.137 C 
HETATM   16  C   UNL     1      41.699 -14.830   6.588  1.00  0.00     0.096 C 
HETATM   17  C   UNL     1      43.006 -14.139   7.016  1.00  0.00     0.017 C 
HETATM   18  C   UNL     1      43.517 -13.157   5.959  1.00  0.00     0.021 C 
HETATM   19  C   UNL     1      42.428 -12.177   5.525  1.00  0.00     0.123 C 
BRANCH  16  20
HETATM   20  C   UNL     1      41.937 -15.927   5.547  1.00  0.00     0.223 C 
HETATM   21  N   UNL     1      43.263 -16.197   5.286  1.00  0.00    -0.358 N 
HETATM   22  H   UNL     1      43.978 -15.550   5.589  1.00  0.00     0.162 HD
HETATM   23  O   UNL     1      41.029 -16.473   4.924  1.00  0.00    -0.273 OA
BRANCH  21  24
HETATM   24  C   UNL     1      43.677 -17.211   4.332  1.00  0.00     0.154 C 
BRANCH  24  25
HETATM   25  C   UNL     1      44.276 -18.434   5.020  1.00  0.00     0.139 C 
HETATM   26  O   UNL     1      43.580 -18.694   6.261  1.00  0.00    -0.384 OA
HETATM   27  C   UNL     1      43.400 -20.113   6.390  1.00  0.00     0.168 C 
HETATM   28  C   UNL     1      44.158 -20.766   5.253  1.00  0.00     0.029 C 
HETATM   29  C   UNL     1      44.126 -19.699   4.191  1.00  0.00     0.035 C 
ENDBRANCH  24  25
ENDBRANCH  21  24
ENDBRANCH  16  20
ENDBRANCH   2  14
BRANCH   1  30
HETATM   30  C   UNL     1      41.167 -13.771   2.343  1.00  0.00    -0.023 A 
HETATM   31  C   UNL     1      42.550 -13.580   2.226  1.00  0.00     0.012 A 
HETATM   32  C   UNL     1      43.372 -14.624   1.801  1.00  0.00     0.001 A 
HETATM   33  C   UNL     1      42.820 -15.867   1.495  1.00  0.00     0.000 A 
HETATM   34  C   UNL     1      41.446 -16.069   1.617  1.00  0.00     0.001 A 
HETATM   35  C   UNL     1      40.621 -15.026   2.042  1.00  0.00     0.012 A 
ENDBRANCH   1  30
TORSDOF 5
ENDMDL
MODEL 5
REMARK VINA RESULT:      -8.0      3.352      6.598
REMARK  5 active torsions:
REMARK  status: ('A' for Active; 'I' for Inactive)
REMARK    1  A    between atoms: C_4  and  C_5 
REMARK    2  A    between atoms: C_6  and  N_7 
REMARK    3  A    between atoms: C_9  and  C_10 
REMARK       I    between atoms: C_10  and  N_11 
REMARK    4  A    between atoms: N_11  and  C_12 
REMARK    5  A    between atoms: C_12  and  C_13 
ROOT
HETATM    1  C   UNL     1      40.512 -13.733   2.982  1.00  0.00     0.019 A 
HETATM    2  C   UNL     1      41.103 -14.917   3.297  1.00  0.00     0.111 A 
HETATM    3  C   UNL     1      41.188 -16.004   2.229  1.00  0.00     0.273 A 
HETATM    4  O   UNL     1      41.677 -17.113   2.446  1.00  0.00    -0.266 OA
HETATM    5  N   UNL     1      40.691 -15.724   0.989  1.00  0.00    -0.321 N 
HETATM    6  C   UNL     1      40.113 -14.508   0.642  1.00  0.00     0.046 A 
HETATM    7  C   UNL     1      40.007 -13.497   1.602  1.00  0.00     0.006 A 
HETATM    8  C   UNL     1      39.657 -14.321  -0.666  1.00  0.00     0.032 A 
HETATM    9  C   UNL     1      39.093 -13.100  -1.033  1.00  0.00     0.026 A 
HETATM   10  C   UNL     1      38.988 -12.081  -0.090  1.00  0.00     0.035 A 
HETATM   11 CL   UNL     1      38.301 -10.570  -0.545  1.00  0.00    -0.084 Cl
HETATM   12  C   UNL     1      39.438 -12.273   1.217  1.00  0.00     0.038 A 
HETATM   13  H   UNL     1      40.771 -16.470   0.314  1.00  0.00     0.169 HD
ENDROOT
BRANCH   2  14
HETATM   14  N   UNL     1      41.653 -15.216   4.567  1.00  0.00    -0.375 N 
HETATM   15  C   UNL     1      43.117 -15.335   4.714  1.00  0.00     0.137 C 
HETATM   16  C   UNL     1      43.552 -15.006   6.148  1.00  0.00     0.096 C 
HETATM   17  C   UNL     1      42.781 -15.889   7.144  1.00  0.00     0.017 C 
HETATM   18  C   UNL     1      41.271 -15.859   6.899  1.00  0.00     0.021 C 
HETATM   19  C   UNL     1      40.929 -16.154   5.440  1.00  0.00     0.123 C 
BRANCH  16  20
HETATM   20  C   UNL     1      43.433 -13.516   6.479  1.00  0.00     0.223 C 
HETATM   21  N   UNL     1      44.539 -12.762   6.151  1.00  0.00    -0.358 N 
HETATM   22  H   UNL     1      45.415 -13.220   5.936  1.00  0.00     0.162 HD
HETATM   23  O   UNL     1      42.470 -13.032   7.069  1.00  0.00    -0.273 OA
BRANCH  21  24
HETATM   24  C   UNL     1      44.602 -11.331   6.387  1.00  0.00     0.154 C 
BRANCH  24  25
HETATM   25  C   UNL     1      45.298 -10.999   7.704  1.00  0.00     0.139 C 
HETATM   26  O   UNL     1      46.138  -9.833   7.539  1.00  0.00    -0.384 OA
HETATM   27  C   UNL     1      46.001  -9.009   8.707  1.00  0.00     0.168 C 
HETATM   28  C   UNL     1      45.160  -9.778   9.703  1.00  0.00     0.029 C 
HETATM   29  C   UNL     1      44.315 -10.645   8.807  1.00  0.00     0.035 C 
ENDBRANCH  24  25
ENDBRANCH  21  24
ENDBRANCH  16  20
ENDBRANCH   2  14
BRANCH   1  30
HETATM   30  C   UNL     1      40.439 -12.692   4.040  1.00  0.00    -0.023 A 
HETATM   31  C   UNL     1      41.345 -11.625   4.046  1.00  0.00     0.012 A 
HETATM   32  C   UNL     1      41.261 -10.634   5.024  1.00  0.00     0.001 A 
HETATM   33  C   UNL     1      40.268 -10.699   6.001  1.00  0.00     0.000 A 
HETATM   34  C   UNL     1      39.356 -11.754   5.998  1.00  0.00     0.001 A 
HETATM   35  C   UNL     1      39.437 -12.746   5.019  1.00  0.00     0.012 A 
ENDBRANCH   1  30
TORSDOF 5
ENDMDL
MODEL 6
REMARK VINA RESULT:      -7.9      4.391      7.212
REMARK  5 active torsions:
REMARK  status: ('A' for Active; 'I' for Inactive)
REMARK    1  A    between atoms: C_4  and  C_5 
REMARK    2  A    between atoms: C_6  and  N_7 
REMARK    3  A    between atoms: C_9  and  C_10 
REMARK       I    between atoms: C_10  and  N_11 
REMARK    4  A    between atoms: N_11  and  C_12 
REMARK    5  A    between atoms: C_12  and  C_13 
ROOT
HETATM    1  C   UNL     1      42.209 -12.644   6.112  1.00  0.00     0.019 A 
HETATM    2  C   UNL     1      41.093 -11.874   6.215  1.00  0.00     0.111 A 
HETATM    3  C   UNL     1      39.733 -12.507   5.935  1.00  0.00     0.273 A 
HETATM    4  O   UNL     1      38.681 -11.867   5.975  1.00  0.00    -0.266 OA
HETATM    5  N   UNL     1      39.697 -13.835   5.623  1.00  0.00    -0.321 N 
HETATM    6  C   UNL     1      40.825 -14.644   5.545  1.00  0.00     0.046 A 
HETATM    7  C   UNL     1      42.086 -14.090   5.781  1.00  0.00     0.006 A 
HETATM    8  C   UNL     1      40.669 -15.999   5.241  1.00  0.00     0.032 A 
HETATM    9  C   UNL     1      41.789 -16.827   5.178  1.00  0.00     0.026 A 
HETATM   10  C   UNL     1      43.052 -16.291   5.418  1.00  0.00     0.035 A 
HETATM   11 CL   UNL     1      44.435 -17.314   5.351  1.00  0.00    -0.084 Cl
HETATM   12  C   UNL     1      43.205 -14.937   5.716  1.00  0.00     0.038 A 
HETATM   13  H   UNL     1      38.776 -14.212   5.450  1.00  0.00     0.169 HD
ENDROOT
BRANCH   2  14
HETATM   14  N   UNL     1      41.106 -10.503   6.568  1.00  0.00    -0.375 N 
HETATM   15  C   UNL     1      40.297 -10.040   7.713  1.00  0.00     0.137 C 
HETATM   16  C   UNL     1      40.902  -8.776   8.336  1.00  0.00     0.096 C 
HETATM   17  C   UNL     1      41.078  -7.693   7.257  1.00  0.00     0.017 C 
HETATM   18  C   UNL     1      41.806  -8.220   6.018  1.00  0.00     0.021 C 
HETATM   19  C   UNL     1      41.165  -9.502   5.490  1.00  0.00     0.123 C 
BRANCH  16  20
HETATM   20  C   UNL     1      42.201  -9.050   9.100  1.00  0.00     0.223 C 
HETATM   21  N   UNL     1      42.080  -9.948  10.138  1.00  0.00    -0.358 N 
HETATM   22  H   UNL     1      41.163 -10.196  10.486  1.00  0.00     0.162 HD
HETATM   23  O   UNL     1      43.255  -8.461   8.871  1.00  0.00    -0.273 OA
BRANCH  21  24
HETATM   24  C   UNL     1      43.208 -10.333  10.968  1.00  0.00     0.154 C 
BRANCH  24  25
HETATM   25  C   UNL     1      43.069  -9.817  12.398  1.00  0.00     0.139 C 
HETATM   26  O   UNL     1      43.508  -8.441  12.472  1.00  0.00    -0.384 OA
HETATM   27  C   UNL     1      42.603  -7.724  13.326  1.00  0.00     0.168 C 
HETATM   28  C   UNL     1      41.655  -8.739  13.930  1.00  0.00     0.029 C 
HETATM   29  C   UNL     1      41.627  -9.816  12.877  1.00  0.00     0.035 C 
ENDBRANCH  24  25
ENDBRANCH  21  24
ENDBRANCH  16  20
ENDBRANCH   2  14
BRANCH   1  30
HETATM   30  C   UNL     1      43.522 -12.005   6.385  1.00  0.00    -0.023 A 
HETATM   31  C   UNL     1      43.941 -11.784   7.703  1.00  0.00     0.012 A 
HETATM   32  C   UNL     1      45.184 -11.205   7.960  1.00  0.00     0.001 A 
HETATM   33  C   UNL     1      46.019 -10.847   6.903  1.00  0.00     0.000 A 
HETATM   34  C   UNL     1      45.614 -11.070   5.588  1.00  0.00     0.001 A 
HETATM   35  C   UNL     1      44.371 -11.650   5.328  1.00  0.00     0.012 A 
ENDBRANCH   1  30
TORSDOF 5
ENDMDL
MODEL 7
REMARK VINA RESULT:      -7.7      3.157      7.637
REMARK  5 active torsions:
REMARK  status: ('A' for Active; 'I' for Inactive)
REMARK    1  A    between atoms: C_4  and  C_5 
REMARK    2  A    between atoms: C_6  and  N_7 
REMARK    3  A    between atoms: C_9  and  C_10 
REMARK       I    between atoms: C_10  and  N_11 
REMARK    4  A    between atoms: N_11  and  C_12 
REMARK    5  A    between atoms: C_12  and  C_13 
ROOT
HETATM    1  C   UNL     1      41.411 -12.204   4.779  1.00  0.00     0.019 A 
HETATM    2  C   UNL     1      40.906 -12.209   3.516  1.00  0.00     0.111 A 
HETATM    3  C   UNL     1      40.500 -10.882   2.880  1.00  0.00     0.273 A 
HETATM    4  O   UNL     1      40.005 -10.808   1.755  1.00  0.00    -0.266 OA
HETATM    5  N   UNL     1      40.693  -9.740   3.603  1.00  0.00    -0.321 N 
HETATM    6  C   UNL     1      41.237  -9.715   4.882  1.00  0.00     0.046 A 
HETATM    7  C   UNL     1      41.605 -10.915   5.497  1.00  0.00     0.006 A 
HETATM    8  C   UNL     1      41.411  -8.484   5.521  1.00  0.00     0.032 A 
HETATM    9  C   UNL     1      41.974  -8.442   6.796  1.00  0.00     0.026 A 
HETATM   10  C   UNL     1      42.353  -9.628   7.419  1.00  0.00     0.035 A 
HETATM   11 CL   UNL     1      43.057  -9.576   8.989  1.00  0.00    -0.084 Cl
HETATM   12  C   UNL     1      42.172 -10.856   6.780  1.00  0.00     0.038 A 
HETATM   13  H   UNL     1      40.413  -8.887   3.142  1.00  0.00     0.169 HD
ENDROOT
BRANCH   2  14
HETATM   14  N   UNL     1      40.728 -13.378   2.738  1.00  0.00    -0.375 N 
HETATM   15  C   UNL     1      41.210 -13.403   1.342  1.00  0.00     0.137 C 
HETATM   16  C   UNL     1      41.535 -14.835   0.900  1.00  0.00     0.096 C 
HETATM   17  C   UNL     1      40.312 -15.742   1.122  1.00  0.00     0.017 C 
HETATM   18  C   UNL     1      39.740 -15.611   2.536  1.00  0.00     0.021 C 
HETATM   19  C   UNL     1      39.487 -14.152   2.910  1.00  0.00     0.123 C 
BRANCH  16  20
HETATM   20  C   UNL     1      42.798 -15.392   1.563  1.00  0.00     0.223 C 
HETATM   21  N   UNL     1      42.728 -16.723   1.910  1.00  0.00    -0.358 N 
HETATM   22  H   UNL     1      41.832 -17.193   1.931  1.00  0.00     0.162 HD
HETATM   23  O   UNL     1      43.771 -14.698   1.847  1.00  0.00    -0.273 OA
BRANCH  21  24
HETATM   24  C   UNL     1      43.833 -17.421   2.543  1.00  0.00     0.154 C 
BRANCH  24  25
HETATM   25  C   UNL     1      43.355 -18.576   3.418  1.00  0.00     0.139 C 
HETATM   26  O   UNL     1      43.378 -19.810   2.665  1.00  0.00    -0.384 OA
HETATM   27  C   UNL     1      43.872 -20.853   3.520  1.00  0.00     0.168 C 
HETATM   28  C   UNL     1      44.011 -20.266   4.909  1.00  0.00     0.029 C 
HETATM   29  C   UNL     1      44.258 -18.809   4.618  1.00  0.00     0.035 C 
ENDBRANCH  24  25
ENDBRANCH  21  24
ENDBRANCH  16  20
ENDBRANCH   2  14
BRANCH   1  30
HETATM   30  C   UNL     1      41.796 -13.508   5.377  1.00  0.00    -0.023 A 
HETATM   31  C   UNL     1      40.890 -14.213   6.179  1.00  0.00     0.012 A 
HETATM   32  C   UNL     1      41.242 -15.449   6.721  1.00  0.00     0.001 A 
HETATM   33  C   UNL     1      42.500 -15.992   6.464  1.00  0.00     0.000 A 
HETATM   34  C   UNL     1      43.406 -15.301   5.660  1.00  0.00     0.001 A 
HETATM   35  C   UNL     1      43.056 -14.064   5.115  1.00  0.00     0.012 A 
ENDBRANCH   1  30
TORSDOF 5
ENDMDL
MODEL 8
REMARK VINA RESULT:      -7.6      3.731      8.447
REMARK  5 active torsions:
REMARK  status: ('A' for Active; 'I' for Inactive)
REMARK    1  A    between atoms: C_4  and  C_5 
REMARK    2  A    between atoms: C_6  and  N_7 
REMARK    3  A    between atoms: C_9  and  C_10 
REMARK       I    between atoms: C_10  and  N_11 
REMARK    4  A    between atoms: N_11  and  C_12 
REMARK    5  A    between atoms: C_12  and  C_13 
ROOT
HETATM    1  C   UNL     1      40.537 -11.533  -0.906  1.00  0.00     0.019 A 
HETATM    2  C   UNL     1      40.884 -11.860   0.368  1.00  0.00     0.111 A 
HETATM    3  C   UNL     1      41.793 -10.915   1.149  1.00  0.00     0.273 A 
HETATM    4  O   UNL     1      42.177 -11.158   2.294  1.00  0.00    -0.266 OA
HETATM    5  N   UNL     1      42.194  -9.762   0.539  1.00  0.00    -0.321 N 
HETATM    6  C   UNL     1      41.823  -9.398  -0.751  1.00  0.00     0.046 A 
HETATM    7  C   UNL     1      41.004 -10.249  -1.497  1.00  0.00     0.006 A 
HETATM    8  C   UNL     1      42.274  -8.181  -1.268  1.00  0.00     0.032 A 
HETATM    9  C   UNL     1      41.895  -7.793  -2.552  1.00  0.00     0.026 A 
HETATM   10  C   UNL     1      41.072  -8.626  -3.306  1.00  0.00     0.035 A 
HETATM   11 CL   UNL     1      40.594  -8.145  -4.888  1.00  0.00    -0.084 Cl
HETATM   12  C   UNL     1      40.628  -9.844  -2.788  1.00  0.00     0.038 A 
HETATM   13  H   UNL     1      42.792  -9.167   1.094  1.00  0.00     0.169 HD
ENDROOT
BRANCH   2  14
HETATM   14  N   UNL     1      40.453 -13.035   1.030  1.00  0.00    -0.375 N 
HETATM   15  C   UNL     1      40.514 -14.330   0.324  1.00  0.00     0.137 C 
HETATM   16  C   UNL     1      40.651 -15.490   1.318  1.00  0.00     0.096 C 
HETATM   17  C   UNL     1      39.515 -15.431   2.353  1.00  0.00     0.017 C 
HETATM   18  C   UNL     1      39.377 -14.043   2.986  1.00  0.00     0.021 C 
HETATM   19  C   UNL     1      39.289 -12.946   1.928  1.00  0.00     0.123 C 
BRANCH  16  20
HETATM   20  C   UNL     1      42.033 -15.550   1.976  1.00  0.00     0.223 C 
HETATM   21  N   UNL     1      42.271 -16.689   2.714  1.00  0.00    -0.358 N 
HETATM   22  H   UNL     1      41.502 -17.292   2.973  1.00  0.00     0.162 HD
HETATM   23  O   UNL     1      42.842 -14.626   1.930  1.00  0.00    -0.273 OA
BRANCH  21  24
HETATM   24  C   UNL     1      43.529 -16.919   3.403  1.00  0.00     0.154 C 
BRANCH  24  25
HETATM   25  C   UNL     1      44.120 -18.287   3.072  1.00  0.00     0.139 C 
HETATM   26  O   UNL     1      44.309 -19.051   4.284  1.00  0.00    -0.384 OA
HETATM   27  C   UNL     1      43.924 -20.411   4.026  1.00  0.00     0.168 C 
HETATM   28  C   UNL     1      43.634 -20.521   2.545  1.00  0.00     0.029 C 
HETATM   29  C   UNL     1      43.199 -19.122   2.198  1.00  0.00     0.035 C 
ENDBRANCH  24  25
ENDBRANCH  21  24
ENDBRANCH  16  20
ENDBRANCH   2  14
BRANCH   1  30
HETATM   30  C   UNL     1      39.654 -12.470  -1.647  1.00  0.00    -0.023 A 
HETATM   31  C   UNL     1      38.262 -12.350  -1.557  1.00  0.00     0.012 A 
HETATM   32  C   UNL     1      37.432 -13.214  -2.272  1.00  0.00     0.001 A 
HETATM   33  C   UNL     1      37.987 -14.201  -3.086  1.00  0.00     0.000 A 
HETATM   34  C   UNL     1      39.372 -14.322  -3.188  1.00  0.00     0.001 A 
HETATM   35  C   UNL     1      40.205 -13.458  -2.475  1.00  0.00     0.012 A 
ENDBRANCH   1  30
TORSDOF 5
ENDMDL
MODEL 9
REMARK VINA RESULT:      -7.3      3.177      6.173
REMARK  5 active torsions:
REMARK  status: ('A' for Active; 'I' for Inactive)
REMARK    1  A    between atoms: C_4  and  C_5 
REMARK    2  A    between atoms: C_6  and  N_7 
REMARK    3  A    between atoms: C_9  and  C_10 
REMARK       I    between atoms: C_10  and  N_11 
REMARK    4  A    between atoms: N_11  and  C_12 
REMARK    5  A    between atoms: C_12  and  C_13 
ROOT
HETATM    1  C   UNL     1      41.515 -12.928   3.875  1.00  0.00     0.019 A 
HETATM    2  C   UNL     1      40.490 -12.086   3.577  1.00  0.00     0.111 A 
HETATM    3  C   UNL     1      39.396 -12.564   2.625  1.00  0.00     0.273 A 
HETATM    4  O   UNL     1      38.455 -11.848   2.282  1.00  0.00    -0.266 OA
HETATM    5  N   UNL     1      39.483 -13.836   2.138  1.00  0.00    -0.321 N 
HETATM    6  C   UNL     1      40.507 -14.721   2.458  1.00  0.00     0.046 A 
HETATM    7  C   UNL     1      41.531 -14.307   3.315  1.00  0.00     0.006 A 
HETATM    8  C   UNL     1      40.482 -16.010   1.919  1.00  0.00     0.032 A 
HETATM    9  C   UNL     1      41.492 -16.914   2.246  1.00  0.00     0.026 A 
HETATM   10  C   UNL     1      42.515 -16.520   3.104  1.00  0.00     0.035 A 
HETATM   11 CL   UNL     1      43.757 -17.638   3.517  1.00  0.00    -0.084 Cl
HETATM   12  C   UNL     1      42.539 -15.230   3.636  1.00  0.00     0.038 A 
HETATM   13  H   UNL     1      38.736 -14.110   1.516  1.00  0.00     0.169 HD
ENDROOT
BRANCH   2  14
HETATM   14  N   UNL     1      40.365 -10.774   4.097  1.00  0.00    -0.375 N 
HETATM   15  C   UNL     1      39.043 -10.295   4.549  1.00  0.00     0.137 C 
HETATM   16  C   UNL     1      39.193  -9.211   5.624  1.00  0.00     0.096 C 
HETATM   17  C   UNL     1      40.089  -8.075   5.101  1.00  0.00     0.017 C 
HETATM   18  C   UNL     1      41.404  -8.596   4.515  1.00  0.00     0.021 C 
HETATM   19  C   UNL     1      41.166  -9.700   3.487  1.00  0.00     0.123 C 
BRANCH  16  20
HETATM   20  C   UNL     1      39.680  -9.765   6.965  1.00  0.00     0.223 C 
HETATM   21  N   UNL     1      40.383  -8.867   7.739  1.00  0.00    -0.358 N 
HETATM   22  H   UNL     1      40.732  -8.011   7.326  1.00  0.00     0.162 HD
HETATM   23  O   UNL     1      39.538 -10.938   7.302  1.00  0.00    -0.273 OA
BRANCH  21  24
HETATM   24  C   UNL     1      40.917  -9.215   9.043  1.00  0.00     0.154 C 
BRANCH  24  25
HETATM   25  C   UNL     1      42.266  -8.552   9.306  1.00  0.00     0.139 C 
HETATM   26  O   UNL     1      43.074  -9.394  10.159  1.00  0.00    -0.384 OA
HETATM   27  C   UNL     1      44.426  -9.365   9.675  1.00  0.00     0.168 C 
HETATM   28  C   UNL     1      44.483  -8.335   8.568  1.00  0.00     0.029 C 
HETATM   29  C   UNL     1      43.075  -8.359   8.034  1.00  0.00     0.035 C 
ENDBRANCH  24  25
ENDBRANCH  21  24
ENDBRANCH  16  20
ENDBRANCH   2  14
BRANCH   1  30
HETATM   30  C   UNL     1      42.569 -12.439   4.801  1.00  0.00    -0.023 A 
HETATM   31  C   UNL     1      43.748 -11.878   4.296  1.00  0.00     0.012 A 
HETATM   32  C   UNL     1      44.728 -11.396   5.164  1.00  0.00     0.001 A 
HETATM   33  C   UNL     1      44.535 -11.467   6.543  1.00  0.00     0.000 A 
HETATM   34  C   UNL     1      43.360 -12.017   7.055  1.00  0.00     0.001 A 
HETATM   35  C   UNL     1      42.378 -12.499   6.188  1.00  0.00     0.012 A 
ENDBRANCH   1  30
TORSDOF 5
ENDMDL
MODEL 10
REMARK VINA RESULT:      -7.3      9.735     13.223
REMARK  5 active torsions:
REMARK  status: ('A' for Active; 'I' for Inactive)
REMARK    1  A    between atoms: C_4  and  C_5 
REMARK    2  A    between atoms: C_6  and  N_7 
REMARK    3  A    between atoms: C_9  and  C_10 
REMARK       I    between atoms: C_10  and  N_11 
REMARK    4  A    between atoms: N_11  and  C_12 
REMARK    5  A    between atoms: C_12  and  C_13 
ROOT
HETATM    1  C   UNL     1      41.061  -6.460  14.230  1.00  0.00     0.019 A 
HETATM    2  C   UNL     1      41.266  -5.430  13.366  1.00  0.00     0.111 A 
HETATM    3  C   UNL     1      41.514  -4.034  13.930  1.00  0.00     0.273 A 
HETATM    4  O   UNL     1      41.676  -3.046  13.212  1.00  0.00    -0.266 OA
HETATM    5  N   UNL     1      41.548  -3.888  15.287  1.00  0.00    -0.321 N 
HETATM    6  C   UNL     1      41.371  -4.936  16.184  1.00  0.00     0.046 A 
HETATM    7  C   UNL     1      41.128  -6.224  15.698  1.00  0.00     0.006 A 
HETATM    8  C   UNL     1      41.450  -4.676  17.555  1.00  0.00     0.032 A 
HETATM    9  C   UNL     1      41.294  -5.720  18.465  1.00  0.00     0.026 A 
HETATM   10  C   UNL     1      41.059  -7.010  17.997  1.00  0.00     0.035 A 
HETATM   11 CL   UNL     1      40.876  -8.302  19.120  1.00  0.00    -0.084 Cl
HETATM   12  C   UNL     1      40.975  -7.265  16.628  1.00  0.00     0.038 A 
HETATM   13  H   UNL     1      41.718  -2.948  15.614  1.00  0.00     0.169 HD
ENDROOT
BRANCH   2  14
HETATM   14  N   UNL     1      41.267  -5.566  11.957  1.00  0.00    -0.375 N 
HETATM   15  C   UNL     1      42.535  -5.426  11.214  1.00  0.00     0.137 C 
HETATM   16  C   UNL     1      42.489  -6.212   9.898  1.00  0.00     0.096 C 
HETATM   17  C   UNL     1      41.265  -5.780   9.071  1.00  0.00     0.017 C 
HETATM   18  C   UNL     1      39.972  -5.806   9.891  1.00  0.00     0.021 C 
HETATM   19  C   UNL     1      40.119  -5.036  11.202  1.00  0.00     0.123 C 
BRANCH  16  20
HETATM   20  C   UNL     1      42.541  -7.728  10.108  1.00  0.00     0.223 C 
HETATM   21  N   UNL     1      43.786  -8.223  10.431  1.00  0.00    -0.358 N 
HETATM   22  H   UNL     1      44.607  -7.648  10.297  1.00  0.00     0.162 HD
HETATM   23  O   UNL     1      41.577  -8.468   9.922  1.00  0.00    -0.273 OA
BRANCH  21  24
HETATM   24  C   UNL     1      44.022  -9.635  10.672  1.00  0.00     0.154 C 
BRANCH  24  25
HETATM   25  C   UNL     1      45.129 -10.190   9.779  1.00  0.00     0.139 C 
HETATM   26  O   UNL     1      44.587 -11.186   8.881  1.00  0.00    -0.384 OA
HETATM   27  C   UNL     1      45.188 -11.004   7.589  1.00  0.00     0.168 C 
HETATM   28  C   UNL     1      46.263  -9.949   7.739  1.00  0.00     0.029 C 
HETATM   29  C   UNL     1      45.746  -9.125   8.889  1.00  0.00     0.035 C 
ENDBRANCH  24  25
ENDBRANCH  21  24
ENDBRANCH  16  20
ENDBRANCH   2  14
BRANCH   1  30
HETATM   30  C   UNL     1      40.818  -7.809  13.657  1.00  0.00    -0.023 A 
HETATM   31  C   UNL     1      41.844  -8.762  13.631  1.00  0.00     0.012 A 
HETATM   32  C   UNL     1      41.611 -10.037  13.116  1.00  0.00     0.001 A 
HETATM   33  C   UNL     1      40.349 -10.371  12.627  1.00  0.00     0.000 A 
HETATM   34  C   UNL     1      39.318  -9.432  12.655  1.00  0.00     0.001 A 
HETATM   35  C   UNL     1      39.549  -8.156  13.172  1.00  0.00     0.012 A 
ENDBRANCH   1  30
TORSDOF 5
ENDMDL
