MODEL 1
REMARK VINA RESULT:      -7.8      0.000      0.000
REMARK  6 active torsions:
REMARK  status: ('A' for Active; 'I' for Inactive)
REMARK    1  A    between atoms: C_2  and  C_3 
REMARK    2  A    between atoms: C_5  and  N_6 
REMARK       I    between atoms: N_6  and  C_7 
REMARK       I    between atoms: C_7  and  N_8 
REMARK    3  A    between atoms: N_8  and  C_9 
REMARK    4  A    between atoms: C_9  and  C_10 
REMARK    5  A    between atoms: C_11  and  N_12 
REMARK    6  A    between atoms: C_19  and  O_20 
ROOT
HETATM    1  N   UNL     1      40.158 -14.277   4.896  1.00  0.00    -0.306 N 
HETATM    2  C   UNL     1      40.340 -13.175   5.657  1.00  0.00     0.321 C 
HETATM    3  N   UNL     1      41.495 -12.475   5.500  1.00  0.00    -0.338 N 
HETATM    4  O   UNL     1      39.411 -12.748   6.339  1.00  0.00    -0.247 OA
HETATM    5  H   UNL     1      39.183 -14.529   4.776  1.00  0.00     0.171 HD
HETATM    6  H   UNL     1      42.090 -12.737   4.724  1.00  0.00     0.164 HD
ENDROOT
BRANCH   1   7
HETATM    7  C   UNL     1      41.045 -15.204   4.320  1.00  0.00     0.070 A 
HETATM    8  C   UNL     1      42.066 -15.840   5.039  1.00  0.00     0.040 A 
HETATM    9  C   UNL     1      42.852 -16.851   4.450  1.00  0.00    -0.048 A 
HETATM   10  C   UNL     1      42.579 -17.184   3.110  1.00  0.00     0.011 A 
HETATM   11  C   UNL     1      41.561 -16.555   2.386  1.00  0.00     0.039 A 
HETATM   12  C   UNL     1      40.776 -15.580   2.990  1.00  0.00     0.095 A 
BRANCH   9  13
HETATM   13  C   UNL     1      43.885 -17.653   5.270  1.00  0.00    -0.024 C 
HETATM   14  C   UNL     1      44.877 -16.651   5.895  1.00  0.00     0.019 C 
HETATM   15  C   UNL     1      44.679 -18.659   4.406  1.00  0.00     0.019 C 
HETATM   16  C   UNL     1      43.235 -18.471   6.410  1.00  0.00     0.019 C 
ENDBRANCH   9  13
BRANCH  12  17
HETATM   17  O   UNL     1      39.726 -14.922   2.394  1.00  0.00    -0.354 OA
HETATM   18  C   UNL     1      40.016 -14.171   1.219  1.00  0.00     0.210 C 
ENDBRANCH  12  17
ENDBRANCH   1   7
BRANCH   3  19
HETATM   19  C   UNL     1      41.739 -11.228   6.204  1.00  0.00     0.166 C 
BRANCH  19  20
HETATM   20  C   UNL     1      43.170 -11.057   6.676  1.00  0.00     0.003 A 
HETATM   21  C   UNL     1      43.510 -10.449   7.900  1.00  0.00     0.106 A 
HETATM   22  N   UNL     1      44.805 -10.378   8.246  1.00  0.00    -0.352 N 
HETATM   23  H   UNL     1      45.012  -9.968   9.151  1.00  0.00     0.166 HD
HETATM   24  C   UNL     1      45.807 -10.862   7.506  1.00  0.00     0.089 A 
HETATM   25  C   UNL     1      45.537 -11.479   6.299  1.00  0.00     0.018 A 
HETATM   26  C   UNL     1      44.214 -11.564   5.878  1.00  0.00     0.014 A 
BRANCH  21  27
HETATM   27  N   UNL     1      42.608 -10.078   8.866  1.00  0.00    -0.385 N 
HETATM   28  H   UNL     1      41.654  -9.857   8.544  1.00  0.00     0.157 HD
HETATM   29  H   UNL     1      42.857  -9.502   9.657  1.00  0.00     0.157 HD
ENDBRANCH  21  27
ENDBRANCH  19  20
ENDBRANCH   3  19
TORSDOF 6
ENDMDL
MODEL 2
REMARK VINA RESULT:      -7.5      3.377      7.215
REMARK  6 active torsions:
REMARK  status: ('A' for Active; 'I' for Inactive)
REMARK    1  A    between atoms: C_2  and  C_3 
REMARK    2  A    between atoms: C_5  and  N_6 
REMARK       I    between atoms: N_6  and  C_7 
REMARK       I    between atoms: C_7  and  N_8 
REMARK    3  A    between atoms: N_8  and  C_9 
REMARK    4  A    between atoms: C_9  and  C_10 
REMARK    5  A    between atoms: C_11  and  N_12 
REMARK    6  A    between atoms: C_19  and  O_20 
ROOT
HETATM    1  N   UNL     1      43.600 -14.731   6.640  1.00  0.00    -0.306 N 
HETATM    2  C   UNL     1      43.684 -16.073   6.788  1.00  0.00     0.321 C 
HETATM    3  N   UNL     1      43.883 -16.826   5.673  1.00  0.00    -0.338 N 
HETATM    4  O   UNL     1      43.743 -16.556   7.917  1.00  0.00    -0.247 OA
HETATM    5  H   UNL     1      43.826 -14.217   7.485  1.00  0.00     0.171 HD
HETATM    6  H   UNL     1      44.096 -16.332   4.817  1.00  0.00     0.164 HD
ENDROOT
BRANCH   1   7
HETATM    7  C   UNL     1      43.167 -13.906   5.587  1.00  0.00     0.070 A 
HETATM    8  C   UNL     1      42.304 -14.344   4.574  1.00  0.00     0.040 A 
HETATM    9  C   UNL     1      41.800 -13.449   3.608  1.00  0.00    -0.048 A 
HETATM   10  C   UNL     1      42.210 -12.105   3.696  1.00  0.00     0.011 A 
HETATM   11  C   UNL     1      43.070 -11.660   4.705  1.00  0.00     0.039 A 
HETATM   12  C   UNL     1      43.535 -12.550   5.667  1.00  0.00     0.095 A 
BRANCH   9  13
HETATM   13  C   UNL     1      40.743 -13.887   2.572  1.00  0.00    -0.024 C 
HETATM   14  C   UNL     1      40.506 -15.401   2.748  1.00  0.00     0.019 C 
HETATM   15  C   UNL     1      41.192 -13.624   1.117  1.00  0.00     0.019 C 
HETATM   16  C   UNL     1      39.392 -13.158   2.754  1.00  0.00     0.019 C 
ENDBRANCH   9  13
BRANCH  12  17
HETATM   17  O   UNL     1      44.350 -12.223   6.725  1.00  0.00    -0.354 OA
HETATM   18  C   UNL     1      45.510 -11.449   6.434  1.00  0.00     0.210 C 
ENDBRANCH  12  17
ENDBRANCH   1   7
BRANCH   3  19
HETATM   19  C   UNL     1      44.079 -18.263   5.743  1.00  0.00     0.166 C 
BRANCH  19  20
HETATM   20  C   UNL     1      43.860 -18.980   4.424  1.00  0.00     0.003 A 
HETATM   21  C   UNL     1      44.057 -20.365   4.258  1.00  0.00     0.106 A 
HETATM   22  N   UNL     1      43.801 -20.912   3.060  1.00  0.00    -0.352 N 
HETATM   23  H   UNL     1      43.916 -21.917   2.985  1.00  0.00     0.166 HD
HETATM   24  C   UNL     1      43.354 -20.227   2.003  1.00  0.00     0.089 A 
HETATM   25  C   UNL     1      43.132 -18.867   2.105  1.00  0.00     0.018 A 
HETATM   26  C   UNL     1      43.400 -18.240   3.318  1.00  0.00     0.014 A 
BRANCH  21  27
HETATM   27  N   UNL     1      44.319 -21.245   5.278  1.00  0.00    -0.385 N 
HETATM   28  H   UNL     1      44.089 -22.234   5.102  1.00  0.00     0.157 HD
HETATM   29  H   UNL     1      44.174 -21.016   6.251  1.00  0.00     0.157 HD
ENDBRANCH  21  27
ENDBRANCH  19  20
ENDBRANCH   3  19
TORSDOF 6
ENDMDL
MODEL 3
REMARK VINA RESULT:      -7.3      3.316      7.150
REMARK  6 active torsions:
REMARK  status: ('A' for Active; 'I' for Inactive)
REMARK    1  A    between atoms: C_2  and  C_3 
REMARK    2  A    between atoms: C_5  and  N_6 
REMARK       I    between atoms: N_6  and  C_7 
REMARK       I    between atoms: C_7  and  N_8 
REMARK    3  A    between atoms: N_8  and  C_9 
REMARK    4  A    between atoms: C_9  and  C_10 
REMARK    5  A    between atoms: C_11  and  N_12 
REMARK    6  A    between atoms: C_19  and  O_20 
ROOT
HETATM    1  N   UNL     1      40.248 -14.750   3.196  1.00  0.00    -0.306 N 
HETATM    2  C   UNL     1      40.992 -15.646   3.882  1.00  0.00     0.321 C 
HETATM    3  N   UNL     1      42.346 -15.555   3.789  1.00  0.00    -0.338 N 
HETATM    4  O   UNL     1      40.447 -16.400   4.686  1.00  0.00    -0.247 OA
HETATM    5  H   UNL     1      39.317 -14.622   3.578  1.00  0.00     0.171 HD
HETATM    6  H   UNL     1      42.721 -14.739   3.324  1.00  0.00     0.164 HD
ENDROOT
BRANCH   1   7
HETATM    7  C   UNL     1      40.462 -14.036   2.004  1.00  0.00     0.070 A 
HETATM    8  C   UNL     1      39.948 -14.440   0.764  1.00  0.00     0.040 A 
HETATM    9  C   UNL     1      40.085 -13.629  -0.381  1.00  0.00    -0.048 A 
HETATM   10  C   UNL     1      40.769 -12.409  -0.230  1.00  0.00     0.011 A 
HETATM   11  C   UNL     1      41.284 -11.998   1.003  1.00  0.00     0.039 A 
HETATM   12  C   UNL     1      41.115 -12.796   2.129  1.00  0.00     0.095 A 
BRANCH   9  13
HETATM   13  C   UNL     1      39.406 -13.996  -1.718  1.00  0.00    -0.024 C 
HETATM   14  C   UNL     1      40.386 -13.651  -2.858  1.00  0.00     0.019 C 
HETATM   15  C   UNL     1      38.088 -13.222  -1.948  1.00  0.00     0.019 C 
HETATM   16  C   UNL     1      39.056 -15.499  -1.815  1.00  0.00     0.019 C 
ENDBRANCH   9  13
BRANCH  12  17
HETATM   17  O   UNL     1      41.541 -12.481   3.398  1.00  0.00    -0.354 OA
HETATM   18  C   UNL     1      42.851 -11.939   3.526  1.00  0.00     0.210 C 
ENDBRANCH  12  17
ENDBRANCH   1   7
BRANCH   3  19
HETATM   19  C   UNL     1      43.228 -16.412   4.562  1.00  0.00     0.166 C 
BRANCH  19  20
HETATM   20  C   UNL     1      43.440 -17.786   3.955  1.00  0.00     0.003 A 
HETATM   21  C   UNL     1      43.755 -18.926   4.720  1.00  0.00     0.106 A 
HETATM   22  N   UNL     1      43.887 -20.106   4.094  1.00  0.00    -0.352 N 
HETATM   23  H   UNL     1      44.076 -20.912   4.679  1.00  0.00     0.166 HD
HETATM   24  C   UNL     1      43.724 -20.279   2.779  1.00  0.00     0.089 A 
HETATM   25  C   UNL     1      43.405 -19.201   1.975  1.00  0.00     0.018 A 
HETATM   26  C   UNL     1      43.275 -17.948   2.566  1.00  0.00     0.014 A 
BRANCH  21  27
HETATM   27  N   UNL     1      43.763 -18.968   6.092  1.00  0.00    -0.385 N 
HETATM   28  H   UNL     1      44.640 -19.277   6.538  1.00  0.00     0.157 HD
HETATM   29  H   UNL     1      42.966 -19.266   6.636  1.00  0.00     0.157 HD
ENDBRANCH  21  27
ENDBRANCH  19  20
ENDBRANCH   3  19
TORSDOF 6
ENDMDL
MODEL 4
REMARK VINA RESULT:      -7.3      3.562      6.632
REMARK  6 active torsions:
REMARK  status: ('A' for Active; 'I' for Inactive)
REMARK    1  A    between atoms: C_2  and  C_3 
REMARK    2  A    between atoms: C_5  and  N_6 
REMARK       I    between atoms: N_6  and  C_7 
REMARK       I    between atoms: C_7  and  N_8 
REMARK    3  A    between atoms: N_8  and  C_9 
REMARK    4  A    between atoms: C_9  and  C_10 
REMARK    5  A    between atoms: C_11  and  N_12 
REMARK    6  A    between atoms: C_19  and  O_20 
ROOT
HETATM    1  N   UNL     1      41.315 -16.730   2.083  1.00  0.00    -0.306 N 
HETATM    2  C   UNL     1      40.426 -15.857   1.558  1.00  0.00     0.321 C 
HETATM    3  N   UNL     1      40.708 -14.529   1.647  1.00  0.00    -0.338 N 
HETATM    4  O   UNL     1      39.488 -16.277   0.883  1.00  0.00    -0.247 OA
HETATM    5  H   UNL     1      41.256 -17.659   1.677  1.00  0.00     0.171 HD
HETATM    6  H   UNL     1      41.631 -14.277   1.975  1.00  0.00     0.164 HD
ENDROOT
BRANCH   1   7
HETATM    7  C   UNL     1      42.232 -16.645   3.145  1.00  0.00     0.070 A 
HETATM    8  C   UNL     1      42.118 -15.715   4.186  1.00  0.00     0.040 A 
HETATM    9  C   UNL     1      42.992 -15.747   5.292  1.00  0.00    -0.048 A 
HETATM   10  C   UNL     1      43.990 -16.740   5.298  1.00  0.00     0.011 A 
HETATM   11  C   UNL     1      44.110 -17.673   4.263  1.00  0.00     0.039 A 
HETATM   12  C   UNL     1      43.222 -17.646   3.195  1.00  0.00     0.095 A 
BRANCH   9  13
HETATM   13  C   UNL     1      42.792 -14.819   6.508  1.00  0.00    -0.024 C 
HETATM   14  C   UNL     1      43.873 -13.719   6.449  1.00  0.00     0.019 C 
HETATM   15  C   UNL     1      42.922 -15.566   7.855  1.00  0.00     0.019 C 
HETATM   16  C   UNL     1      41.404 -14.137   6.516  1.00  0.00     0.019 C 
ENDBRANCH   9  13
BRANCH  12  17
HETATM   17  O   UNL     1      43.216 -18.531   2.142  1.00  0.00    -0.354 OA
HETATM   18  C   UNL     1      43.571 -19.880   2.429  1.00  0.00     0.210 C 
ENDBRANCH  12  17
ENDBRANCH   1   7
BRANCH   3  19
HETATM   19  C   UNL     1      39.862 -13.522   1.031  1.00  0.00     0.166 C 
BRANCH  19  20
HETATM   20  C   UNL     1      40.263 -13.165  -0.388  1.00  0.00     0.003 A 
HETATM   21  C   UNL     1      39.813 -13.877  -1.518  1.00  0.00     0.106 A 
HETATM   22  N   UNL     1      40.194 -13.460  -2.735  1.00  0.00    -0.352 N 
HETATM   23  H   UNL     1      39.821 -13.971  -3.527  1.00  0.00     0.166 HD
HETATM   24  C   UNL     1      40.972 -12.396  -2.953  1.00  0.00     0.089 A 
HETATM   25  C   UNL     1      41.438 -11.651  -1.887  1.00  0.00     0.018 A 
HETATM   26  C   UNL     1      41.092 -12.047  -0.599  1.00  0.00     0.014 A 
BRANCH  21  27
HETATM   27  N   UNL     1      38.859 -14.864  -1.491  1.00  0.00    -0.385 N 
HETATM   28  H   UNL     1      37.906 -14.575  -1.226  1.00  0.00     0.157 HD
HETATM   29  H   UNL     1      39.048 -15.800  -1.165  1.00  0.00     0.157 HD
ENDBRANCH  21  27
ENDBRANCH  19  20
ENDBRANCH   3  19
TORSDOF 6
ENDMDL
MODEL 5
REMARK VINA RESULT:      -7.1      3.237      5.530
REMARK  6 active torsions:
REMARK  status: ('A' for Active; 'I' for Inactive)
REMARK    1  A    between atoms: C_2  and  C_3 
REMARK    2  A    between atoms: C_5  and  N_6 
REMARK       I    between atoms: N_6  and  C_7 
REMARK       I    between atoms: C_7  and  N_8 
REMARK    3  A    between atoms: N_8  and  C_9 
REMARK    4  A    between atoms: C_9  and  C_10 
REMARK    5  A    between atoms: C_11  and  N_12 
REMARK    6  A    between atoms: C_19  and  O_20 
ROOT
HETATM    1  N   UNL     1      45.300 -11.066   6.986  1.00  0.00    -0.306 N 
HETATM    2  C   UNL     1      45.495 -10.265   8.057  1.00  0.00     0.321 C 
HETATM    3  N   UNL     1      44.853 -10.580   9.215  1.00  0.00    -0.338 N 
HETATM    4  O   UNL     1      46.355  -9.388   8.011  1.00  0.00    -0.247 OA
HETATM    5  H   UNL     1      46.050 -11.020   6.305  1.00  0.00     0.171 HD
HETATM    6  H   UNL     1      44.378 -11.472   9.248  1.00  0.00     0.164 HD
ENDROOT
BRANCH   1   7
HETATM    7  C   UNL     1      44.224 -11.873   6.573  1.00  0.00     0.070 A 
HETATM    8  C   UNL     1      44.314 -13.265   6.441  1.00  0.00     0.040 A 
HETATM    9  C   UNL     1      43.179 -14.045   6.142  1.00  0.00    -0.048 A 
HETATM   10  C   UNL     1      41.957 -13.367   5.969  1.00  0.00     0.011 A 
HETATM   11  C   UNL     1      41.858 -11.978   6.101  1.00  0.00     0.039 A 
HETATM   12  C   UNL     1      42.982 -11.227   6.424  1.00  0.00     0.095 A 
BRANCH   9  13
HETATM   13  C   UNL     1      43.237 -15.587   6.129  1.00  0.00    -0.024 C 
HETATM   14  C   UNL     1      42.934 -16.061   4.693  1.00  0.00     0.019 C 
HETATM   15  C   UNL     1      42.208 -16.229   7.087  1.00  0.00     0.019 C 
HETATM   16  C   UNL     1      44.623 -16.135   6.540  1.00  0.00     0.019 C 
ENDBRANCH   9  13
BRANCH  12  17
HETATM   17  O   UNL     1      43.001  -9.866   6.618  1.00  0.00    -0.354 OA
HETATM   18  C   UNL     1      41.938  -9.306   7.382  1.00  0.00     0.210 C 
ENDBRANCH  12  17
ENDBRANCH   1   7
BRANCH   3  19
HETATM   19  C   UNL     1      45.074  -9.835  10.442  1.00  0.00     0.166 C 
BRANCH  19  20
HETATM   20  C   UNL     1      43.808  -9.554  11.228  1.00  0.00     0.003 A 
HETATM   21  C   UNL     1      43.138 -10.535  11.986  1.00  0.00     0.106 A 
HETATM   22  N   UNL     1      42.044 -10.179  12.677  1.00  0.00    -0.352 N 
HETATM   23  H   UNL     1      41.609 -10.900  13.242  1.00  0.00     0.166 HD
HETATM   24  C   UNL     1      41.547  -8.939  12.707  1.00  0.00     0.089 A 
HETATM   25  C   UNL     1      42.164  -7.931  11.992  1.00  0.00     0.018 A 
HETATM   26  C   UNL     1      43.291  -8.244  11.239  1.00  0.00     0.014 A 
BRANCH  21  27
HETATM   27  N   UNL     1      43.617 -11.799  12.226  1.00  0.00    -0.385 N 
HETATM   28  H   UNL     1      43.594 -12.121  13.205  1.00  0.00     0.157 HD
HETATM   29  H   UNL     1      44.419 -12.182  11.747  1.00  0.00     0.157 HD
ENDBRANCH  21  27
ENDBRANCH  19  20
ENDBRANCH   3  19
TORSDOF 6
ENDMDL
MODEL 6
REMARK VINA RESULT:      -7.1      1.853      2.099
REMARK  6 active torsions:
REMARK  status: ('A' for Active; 'I' for Inactive)
REMARK    1  A    between atoms: C_2  and  C_3 
REMARK    2  A    between atoms: C_5  and  N_6 
REMARK       I    between atoms: N_6  and  C_7 
REMARK       I    between atoms: C_7  and  N_8 
REMARK    3  A    between atoms: N_8  and  C_9 
REMARK    4  A    between atoms: C_9  and  C_10 
REMARK    5  A    between atoms: C_11  and  N_12 
REMARK    6  A    between atoms: C_19  and  O_20 
ROOT
HETATM    1  N   UNL     1      43.052 -13.233   2.399  1.00  0.00    -0.306 N 
HETATM    2  C   UNL     1      42.790 -12.070   3.037  1.00  0.00     0.321 C 
HETATM    3  N   UNL     1      42.795 -12.073   4.397  1.00  0.00    -0.338 N 
HETATM    4  O   UNL     1      42.717 -11.027   2.391  1.00  0.00    -0.247 OA
HETATM    5  H   UNL     1      43.397 -13.106   1.453  1.00  0.00     0.171 HD
HETATM    6  H   UNL     1      43.133 -12.911   4.853  1.00  0.00     0.164 HD
ENDROOT
BRANCH   1   7
HETATM    7  C   UNL     1      42.850 -14.582   2.739  1.00  0.00     0.070 A 
HETATM    8  C   UNL     1      43.373 -15.169   3.900  1.00  0.00     0.040 A 
HETATM    9  C   UNL     1      43.043 -16.491   4.261  1.00  0.00    -0.048 A 
HETATM   10  C   UNL     1      42.181 -17.199   3.403  1.00  0.00     0.011 A 
HETATM   11  C   UNL     1      41.653 -16.621   2.244  1.00  0.00     0.039 A 
HETATM   12  C   UNL     1      41.965 -15.306   1.918  1.00  0.00     0.095 A 
BRANCH   9  13
HETATM   13  C   UNL     1      43.500 -17.101   5.603  1.00  0.00    -0.024 C 
HETATM   14  C   UNL     1      42.383 -16.860   6.640  1.00  0.00     0.019 C 
HETATM   15  C   UNL     1      44.807 -16.466   6.130  1.00  0.00     0.019 C 
HETATM   16  C   UNL     1      43.758 -18.622   5.509  1.00  0.00     0.019 C 
ENDBRANCH   9  13
BRANCH  12  17
HETATM   17  O   UNL     1      41.480 -14.620   0.830  1.00  0.00    -0.354 OA
HETATM   18  C   UNL     1      40.116 -14.839   0.482  1.00  0.00     0.210 C 
ENDBRANCH  12  17
ENDBRANCH   1   7
BRANCH   3  19
HETATM   19  C   UNL     1      42.618 -10.855   5.168  1.00  0.00     0.166 C 
BRANCH  19  20
HETATM   20  C   UNL     1      43.564 -10.730   6.347  1.00  0.00     0.003 A 
HETATM   21  C   UNL     1      43.157 -10.271   7.616  1.00  0.00     0.106 A 
HETATM   22  N   UNL     1      44.061 -10.231   8.606  1.00  0.00    -0.352 N 
HETATM   23  H   UNL     1      43.726  -9.932   9.515  1.00  0.00     0.166 HD
HETATM   24  C   UNL     1      45.335 -10.613   8.475  1.00  0.00     0.089 A 
HETATM   25  C   UNL     1      45.792 -11.082   7.258  1.00  0.00     0.018 A 
HETATM   26  C   UNL     1      44.905 -11.127   6.187  1.00  0.00     0.014 A 
BRANCH  21  27
HETATM   27  N   UNL     1      41.855 -10.028   7.979  1.00  0.00    -0.385 N 
HETATM   28  H   UNL     1      41.529  -9.054   7.897  1.00  0.00     0.157 HD
HETATM   29  H   UNL     1      41.409 -10.486   8.760  1.00  0.00     0.157 HD
ENDBRANCH  21  27
ENDBRANCH  19  20
ENDBRANCH   3  19
TORSDOF 6
ENDMDL
MODEL 7
REMARK VINA RESULT:      -6.8      3.687      7.396
REMARK  6 active torsions:
REMARK  status: ('A' for Active; 'I' for Inactive)
REMARK    1  A    between atoms: C_2  and  C_3 
REMARK    2  A    between atoms: C_5  and  N_6 
REMARK       I    between atoms: N_6  and  C_7 
REMARK       I    between atoms: C_7  and  N_8 
REMARK    3  A    between atoms: N_8  and  C_9 
REMARK    4  A    between atoms: C_9  and  C_10 
REMARK    5  A    between atoms: C_11  and  N_12 
REMARK    6  A    between atoms: C_19  and  O_20 
ROOT
HETATM    1  N   UNL     1      39.057 -12.618   3.151  1.00  0.00    -0.306 N 
HETATM    2  C   UNL     1      38.706 -12.016   1.992  1.00  0.00     0.321 C 
HETATM    3  N   UNL     1      39.337 -12.410   0.853  1.00  0.00    -0.338 N 
HETATM    4  O   UNL     1      37.734 -11.265   1.968  1.00  0.00    -0.247 OA
HETATM    5  H   UNL     1      38.336 -12.571   3.864  1.00  0.00     0.171 HD
HETATM    6  H   UNL     1      39.931 -13.226   0.916  1.00  0.00     0.164 HD
ENDROOT
BRANCH   1   7
HETATM    7  C   UNL     1      40.251 -13.204   3.606  1.00  0.00     0.070 A 
HETATM    8  C   UNL     1      40.778 -14.387   3.072  1.00  0.00     0.040 A 
HETATM    9  C   UNL     1      42.040 -14.871   3.476  1.00  0.00    -0.048 A 
HETATM   10  C   UNL     1      42.737 -14.127   4.445  1.00  0.00     0.011 A 
HETATM   11  C   UNL     1      42.219 -12.944   4.982  1.00  0.00     0.039 A 
HETATM   12  C   UNL     1      40.987 -12.465   4.552  1.00  0.00     0.095 A 
BRANCH   9  13
HETATM   13  C   UNL     1      42.691 -16.095   2.797  1.00  0.00    -0.024 C 
HETATM   14  C   UNL     1      43.574 -16.804   3.844  1.00  0.00     0.019 C 
HETATM   15  C   UNL     1      43.574 -15.705   1.590  1.00  0.00     0.019 C 
HETATM   16  C   UNL     1      41.650 -17.109   2.271  1.00  0.00     0.019 C 
ENDBRANCH   9  13
BRANCH  12  17
HETATM   17  O   UNL     1      40.394 -11.299   4.976  1.00  0.00    -0.354 OA
HETATM   18  C   UNL     1      40.043 -11.215   6.354  1.00  0.00     0.210 C 
ENDBRANCH  12  17
ENDBRANCH   1   7
BRANCH   3  19
HETATM   19  C   UNL     1      38.963 -11.891  -0.451  1.00  0.00     0.166 C 
BRANCH  19  20
HETATM   20  C   UNL     1      38.667 -12.965  -1.480  1.00  0.00     0.003 A 
HETATM   21  C   UNL     1      37.841 -12.751  -2.601  1.00  0.00     0.106 A 
HETATM   22  N   UNL     1      37.670 -13.755  -3.475  1.00  0.00    -0.352 N 
HETATM   23  H   UNL     1      37.101 -13.555  -4.291  1.00  0.00     0.166 HD
HETATM   24  C   UNL     1      38.246 -14.955  -3.361  1.00  0.00     0.089 A 
HETATM   25  C   UNL     1      39.074 -15.224  -2.288  1.00  0.00     0.018 A 
HETATM   26  C   UNL     1      39.274 -14.228  -1.337  1.00  0.00     0.014 A 
BRANCH  21  27
HETATM   27  N   UNL     1      37.334 -11.532  -2.978  1.00  0.00    -0.385 N 
HETATM   28  H   UNL     1      37.840 -10.700  -2.639  1.00  0.00     0.157 HD
HETATM   29  H   UNL     1      36.344 -11.345  -3.037  1.00  0.00     0.157 HD
ENDBRANCH  21  27
ENDBRANCH  19  20
ENDBRANCH   3  19
TORSDOF 6
ENDMDL
MODEL 8
REMARK VINA RESULT:      -6.8      2.742      4.567
REMARK  6 active torsions:
REMARK  status: ('A' for Active; 'I' for Inactive)
REMARK    1  A    between atoms: C_2  and  C_3 
REMARK    2  A    between atoms: C_5  and  N_6 
REMARK       I    between atoms: N_6  and  C_7 
REMARK       I    between atoms: C_7  and  N_8 
REMARK    3  A    between atoms: N_8  and  C_9 
REMARK    4  A    between atoms: C_9  and  C_10 
REMARK    5  A    between atoms: C_11  and  N_12 
REMARK    6  A    between atoms: C_19  and  O_20 
ROOT
HETATM    1  N   UNL     1      43.882 -13.536   6.503  1.00  0.00    -0.306 N 
HETATM    2  C   UNL     1      44.150 -12.230   6.729  1.00  0.00     0.321 C 
HETATM    3  N   UNL     1      43.109 -11.410   7.036  1.00  0.00    -0.338 N 
HETATM    4  O   UNL     1      45.318 -11.855   6.812  1.00  0.00    -0.247 OA
HETATM    5  H   UNL     1      44.682 -14.143   6.650  1.00  0.00     0.171 HD
HETATM    6  H   UNL     1      42.216 -11.848   7.215  1.00  0.00     0.164 HD
ENDROOT
BRANCH   1   7
HETATM    7  C   UNL     1      42.754 -14.213   6.008  1.00  0.00     0.070 A 
HETATM    8  C   UNL     1      42.150 -13.906   4.781  1.00  0.00     0.040 A 
HETATM    9  C   UNL     1      41.097 -14.692   4.269  1.00  0.00    -0.048 A 
HETATM   10  C   UNL     1      40.670 -15.784   5.047  1.00  0.00     0.011 A 
HETATM   11  C   UNL     1      41.267 -16.098   6.271  1.00  0.00     0.039 A 
HETATM   12  C   UNL     1      42.324 -15.331   6.748  1.00  0.00     0.095 A 
BRANCH   9  13
HETATM   13  C   UNL     1      40.517 -14.448   2.860  1.00  0.00    -0.024 C 
HETATM   14  C   UNL     1      41.684 -14.065   1.926  1.00  0.00     0.019 C 
HETATM   15  C   UNL     1      39.472 -13.310   2.836  1.00  0.00     0.019 C 
HETATM   16  C   UNL     1      39.818 -15.698   2.278  1.00  0.00     0.019 C 
ENDBRANCH   9  13
BRANCH  12  17
HETATM   17  O   UNL     1      43.014 -15.564   7.914  1.00  0.00    -0.354 OA
HETATM   18  C   UNL     1      43.801 -16.749   7.975  1.00  0.00     0.210 C 
ENDBRANCH  12  17
ENDBRANCH   1   7
BRANCH   3  19
HETATM   19  C   UNL     1      43.309 -10.015   7.387  1.00  0.00     0.166 C 
BRANCH  19  20
HETATM   20  C   UNL     1      43.346  -9.755   8.881  1.00  0.00     0.003 A 
HETATM   21  C   UNL     1      42.191  -9.512   9.650  1.00  0.00     0.106 A 
HETATM   22  N   UNL     1      42.324  -9.329  10.973  1.00  0.00    -0.352 N 
HETATM   23  H   UNL     1      41.469  -9.196  11.501  1.00  0.00     0.166 HD
HETATM   24  C   UNL     1      43.491  -9.375  11.622  1.00  0.00     0.089 A 
HETATM   25  C   UNL     1      44.660  -9.619  10.925  1.00  0.00     0.018 A 
HETATM   26  C   UNL     1      44.586  -9.796   9.547  1.00  0.00     0.014 A 
BRANCH  21  27
HETATM   27  N   UNL     1      40.904  -9.627   9.185  1.00  0.00    -0.385 N 
HETATM   28  H   UNL     1      40.747 -10.312   8.432  1.00  0.00     0.157 HD
HETATM   29  H   UNL     1      40.288  -8.834   9.076  1.00  0.00     0.157 HD
ENDBRANCH  21  27
ENDBRANCH  19  20
ENDBRANCH   3  19
TORSDOF 6
ENDMDL
MODEL 9
REMARK VINA RESULT:      -6.8     16.736     19.328
REMARK  6 active torsions:
REMARK  status: ('A' for Active; 'I' for Inactive)
REMARK    1  A    between atoms: C_2  and  C_3 
REMARK    2  A    between atoms: C_5  and  N_6 
REMARK       I    between atoms: N_6  and  C_7 
REMARK       I    between atoms: C_7  and  N_8 
REMARK    3  A    between atoms: N_8  and  C_9 
REMARK    4  A    between atoms: C_9  and  C_10 
REMARK    5  A    between atoms: C_11  and  N_12 
REMARK    6  A    between atoms: C_19  and  O_20 
ROOT
HETATM    1  N   UNL     1      48.640 -28.705  -0.266  1.00  0.00    -0.306 N 
HETATM    2  C   UNL     1      47.441 -28.514  -0.862  1.00  0.00     0.321 C 
HETATM    3  N   UNL     1      46.517 -29.508  -0.769  1.00  0.00    -0.338 N 
HETATM    4  O   UNL     1      47.160 -27.409  -1.321  1.00  0.00    -0.247 OA
HETATM    5  H   UNL     1      49.123 -27.840  -0.045  1.00  0.00     0.171 HD
HETATM    6  H   UNL     1      46.728 -30.273  -0.142  1.00  0.00     0.164 HD
ENDROOT
BRANCH   1   7
HETATM    7  C   UNL     1      49.400 -29.853   0.017  1.00  0.00     0.070 A 
HETATM    8  C   UNL     1      50.181 -30.513  -0.941  1.00  0.00     0.040 A 
HETATM    9  C   UNL     1      51.021 -31.587  -0.584  1.00  0.00    -0.048 A 
HETATM   10  C   UNL     1      51.030 -31.977   0.768  1.00  0.00     0.011 A 
HETATM   11  C   UNL     1      50.255 -31.323   1.731  1.00  0.00     0.039 A 
HETATM   12  C   UNL     1      49.455 -30.247   1.367  1.00  0.00     0.095 A 
BRANCH   9  13
HETATM   13  C   UNL     1      51.987 -32.232  -1.600  1.00  0.00    -0.024 C 
HETATM   14  C   UNL     1      52.378 -31.155  -2.633  1.00  0.00     0.019 C 
HETATM   15  C   UNL     1      51.352 -33.425  -2.350  1.00  0.00     0.019 C 
HETATM   16  C   UNL     1      53.279 -32.765  -0.939  1.00  0.00     0.019 C 
ENDBRANCH   9  13
BRANCH  12  17
HETATM   17  O   UNL     1      48.681 -29.504   2.228  1.00  0.00    -0.354 OA
HETATM   18  C   UNL     1      49.260 -29.155   3.481  1.00  0.00     0.210 C 
ENDBRANCH  12  17
ENDBRANCH   1   7
BRANCH   3  19
HETATM   19  C   UNL     1      45.171 -29.357  -1.294  1.00  0.00     0.166 C 
BRANCH  19  20
HETATM   20  C   UNL     1      45.013 -29.831  -2.726  1.00  0.00     0.003 A 
HETATM   21  C   UNL     1      45.067 -28.964  -3.835  1.00  0.00     0.106 A 
HETATM   22  N   UNL     1      44.952 -29.485  -5.066  1.00  0.00    -0.352 N 
HETATM   23  H   UNL     1      45.034 -28.838  -5.843  1.00  0.00     0.166 HD
HETATM   24  C   UNL     1      44.801 -30.788  -5.317  1.00  0.00     0.089 A 
HETATM   25  C   UNL     1      44.751 -31.691  -4.272  1.00  0.00     0.018 A 
HETATM   26  C   UNL     1      44.843 -31.207  -2.971  1.00  0.00     0.014 A 
BRANCH  21  27
HETATM   27  N   UNL     1      45.412 -27.636  -3.773  1.00  0.00    -0.385 N 
HETATM   28  H   UNL     1      45.491 -27.140  -4.672  1.00  0.00     0.157 HD
HETATM   29  H   UNL     1      46.080 -27.273  -3.108  1.00  0.00     0.157 HD
ENDBRANCH  21  27
ENDBRANCH  19  20
ENDBRANCH   3  19
TORSDOF 6
ENDMDL
MODEL 10
REMARK VINA RESULT:      -6.8      2.655      4.244
REMARK  6 active torsions:
REMARK  status: ('A' for Active; 'I' for Inactive)
REMARK    1  A    between atoms: C_2  and  C_3 
REMARK    2  A    between atoms: C_5  and  N_6 
REMARK       I    between atoms: N_6  and  C_7 
REMARK       I    between atoms: C_7  and  N_8 
REMARK    3  A    between atoms: N_8  and  C_9 
REMARK    4  A    between atoms: C_9  and  C_10 
REMARK    5  A    between atoms: C_11  and  N_12 
REMARK    6  A    between atoms: C_19  and  O_20 
ROOT
HETATM    1  N   UNL     1      41.693 -13.913   6.286  1.00  0.00    -0.306 N 
HETATM    2  C   UNL     1      42.934 -13.689   6.774  1.00  0.00     0.321 C 
HETATM    3  N   UNL     1      43.617 -12.608   6.308  1.00  0.00    -0.338 N 
HETATM    4  O   UNL     1      43.343 -14.353   7.724  1.00  0.00    -0.247 OA
HETATM    5  H   UNL     1      41.111 -14.468   6.905  1.00  0.00     0.171 HD
HETATM    6  H   UNL     1      43.104 -11.956   5.729  1.00  0.00     0.164 HD
ENDROOT
BRANCH   1   7
HETATM    7  C   UNL     1      41.078 -13.624   5.055  1.00  0.00     0.070 A 
HETATM    8  C   UNL     1      41.316 -14.359   3.886  1.00  0.00     0.040 A 
HETATM    9  C   UNL     1      40.586 -14.110   2.706  1.00  0.00    -0.048 A 
HETATM   10  C   UNL     1      39.622 -13.086   2.748  1.00  0.00     0.011 A 
HETATM   11  C   UNL     1      39.377 -12.349   3.911  1.00  0.00     0.039 A 
HETATM   12  C   UNL     1      40.085 -12.626   5.074  1.00  0.00     0.095 A 
BRANCH   9  13
HETATM   13  C   UNL     1      40.741 -15.001   1.456  1.00  0.00    -0.024 C 
HETATM   14  C   UNL     1      39.796 -16.210   1.614  1.00  0.00     0.019 C 
HETATM   15  C   UNL     1      42.184 -15.524   1.272  1.00  0.00     0.019 C 
HETATM   16  C   UNL     1      40.371 -14.263   0.148  1.00  0.00     0.019 C 
ENDBRANCH   9  13
BRANCH  12  17
HETATM   17  O   UNL     1      39.907 -11.998   6.284  1.00  0.00    -0.354 OA
HETATM   18  C   UNL     1      38.715 -11.237   6.448  1.00  0.00     0.210 C 
ENDBRANCH  12  17
ENDBRANCH   1   7
BRANCH   3  19
HETATM   19  C   UNL     1      44.915 -12.232   6.840  1.00  0.00     0.166 C 
BRANCH  19  20
HETATM   20  C   UNL     1      44.939 -10.863   7.493  1.00  0.00     0.003 A 
HETATM   21  C   UNL     1      46.130 -10.159   7.761  1.00  0.00     0.106 A 
HETATM   22  N   UNL     1      46.045  -8.937   8.309  1.00  0.00    -0.352 N 
HETATM   23  H   UNL     1      46.919  -8.442   8.453  1.00  0.00     0.166 HD
HETATM   24  C   UNL     1      44.895  -8.328   8.609  1.00  0.00     0.089 A 
HETATM   25  C   UNL     1      43.693  -8.963   8.362  1.00  0.00     0.018 A 
HETATM   26  C   UNL     1      43.718 -10.242   7.814  1.00  0.00     0.014 A 
BRANCH  21  27
HETATM   27  N   UNL     1      47.378 -10.545   7.339  1.00  0.00    -0.385 N 
HETATM   28  H   UNL     1      47.622 -10.324   6.363  1.00  0.00     0.157 HD
HETATM   29  H   UNL     1      47.810 -11.412   7.624  1.00  0.00     0.157 HD
ENDBRANCH  21  27
ENDBRANCH  19  20
ENDBRANCH   3  19
TORSDOF 6
ENDMDL
