MODEL 1
REMARK VINA RESULT:      -8.3      0.000      0.000
REMARK  5 active torsions:
REMARK  status: ('A' for Active; 'I' for Inactive)
REMARK    1  A    between atoms: C_3  and  N_4 
REMARK    2  A    between atoms: N_4  and  C_5 
REMARK    3  A    between atoms: C_5  and  C_6 
REMARK    4  A    between atoms: C_8  and  N_9 
REMARK    5  A    between atoms: C_18  and  C_19 
ROOT
HETATM    1  C   UNL     1      42.485 -13.704   3.530  1.00  0.00     0.053 C 
HETATM    2  C   UNL     1      42.813 -15.170   3.610  1.00  0.00    -0.005 A 
HETATM    3  C   UNL     1      42.540 -15.996   2.360  1.00  0.00     0.151 A 
HETATM    4  N   UNL     1      42.828 -17.269   2.273  1.00  0.00    -0.146 NA
HETATM    5  N   UNL     1      43.370 -17.806   3.389  1.00  0.00    -0.187 N 
HETATM    6  C   UNL     1      43.646 -17.169   4.574  1.00  0.00     0.181 A 
HETATM    7  C   UNL     1      43.357 -15.781   4.690  1.00  0.00    -0.003 A 
HETATM    8  C   UNL     1      43.642 -15.027   5.969  1.00  0.00     0.053 C 
HETATM    9  C   UNL     1      43.744 -19.107   3.578  1.00  0.00     0.258 A 
HETATM   10  N   UNL     1      44.224 -19.254   4.802  1.00  0.00    -0.123 NA
HETATM   11  N   UNL     1      44.161 -18.032   5.426  1.00  0.00    -0.128 NA
ENDROOT
BRANCH   3  12
HETATM   12  N   UNL     1      41.972 -15.406   1.258  1.00  0.00    -0.366 N 
HETATM   13  H   UNL     1      42.494 -14.702   0.742  1.00  0.00     0.161 HD
BRANCH  12  14
HETATM   14  C   UNL     1      40.529 -15.220   1.113  1.00  0.00     0.201 C 
BRANCH  14  15
HETATM   15  C   UNL     1      40.188 -14.579  -0.223  1.00  0.00     0.144 A 
HETATM   16  N   UNL     1      39.362 -15.252  -1.051  1.00  0.00    -0.220 NA
HETATM   17  C   UNL     1      39.053 -14.661  -2.210  1.00  0.00     0.104 A 
HETATM   18  C   UNL     1      39.541 -13.426  -2.573  1.00  0.00     0.063 A 
HETATM   19  C   UNL     1      40.367 -12.810  -1.664  1.00  0.00     0.122 A 
HETATM   20  N   UNL     1      40.706 -13.355  -0.482  1.00  0.00    -0.244 NA
BRANCH  17  21
HETATM   21  N   UNL     1      38.233 -15.379  -3.076  1.00  0.00    -0.287 NA
HETATM   22  H   UNL     1      37.288 -15.014  -2.979  1.00  0.00     0.125 HD
HETATM   23  H   UNL     1      38.555 -15.332  -4.036  1.00  0.00     0.125 HD
ENDBRANCH  17  21
ENDBRANCH  14  15
ENDBRANCH  12  14
ENDBRANCH   3  12
BRANCH   9  24
HETATM   24  C   UNL     1      43.588 -20.106   2.514  1.00  0.00     0.454 C 
HETATM   25  F   UNL     1      42.326 -20.138   2.004  1.00  0.00    -0.163 F 
HETATM   26  F   UNL     1      44.428 -19.887   1.466  1.00  0.00    -0.163 F 
HETATM   27  F   UNL     1      43.847 -21.371   2.946  1.00  0.00    -0.163 F 
ENDBRANCH   9  24
TORSDOF 5
ENDMDL
MODEL 2
REMARK VINA RESULT:      -8.1      1.970      2.404
REMARK  5 active torsions:
REMARK  status: ('A' for Active; 'I' for Inactive)
REMARK    1  A    between atoms: C_3  and  N_4 
REMARK    2  A    between atoms: N_4  and  C_5 
REMARK    3  A    between atoms: C_5  and  C_6 
REMARK    4  A    between atoms: C_8  and  N_9 
REMARK    5  A    between atoms: C_18  and  C_19 
ROOT
HETATM    1  C   UNL     1      39.296 -12.669   3.531  1.00  0.00     0.053 C 
HETATM    2  C   UNL     1      40.256 -13.824   3.608  1.00  0.00    -0.005 A 
HETATM    3  C   UNL     1      40.440 -14.640   2.335  1.00  0.00     0.151 A 
HETATM    4  N   UNL     1      41.283 -15.636   2.245  1.00  0.00    -0.146 NA
HETATM    5  N   UNL     1      41.967 -15.904   3.379  1.00  0.00    -0.187 N 
HETATM    6  C   UNL     1      41.876 -15.253   4.586  1.00  0.00     0.181 A 
HETATM    7  C   UNL     1      40.978 -14.156   4.705  1.00  0.00    -0.003 A 
HETATM    8  C   UNL     1      40.838 -13.400   6.006  1.00  0.00     0.053 C 
HETATM    9  C   UNL     1      42.889 -16.896   3.570  1.00  0.00     0.258 A 
HETATM   10  N   UNL     1      43.336 -16.850   4.813  1.00  0.00    -0.123 NA
HETATM   11  N   UNL     1      42.696 -15.814   5.450  1.00  0.00    -0.128 NA
ENDROOT
BRANCH   3  12
HETATM   12  N   UNL     1      39.707 -14.337   1.214  1.00  0.00    -0.366 N 
HETATM   13  H   UNL     1      38.696 -14.454   1.231  1.00  0.00     0.161 HD
BRANCH  12  14
HETATM   14  C   UNL     1      40.241 -14.460  -0.141  1.00  0.00     0.201 C 
BRANCH  14  15
HETATM   15  C   UNL     1      39.244 -13.957  -1.174  1.00  0.00     0.144 A 
HETATM   16  N   UNL     1      39.101 -14.670  -2.310  1.00  0.00    -0.220 NA
HETATM   17  C   UNL     1      38.202 -14.227  -3.194  1.00  0.00     0.104 A 
HETATM   18  C   UNL     1      37.443 -13.097  -2.986  1.00  0.00     0.063 A 
HETATM   19  C   UNL     1      37.648 -12.441  -1.797  1.00  0.00     0.122 A 
HETATM   20  N   UNL     1      38.534 -12.844  -0.870  1.00  0.00    -0.244 NA
BRANCH  17  21
HETATM   21  N   UNL     1      38.090 -14.945  -4.382  1.00  0.00    -0.287 NA
HETATM   22  H   UNL     1      38.038 -14.273  -5.144  1.00  0.00     0.125 HD
HETATM   23  H   UNL     1      38.855 -15.596  -4.509  1.00  0.00     0.125 HD
ENDBRANCH  17  21
ENDBRANCH  14  15
ENDBRANCH  12  14
ENDBRANCH   3  12
BRANCH   9  24
HETATM   24  C   UNL     1      43.249 -17.818   2.486  1.00  0.00     0.454 C 
HETATM   25  F   UNL     1      42.238 -18.672   2.164  1.00  0.00    -0.163 F 
HETATM   26  F   UNL     1      43.591 -17.168   1.340  1.00  0.00    -0.163 F 
HETATM   27  F   UNL     1      44.313 -18.605   2.805  1.00  0.00    -0.163 F 
ENDBRANCH   9  24
TORSDOF 5
ENDMDL
MODEL 3
REMARK VINA RESULT:      -7.9      1.636      1.776
REMARK  5 active torsions:
REMARK  status: ('A' for Active; 'I' for Inactive)
REMARK    1  A    between atoms: C_3  and  N_4 
REMARK    2  A    between atoms: N_4  and  C_5 
REMARK    3  A    between atoms: C_5  and  C_6 
REMARK    4  A    between atoms: C_8  and  N_9 
REMARK    5  A    between atoms: C_18  and  C_19 
ROOT
HETATM    1  C   UNL     1      40.427 -14.223   5.896  1.00  0.00     0.053 C 
HETATM    2  C   UNL     1      41.253 -15.364   5.369  1.00  0.00    -0.005 A 
HETATM    3  C   UNL     1      41.019 -15.759   3.917  1.00  0.00     0.151 A 
HETATM    4  N   UNL     1      41.705 -16.696   3.316  1.00  0.00    -0.146 NA
HETATM    5  N   UNL     1      42.629 -17.307   4.089  1.00  0.00    -0.187 N 
HETATM    6  C   UNL     1      42.920 -17.050   5.407  1.00  0.00     0.181 A 
HETATM    7  C   UNL     1      42.198 -16.025   6.080  1.00  0.00    -0.003 A 
HETATM    8  C   UNL     1      42.477 -15.697   7.529  1.00  0.00     0.053 C 
HETATM    9  C   UNL     1      43.464 -18.326   3.724  1.00  0.00     0.258 A 
HETATM   10  N   UNL     1      44.221 -18.667   4.753  1.00  0.00    -0.123 NA
HETATM   11  N   UNL     1      43.876 -17.862   5.812  1.00  0.00    -0.128 NA
ENDROOT
BRANCH   3  12
HETATM   12  N   UNL     1      40.054 -15.118   3.180  1.00  0.00    -0.366 N 
HETATM   13  H   UNL     1      39.274 -14.672   3.656  1.00  0.00     0.161 HD
BRANCH  12  14
HETATM   14  C   UNL     1      39.696 -15.520   1.821  1.00  0.00     0.201 C 
BRANCH  14  15
HETATM   15  C   UNL     1      40.089 -14.454   0.809  1.00  0.00     0.144 A 
HETATM   16  N   UNL     1      39.904 -14.728  -0.498  1.00  0.00    -0.220 NA
HETATM   17  C   UNL     1      40.231 -13.769  -1.371  1.00  0.00     0.104 A 
HETATM   18  C   UNL     1      40.738 -12.549  -0.985  1.00  0.00     0.063 A 
HETATM   19  C   UNL     1      40.883 -12.354   0.368  1.00  0.00     0.122 A 
HETATM   20  N   UNL     1      40.565 -13.280   1.289  1.00  0.00    -0.244 NA
BRANCH  17  21
HETATM   21  N   UNL     1      40.076 -14.075  -2.720  1.00  0.00    -0.287 NA
HETATM   22  H   UNL     1      40.946 -14.490  -3.044  1.00  0.00     0.125 HD
HETATM   23  H   UNL     1      39.285 -14.687  -2.885  1.00  0.00     0.125 HD
ENDBRANCH  17  21
ENDBRANCH  14  15
ENDBRANCH  12  14
ENDBRANCH   3  12
BRANCH   9  24
HETATM   24  C   UNL     1      43.437 -18.883   2.366  1.00  0.00     0.454 C 
HETATM   25  F   UNL     1      42.268 -19.522   2.083  1.00  0.00    -0.163 F 
HETATM   26  F   UNL     1      43.603 -17.930   1.408  1.00  0.00    -0.163 F 
HETATM   27  F   UNL     1      44.421 -19.800   2.160  1.00  0.00    -0.163 F 
ENDBRANCH   9  24
TORSDOF 5
ENDMDL
MODEL 4
REMARK VINA RESULT:      -7.8      1.250      2.201
REMARK  5 active torsions:
REMARK  status: ('A' for Active; 'I' for Inactive)
REMARK    1  A    between atoms: C_3  and  N_4 
REMARK    2  A    between atoms: N_4  and  C_5 
REMARK    3  A    between atoms: C_5  and  C_6 
REMARK    4  A    between atoms: C_8  and  N_9 
REMARK    5  A    between atoms: C_18  and  C_19 
ROOT
HETATM    1  C   UNL     1      42.890 -13.691   3.818  1.00  0.00     0.053 C 
HETATM    2  C   UNL     1      43.096 -15.181   3.845  1.00  0.00    -0.005 A 
HETATM    3  C   UNL     1      42.917 -15.915   2.523  1.00  0.00     0.151 A 
HETATM    4  N   UNL     1      43.118 -17.201   2.391  1.00  0.00    -0.146 NA
HETATM    5  N   UNL     1      43.478 -17.838   3.527  1.00  0.00    -0.187 N 
HETATM    6  C   UNL     1      43.654 -17.289   4.774  1.00  0.00     0.181 A 
HETATM    7  C   UNL     1      43.457 -15.890   4.941  1.00  0.00    -0.003 A 
HETATM    8  C   UNL     1      43.640 -15.231   6.288  1.00  0.00     0.053 C 
HETATM    9  C   UNL     1      43.727 -19.174   3.678  1.00  0.00     0.258 A 
HETATM   10  N   UNL     1      44.043 -19.424   4.938  1.00  0.00    -0.123 NA
HETATM   11  N   UNL     1      43.996 -18.235   5.626  1.00  0.00    -0.128 NA
ENDROOT
BRANCH   3  12
HETATM   12  N   UNL     1      42.533 -15.223   1.400  1.00  0.00    -0.366 N 
HETATM   13  H   UNL     1      43.091 -14.435   1.083  1.00  0.00     0.161 HD
BRANCH  12  14
HETATM   14  C   UNL     1      41.137 -15.096   0.986  1.00  0.00     0.201 C 
BRANCH  14  15
HETATM   15  C   UNL     1      40.812 -13.668   0.574  1.00  0.00     0.144 A 
HETATM   16  N   UNL     1      41.543 -12.674   1.120  1.00  0.00    -0.220 NA
HETATM   17  C   UNL     1      41.261 -11.428   0.726  1.00  0.00     0.104 A 
HETATM   18  C   UNL     1      40.274 -11.139  -0.189  1.00  0.00     0.063 A 
HETATM   19  C   UNL     1      39.588 -12.214  -0.700  1.00  0.00     0.122 A 
HETATM   20  N   UNL     1      39.834 -13.488  -0.344  1.00  0.00    -0.244 NA
BRANCH  17  21
HETATM   21  N   UNL     1      41.992 -10.405   1.323  1.00  0.00    -0.287 NA
HETATM   22  H   UNL     1      42.354 -10.760   2.206  1.00  0.00     0.125 HD
HETATM   23  H   UNL     1      42.736 -10.066   0.724  1.00  0.00     0.125 HD
ENDBRANCH  17  21
ENDBRANCH  14  15
ENDBRANCH  12  14
ENDBRANCH   3  12
BRANCH   9  24
HETATM   24  C   UNL     1      43.629 -20.099   2.543  1.00  0.00     0.454 C 
HETATM   25  F   UNL     1      42.388 -20.114   1.984  1.00  0.00    -0.163 F 
HETATM   26  F   UNL     1      44.504 -19.797   1.546  1.00  0.00    -0.163 F 
HETATM   27  F   UNL     1      43.893 -21.387   2.898  1.00  0.00    -0.163 F 
ENDBRANCH   9  24
TORSDOF 5
ENDMDL
MODEL 5
REMARK VINA RESULT:      -7.7      4.395      7.269
REMARK  5 active torsions:
REMARK  status: ('A' for Active; 'I' for Inactive)
REMARK    1  A    between atoms: C_3  and  N_4 
REMARK    2  A    between atoms: N_4  and  C_5 
REMARK    3  A    between atoms: C_5  and  C_6 
REMARK    4  A    between atoms: C_8  and  N_9 
REMARK    5  A    between atoms: C_18  and  C_19 
ROOT
HETATM    1  C   UNL     1      40.457 -15.451   2.042  1.00  0.00     0.053 C 
HETATM    2  C   UNL     1      40.948 -14.568   3.156  1.00  0.00    -0.005 A 
HETATM    3  C   UNL     1      42.168 -15.058   3.924  1.00  0.00     0.151 A 
HETATM    4  N   UNL     1      42.732 -14.366   4.880  1.00  0.00    -0.146 NA
HETATM    5  N   UNL     1      42.135 -13.185   5.153  1.00  0.00    -0.187 N 
HETATM    6  C   UNL     1      41.027 -12.646   4.543  1.00  0.00     0.181 A 
HETATM    7  C   UNL     1      40.405 -13.372   3.490  1.00  0.00    -0.003 A 
HETATM    8  C   UNL     1      39.186 -12.829   2.781  1.00  0.00     0.053 C 
HETATM    9  C   UNL     1      42.500 -12.279   6.109  1.00  0.00     0.258 A 
HETATM   10  N   UNL     1      41.670 -11.249   6.082  1.00  0.00    -0.123 NA
HETATM   11  N   UNL     1      40.744 -11.484   5.094  1.00  0.00    -0.128 NA
ENDROOT
BRANCH   3  12
HETATM   12  N   UNL     1      42.727 -16.275   3.619  1.00  0.00    -0.366 N 
HETATM   13  H   UNL     1      42.170 -16.975   3.136  1.00  0.00     0.161 HD
BRANCH  12  14
HETATM   14  C   UNL     1      43.780 -16.889   4.426  1.00  0.00     0.201 C 
BRANCH  14  15
HETATM   15  C   UNL     1      43.815 -18.397   4.230  1.00  0.00     0.144 A 
HETATM   16  N   UNL     1      43.665 -18.873   2.977  1.00  0.00    -0.220 NA
HETATM   17  C   UNL     1      43.725 -20.199   2.821  1.00  0.00     0.104 A 
HETATM   18  C   UNL     1      43.926 -21.067   3.871  1.00  0.00     0.063 A 
HETATM   19  C   UNL     1      44.079 -20.492   5.110  1.00  0.00     0.122 A 
HETATM   20  N   UNL     1      44.033 -19.166   5.324  1.00  0.00    -0.244 NA
BRANCH  17  21
HETATM   21  N   UNL     1      43.529 -20.685   1.532  1.00  0.00    -0.287 NA
HETATM   22  H   UNL     1      43.107 -21.608   1.610  1.00  0.00     0.125 HD
HETATM   23  H   UNL     1      42.961 -20.061   0.970  1.00  0.00     0.125 HD
ENDBRANCH  17  21
ENDBRANCH  14  15
ENDBRANCH  12  14
ENDBRANCH   3  12
BRANCH   9  24
HETATM   24  C   UNL     1      43.656 -12.518   6.982  1.00  0.00     0.454 C 
HETATM   25  F   UNL     1      44.833 -12.548   6.298  1.00  0.00    -0.163 F 
HETATM   26  F   UNL     1      43.788 -11.567   7.946  1.00  0.00    -0.163 F 
HETATM   27  F   UNL     1      43.575 -13.709   7.636  1.00  0.00    -0.163 F 
ENDBRANCH   9  24
TORSDOF 5
ENDMDL
MODEL 6
REMARK VINA RESULT:      -7.6      2.923      3.897
REMARK  5 active torsions:
REMARK  status: ('A' for Active; 'I' for Inactive)
REMARK    1  A    between atoms: C_3  and  N_4 
REMARK    2  A    between atoms: N_4  and  C_5 
REMARK    3  A    between atoms: C_5  and  C_6 
REMARK    4  A    between atoms: C_8  and  N_9 
REMARK    5  A    between atoms: C_18  and  C_19 
ROOT
HETATM    1  C   UNL     1      40.368 -14.329   6.294  1.00  0.00     0.053 C 
HETATM    2  C   UNL     1      41.236 -15.386   5.670  1.00  0.00    -0.005 A 
HETATM    3  C   UNL     1      40.914 -15.768   4.231  1.00  0.00     0.151 A 
HETATM    4  N   UNL     1      41.620 -16.633   3.550  1.00  0.00    -0.146 NA
HETATM    5  N   UNL     1      42.652 -17.182   4.228  1.00  0.00    -0.187 N 
HETATM    6  C   UNL     1      43.030 -16.930   5.525  1.00  0.00     0.181 A 
HETATM    7  C   UNL     1      42.287 -15.982   6.283  1.00  0.00    -0.003 A 
HETATM    8  C   UNL     1      42.657 -15.663   7.713  1.00  0.00     0.053 C 
HETATM    9  C   UNL     1      43.533 -18.120   3.768  1.00  0.00     0.258 A 
HETATM   10  N   UNL     1      44.398 -18.419   4.722  1.00  0.00    -0.123 NA
HETATM   11  N   UNL     1      44.078 -17.668   5.828  1.00  0.00    -0.128 NA
ENDROOT
BRANCH   3  12
HETATM   12  N   UNL     1      39.842 -15.193   3.593  1.00  0.00    -0.366 N 
HETATM   13  H   UNL     1      38.958 -15.693   3.550  1.00  0.00     0.161 HD
BRANCH  12  14
HETATM   14  C   UNL     1      39.991 -14.264   2.474  1.00  0.00     0.201 C 
BRANCH  14  15
HETATM   15  C   UNL     1      40.351 -12.869   2.961  1.00  0.00     0.144 A 
HETATM   16  N   UNL     1      41.634 -12.469   2.832  1.00  0.00    -0.220 NA
HETATM   17  C   UNL     1      41.926 -11.231   3.241  1.00  0.00     0.104 A 
HETATM   18  C   UNL     1      40.986 -10.379   3.776  1.00  0.00     0.063 A 
HETATM   19  C   UNL     1      39.705 -10.867   3.859  1.00  0.00     0.122 A 
HETATM   20  N   UNL     1      39.353 -12.101   3.458  1.00  0.00    -0.244 NA
BRANCH  17  21
HETATM   21  N   UNL     1      43.259 -10.841   3.143  1.00  0.00    -0.287 NA
HETATM   22  H   UNL     1      43.579 -10.598   4.078  1.00  0.00     0.125 HD
HETATM   23  H   UNL     1      43.838 -11.559   2.724  1.00  0.00     0.125 HD
ENDBRANCH  17  21
ENDBRANCH  14  15
ENDBRANCH  12  14
ENDBRANCH   3  12
BRANCH   9  24
HETATM   24  C   UNL     1      43.437 -18.648   2.401  1.00  0.00     0.454 C 
HETATM   25  F   UNL     1      44.421 -19.544   2.113  1.00  0.00    -0.163 F 
HETATM   26  F   UNL     1      42.254 -19.279   2.167  1.00  0.00    -0.163 F 
HETATM   27  F   UNL     1      43.536 -17.671   1.459  1.00  0.00    -0.163 F 
ENDBRANCH   9  24
TORSDOF 5
ENDMDL
MODEL 7
REMARK VINA RESULT:      -7.6      5.135      8.316
REMARK  5 active torsions:
REMARK  status: ('A' for Active; 'I' for Inactive)
REMARK    1  A    between atoms: C_3  and  N_4 
REMARK    2  A    between atoms: N_4  and  C_5 
REMARK    3  A    between atoms: C_5  and  C_6 
REMARK    4  A    between atoms: C_8  and  N_9 
REMARK    5  A    between atoms: C_18  and  C_19 
ROOT
HETATM    1  C   UNL     1      44.976 -16.096   6.417  1.00  0.00     0.053 C 
HETATM    2  C   UNL     1      43.738 -15.698   5.662  1.00  0.00    -0.005 A 
HETATM    3  C   UNL     1      43.220 -14.286   5.901  1.00  0.00     0.151 A 
HETATM    4  N   UNL     1      42.186 -13.792   5.270  1.00  0.00    -0.146 NA
HETATM    5  N   UNL     1      41.594 -14.640   4.401  1.00  0.00    -0.187 N 
HETATM    6  C   UNL     1      41.958 -15.933   4.114  1.00  0.00     0.181 A 
HETATM    7  C   UNL     1      43.088 -16.489   4.774  1.00  0.00    -0.003 A 
HETATM    8  C   UNL     1      43.536 -17.906   4.497  1.00  0.00     0.053 C 
HETATM    9  C   UNL     1      40.492 -14.392   3.631  1.00  0.00     0.258 A 
HETATM   10  N   UNL     1      40.203 -15.465   2.914  1.00  0.00    -0.123 NA
HETATM   11  N   UNL     1      41.129 -16.434   3.221  1.00  0.00    -0.128 NA
ENDROOT
BRANCH   3  12
HETATM   12  N   UNL     1      43.849 -13.470   6.809  1.00  0.00    -0.366 N 
HETATM   13  H   UNL     1      43.461 -13.368   7.743  1.00  0.00     0.161 HD
BRANCH  12  14
HETATM   14  C   UNL     1      44.621 -12.293   6.416  1.00  0.00     0.201 C 
BRANCH  14  15
HETATM   15  C   UNL     1      44.767 -11.318   7.574  1.00  0.00     0.144 A 
HETATM   16  N   UNL     1      43.957 -11.481   8.641  1.00  0.00    -0.220 NA
HETATM   17  C   UNL     1      44.118 -10.631   9.660  1.00  0.00     0.104 A 
HETATM   18  C   UNL     1      45.055  -9.623   9.651  1.00  0.00     0.063 A 
HETATM   19  C   UNL     1      45.842  -9.538   8.528  1.00  0.00     0.122 A 
HETATM   20  N   UNL     1      45.729 -10.369   7.477  1.00  0.00    -0.244 NA
BRANCH  17  21
HETATM   21  N   UNL     1      43.251 -10.781  10.739  1.00  0.00    -0.287 NA
HETATM   22  H   UNL     1      42.398 -10.270  10.523  1.00  0.00     0.125 HD
HETATM   23  H   UNL     1      43.061 -11.755  10.945  1.00  0.00     0.125 HD
ENDBRANCH  17  21
ENDBRANCH  14  15
ENDBRANCH  12  14
ENDBRANCH   3  12
BRANCH   9  24
HETATM   24  C   UNL     1      39.809 -13.093   3.675  1.00  0.00     0.454 C 
HETATM   25  F   UNL     1      40.612 -12.064   3.290  1.00  0.00    -0.163 F 
HETATM   26  F   UNL     1      38.710 -13.053   2.873  1.00  0.00    -0.163 F 
HETATM   27  F   UNL     1      39.373 -12.777   4.926  1.00  0.00    -0.163 F 
ENDBRANCH   9  24
TORSDOF 5
ENDMDL
MODEL 8
REMARK VINA RESULT:      -7.5      3.468      4.382
REMARK  5 active torsions:
REMARK  status: ('A' for Active; 'I' for Inactive)
REMARK    1  A    between atoms: C_3  and  N_4 
REMARK    2  A    between atoms: N_4  and  C_5 
REMARK    3  A    between atoms: C_5  and  C_6 
REMARK    4  A    between atoms: C_8  and  N_9 
REMARK    5  A    between atoms: C_18  and  C_19 
ROOT
HETATM    1  C   UNL     1      42.826 -18.365   2.271  1.00  0.00     0.053 C 
HETATM    2  C   UNL     1      42.896 -17.186   3.202  1.00  0.00    -0.005 A 
HETATM    3  C   UNL     1      42.169 -15.924   2.757  1.00  0.00     0.151 A 
HETATM    4  N   UNL     1      42.102 -14.845   3.493  1.00  0.00    -0.146 NA
HETATM    5  N   UNL     1      42.749 -14.925   4.677  1.00  0.00    -0.187 N 
HETATM    6  C   UNL     1      43.449 -15.997   5.178  1.00  0.00     0.181 A 
HETATM    7  C   UNL     1      43.523 -17.188   4.403  1.00  0.00    -0.003 A 
HETATM    8  C   UNL     1      44.275 -18.399   4.904  1.00  0.00     0.053 C 
HETATM    9  C   UNL     1      42.858 -13.945   5.624  1.00  0.00     0.258 A 
HETATM   10  N   UNL     1      43.574 -14.392   6.642  1.00  0.00    -0.123 NA
HETATM   11  N   UNL     1      43.944 -15.685   6.358  1.00  0.00    -0.128 NA
ENDROOT
BRANCH   3  12
HETATM   12  N   UNL     1      41.541 -15.889   1.536  1.00  0.00    -0.366 N 
HETATM   13  H   UNL     1      42.099 -15.904   0.686  1.00  0.00     0.161 HD
BRANCH  12  14
HETATM   14  C   UNL     1      40.255 -15.228   1.324  1.00  0.00     0.201 C 
BRANCH  14  15
HETATM   15  C   UNL     1      40.315 -14.272   0.142  1.00  0.00     0.144 A 
HETATM   16  N   UNL     1      39.717 -14.653  -1.006  1.00  0.00    -0.220 NA
HETATM   17  C   UNL     1      39.758 -13.789  -2.026  1.00  0.00     0.104 A 
HETATM   18  C   UNL     1      40.376 -12.562  -1.941  1.00  0.00     0.063 A 
HETATM   19  C   UNL     1      40.949 -12.255  -0.731  1.00  0.00     0.122 A 
HETATM   20  N   UNL     1      40.933 -13.082   0.329  1.00  0.00    -0.244 NA
BRANCH  17  21
HETATM   21  N   UNL     1      39.174 -14.205  -3.219  1.00  0.00    -0.287 NA
HETATM   22  H   UNL     1      39.268 -15.217  -3.271  1.00  0.00     0.125 HD
HETATM   23  H   UNL     1      38.206 -13.915  -3.293  1.00  0.00     0.125 HD
ENDBRANCH  17  21
ENDBRANCH  14  15
ENDBRANCH  12  14
ENDBRANCH   3  12
BRANCH   9  24
HETATM   24  C   UNL     1      42.234 -12.630   5.433  1.00  0.00     0.454 C 
HETATM   25  F   UNL     1      42.677 -11.996   4.312  1.00  0.00    -0.163 F 
HETATM   26  F   UNL     1      40.879 -12.705   5.330  1.00  0.00    -0.163 F 
HETATM   27  F   UNL     1      42.486 -11.780   6.466  1.00  0.00    -0.163 F 
ENDBRANCH   9  24
TORSDOF 5
ENDMDL
MODEL 9
REMARK VINA RESULT:      -7.5      4.362      7.396
REMARK  5 active torsions:
REMARK  status: ('A' for Active; 'I' for Inactive)
REMARK    1  A    between atoms: C_3  and  N_4 
REMARK    2  A    between atoms: N_4  and  C_5 
REMARK    3  A    between atoms: C_5  and  C_6 
REMARK    4  A    between atoms: C_8  and  N_9 
REMARK    5  A    between atoms: C_18  and  C_19 
ROOT
HETATM    1  C   UNL     1      40.796 -11.968   4.910  1.00  0.00     0.053 C 
HETATM    2  C   UNL     1      41.336 -13.333   4.585  1.00  0.00    -0.005 A 
HETATM    3  C   UNL     1      42.430 -13.866   5.501  1.00  0.00     0.151 A 
HETATM    4  N   UNL     1      42.950 -15.059   5.367  1.00  0.00    -0.146 NA
HETATM    5  N   UNL     1      42.457 -15.780   4.337  1.00  0.00    -0.187 N 
HETATM    6  C   UNL     1      41.487 -15.403   3.439  1.00  0.00     0.181 A 
HETATM    7  C   UNL     1      40.894 -14.117   3.572  1.00  0.00    -0.003 A 
HETATM    8  C   UNL     1      39.821 -13.649   2.617  1.00  0.00     0.053 C 
HETATM    9  C   UNL     1      42.833 -17.039   3.959  1.00  0.00     0.258 A 
HETATM   10  N   UNL     1      42.133 -17.410   2.900  1.00  0.00    -0.123 NA
HETATM   11  N   UNL     1      41.286 -16.377   2.575  1.00  0.00    -0.128 NA
ENDROOT
BRANCH   3  12
HETATM   12  N   UNL     1      42.909 -13.085   6.524  1.00  0.00    -0.366 N 
HETATM   13  H   UNL     1      42.386 -12.261   6.811  1.00  0.00     0.161 HD
BRANCH  12  14
HETATM   14  C   UNL     1      44.334 -12.948   6.817  1.00  0.00     0.201 C 
BRANCH  14  15
HETATM   15  C   UNL     1      44.614 -11.682   7.613  1.00  0.00     0.144 A 
HETATM   16  N   UNL     1      45.640 -10.902   7.216  1.00  0.00    -0.220 NA
HETATM   17  C   UNL     1      45.854  -9.781   7.912  1.00  0.00     0.104 A 
HETATM   18  C   UNL     1      45.083  -9.413   8.991  1.00  0.00     0.063 A 
HETATM   19  C   UNL     1      44.053 -10.262   9.317  1.00  0.00     0.122 A 
HETATM   20  N   UNL     1      43.789 -11.399   8.649  1.00  0.00    -0.244 NA
BRANCH  17  21
HETATM   21  N   UNL     1      46.939  -9.002   7.521  1.00  0.00    -0.287 NA
HETATM   22  H   UNL     1      47.665  -9.109   8.226  1.00  0.00     0.125 HD
HETATM   23  H   UNL     1      47.276  -9.250   6.598  1.00  0.00     0.125 HD
ENDBRANCH  17  21
ENDBRANCH  14  15
ENDBRANCH  12  14
ENDBRANCH   3  12
BRANCH   9  24
HETATM   24  C   UNL     1      43.872 -17.775   4.691  1.00  0.00     0.454 C 
HETATM   25  F   UNL     1      44.423 -18.779   3.955  1.00  0.00    -0.163 F 
HETATM   26  F   UNL     1      44.897 -16.973   5.088  1.00  0.00    -0.163 F 
HETATM   27  F   UNL     1      43.393 -18.362   5.822  1.00  0.00    -0.163 F 
ENDBRANCH   9  24
TORSDOF 5
ENDMDL
MODEL 10
REMARK VINA RESULT:      -7.4      3.905      4.788
REMARK  5 active torsions:
REMARK  status: ('A' for Active; 'I' for Inactive)
REMARK    1  A    between atoms: C_3  and  N_4 
REMARK    2  A    between atoms: N_4  and  C_5 
REMARK    3  A    between atoms: C_5  and  C_6 
REMARK    4  A    between atoms: C_8  and  N_9 
REMARK    5  A    between atoms: C_18  and  C_19 
ROOT
HETATM    1  C   UNL     1      42.455 -17.603   2.242  1.00  0.00     0.053 C 
HETATM    2  C   UNL     1      42.610 -16.277   2.936  1.00  0.00    -0.005 A 
HETATM    3  C   UNL     1      42.163 -15.047   2.158  1.00  0.00     0.151 A 
HETATM    4  N   UNL     1      42.192 -13.839   2.659  1.00  0.00    -0.146 NA
HETATM    5  N   UNL     1      42.670 -13.761   3.921  1.00  0.00    -0.187 N 
HETATM    6  C   UNL     1      43.115 -14.792   4.713  1.00  0.00     0.181 A 
HETATM    7  C   UNL     1      43.080 -16.117   4.196  1.00  0.00    -0.003 A 
HETATM    8  C   UNL     1      43.554 -17.290   5.022  1.00  0.00     0.053 C 
HETATM    9  C   UNL     1      42.828 -12.630   4.672  1.00  0.00     0.258 A 
HETATM   10  N   UNL     1      43.333 -12.951   5.852  1.00  0.00    -0.123 NA
HETATM   11  N   UNL     1      43.512 -14.313   5.874  1.00  0.00    -0.128 NA
ENDROOT
BRANCH   3  12
HETATM   12  N   UNL     1      41.700 -15.179   0.871  1.00  0.00    -0.366 N 
HETATM   13  H   UNL     1      42.318 -14.964   0.092  1.00  0.00     0.161 HD
BRANCH  12  14
HETATM   14  C   UNL     1      40.296 -14.997   0.510  1.00  0.00     0.201 C 
BRANCH  14  15
HETATM   15  C   UNL     1      40.153 -14.112  -0.718  1.00  0.00     0.144 A 
HETATM   16  N   UNL     1      39.389 -14.564  -1.734  1.00  0.00    -0.220 NA
HETATM   17  C   UNL     1      39.254 -13.760  -2.794  1.00  0.00     0.104 A 
HETATM   18  C   UNL     1      39.855 -12.525  -2.877  1.00  0.00     0.063 A 
HETATM   19  C   UNL     1      40.606 -12.143  -1.791  1.00  0.00     0.122 A 
HETATM   20  N   UNL     1      40.771 -12.907  -0.697  1.00  0.00    -0.244 NA
BRANCH  17  21
HETATM   21  N   UNL     1      38.498 -14.250  -3.855  1.00  0.00    -0.287 NA
HETATM   22  H   UNL     1      38.438 -15.261  -3.750  1.00  0.00     0.125 HD
HETATM   23  H   UNL     1      37.579 -13.825  -3.900  1.00  0.00     0.125 HD
ENDBRANCH  17  21
ENDBRANCH  14  15
ENDBRANCH  12  14
ENDBRANCH   3  12
BRANCH   9  24
HETATM   24  C   UNL     1      42.461 -11.309   4.146  1.00  0.00     0.454 C 
HETATM   25  F   UNL     1      42.681 -10.307   5.041  1.00  0.00    -0.163 F 
HETATM   26  F   UNL     1      43.152 -10.986   3.020  1.00  0.00    -0.163 F 
HETATM   27  F   UNL     1      41.143 -11.230   3.815  1.00  0.00    -0.163 F 
ENDBRANCH   9  24
TORSDOF 5
ENDMDL
