MODEL 1
REMARK VINA RESULT:      -8.3      0.000      0.000
REMARK  6 active torsions:
REMARK  status: ('A' for Active; 'I' for Inactive)
REMARK    1  A    between atoms: N_2  and  C_4 
REMARK    2  A    between atoms: N_2  and  C_14 
REMARK    3  A    between atoms: C_5  and  O_6 
REMARK    4  A    between atoms: C_14  and  C_15 
REMARK    5  A    between atoms: C_15  and  O_16 
REMARK    6  A    between atoms: C_15  and  C_17 
ROOT
HETATM    1  C   UNL     1      40.742 -16.341   4.339  1.00  0.00     0.270 C 
HETATM    2  N   UNL     1      41.711 -16.447   5.486  1.00  0.00    -0.065 N 
HETATM    3  H   UNL     1      41.503 -17.372   5.915  1.00  0.00     0.280 HD
ENDROOT
BRANCH   2   4
HETATM    4  C   UNL     1      43.212 -16.559   5.120  1.00  0.00     0.225 C 
HETATM    5  C   UNL     1      43.893 -17.758   5.852  1.00  0.00     0.183 C 
HETATM    6  C   UNL     1      43.831 -18.826   4.799  1.00  0.00    -0.021 A 
HETATM    7  C   UNL     1      43.581 -18.264   3.536  1.00  0.00    -0.047 A 
HETATM    8  C   UNL     1      44.017 -20.192   4.940  1.00  0.00     0.010 A 
HETATM    9  C   UNL     1      43.442 -16.773   3.613  1.00  0.00     0.075 C 
HETATM   10  C   UNL     1      43.513 -19.051   2.399  1.00  0.00     0.008 A 
HETATM   11  C   UNL     1      43.683 -20.428   2.539  1.00  0.00     0.001 A 
HETATM   12  C   UNL     1      43.933 -20.994   3.799  1.00  0.00     0.001 A 
BRANCH   5  13
HETATM   13  O   UNL     1      43.183 -18.075   7.042  1.00  0.00    -0.389 OA
HETATM   14  H   UNL     1      42.265 -17.768   6.914  1.00  0.00     0.210 HD
ENDBRANCH   5  13
ENDBRANCH   2   4
BRANCH   2  15
HETATM   15  C   UNL     1      41.446 -15.424   6.583  1.00  0.00     0.271 C 
BRANCH  15  16
HETATM   16  C   UNL     1      41.151 -14.037   5.973  1.00  0.00     0.177 C 
BRANCH  16  17
HETATM   17  O   UNL     1      40.070 -13.452   6.708  1.00  0.00    -0.389 OA
HETATM   18  H   UNL     1      39.603 -12.846   6.100  1.00  0.00     0.210 HD
ENDBRANCH  16  17
BRANCH  16  19
HETATM   19  C   UNL     1      42.383 -13.161   5.979  1.00  0.00    -0.028 A 
HETATM   20  C   UNL     1      42.530 -12.166   4.995  1.00  0.00     0.013 A 
HETATM   21  C   UNL     1      43.682 -11.378   4.952  1.00  0.00     0.043 A 
HETATM   22  C   UNL     1      44.687 -11.578   5.888  1.00  0.00     0.116 A 
HETATM   23  F   UNL     1      45.792 -10.825   5.842  1.00  0.00    -0.206 F 
HETATM   24  C   UNL     1      44.564 -12.555   6.868  1.00  0.00     0.043 A 
HETATM   25  C   UNL     1      43.416 -13.350   6.913  1.00  0.00     0.013 A 
ENDBRANCH  16  19
ENDBRANCH  15  16
ENDBRANCH   2  15
TORSDOF 6
ENDMDL
MODEL 2
REMARK VINA RESULT:      -7.7      4.072      4.911
REMARK  6 active torsions:
REMARK  status: ('A' for Active; 'I' for Inactive)
REMARK    1  A    between atoms: N_2  and  C_4 
REMARK    2  A    between atoms: N_2  and  C_14 
REMARK    3  A    between atoms: C_5  and  O_6 
REMARK    4  A    between atoms: C_14  and  C_15 
REMARK    5  A    between atoms: C_15  and  O_16 
REMARK    6  A    between atoms: C_15  and  C_17 
ROOT
HETATM    1  C   UNL     1      40.592 -16.546   3.202  1.00  0.00     0.270 C 
HETATM    2  N   UNL     1      41.543 -15.419   3.503  1.00  0.00    -0.065 N 
HETATM    3  H   UNL     1      41.543 -15.350   4.541  1.00  0.00     0.280 HD
ENDROOT
BRANCH   2   4
HETATM    4  C   UNL     1      43.035 -15.660   3.166  1.00  0.00     0.225 C 
HETATM    5  C   UNL     1      43.808 -16.265   4.381  1.00  0.00     0.183 C 
HETATM    6  C   UNL     1      43.774 -17.730   4.058  1.00  0.00    -0.021 A 
HETATM    7  C   UNL     1      43.452 -17.933   2.705  1.00  0.00    -0.047 A 
HETATM    8  C   UNL     1      44.043 -18.806   4.889  1.00  0.00     0.010 A 
HETATM    9  C   UNL     1      43.230 -16.634   1.990  1.00  0.00     0.075 C 
HETATM   10  C   UNL     1      43.393 -19.205   2.162  1.00  0.00     0.008 A 
HETATM   11  C   UNL     1      43.647 -20.291   2.999  1.00  0.00     0.001 A 
HETATM   12  C   UNL     1      43.969 -20.093   4.351  1.00  0.00     0.001 A 
BRANCH   5  13
HETATM   13  O   UNL     1      43.155 -15.924   5.597  1.00  0.00    -0.389 OA
HETATM   14  H   UNL     1      43.737 -15.292   6.063  1.00  0.00     0.210 HD
ENDBRANCH   5  13
ENDBRANCH   2   4
BRANCH   2  15
HETATM   15  C   UNL     1      41.038 -14.069   3.010  1.00  0.00     0.271 C 
BRANCH  15  16
HETATM   16  C   UNL     1      39.816 -14.252   2.083  1.00  0.00     0.177 C 
BRANCH  16  17
HETATM   17  O   UNL     1      38.708 -13.560   2.671  1.00  0.00    -0.389 OA
HETATM   18  H   UNL     1      37.913 -13.800   2.154  1.00  0.00     0.210 HD
ENDBRANCH  16  17
BRANCH  16  19
HETATM   19  C   UNL     1      40.112 -13.766   0.682  1.00  0.00    -0.028 A 
HETATM   20  C   UNL     1      40.693 -12.498   0.497  1.00  0.00     0.013 A 
HETATM   21  C   UNL     1      40.930 -12.009  -0.789  1.00  0.00     0.043 A 
HETATM   22  C   UNL     1      40.591 -12.781  -1.892  1.00  0.00     0.116 A 
HETATM   23  F   UNL     1      40.815 -12.308  -3.123  1.00  0.00    -0.206 F 
HETATM   24  C   UNL     1      40.016 -14.036  -1.732  1.00  0.00     0.043 A 
HETATM   25  C   UNL     1      39.772 -14.528  -0.448  1.00  0.00     0.013 A 
ENDBRANCH  16  19
ENDBRANCH  15  16
ENDBRANCH   2  15
TORSDOF 6
ENDMDL
MODEL 3
REMARK VINA RESULT:      -7.4      5.511      7.733
REMARK  6 active torsions:
REMARK  status: ('A' for Active; 'I' for Inactive)
REMARK    1  A    between atoms: N_2  and  C_4 
REMARK    2  A    between atoms: N_2  and  C_14 
REMARK    3  A    between atoms: C_5  and  O_6 
REMARK    4  A    between atoms: C_14  and  C_15 
REMARK    5  A    between atoms: C_15  and  O_16 
REMARK    6  A    between atoms: C_15  and  C_17 
ROOT
HETATM    1  C   UNL     1      38.878 -12.285   2.272  1.00  0.00     0.270 C 
HETATM    2  N   UNL     1      39.822 -13.357   1.798  1.00  0.00    -0.065 N 
HETATM    3  H   UNL     1      39.208 -14.173   1.598  1.00  0.00     0.280 HD
ENDROOT
BRANCH   2   4
HETATM    4  C   UNL     1      40.531 -13.110   0.443  1.00  0.00     0.225 C 
HETATM    5  C   UNL     1      40.054 -14.122  -0.647  1.00  0.00     0.183 C 
HETATM    6  C   UNL     1      39.000 -13.323  -1.356  1.00  0.00    -0.021 A 
HETATM    7  C   UNL     1      39.128 -11.956  -1.058  1.00  0.00    -0.047 A 
HETATM    8  C   UNL     1      38.020 -13.766  -2.230  1.00  0.00     0.010 A 
HETATM    9  C   UNL     1      40.267 -11.700  -0.118  1.00  0.00     0.075 C 
HETATM   10  C   UNL     1      38.285 -11.014  -1.624  1.00  0.00     0.008 A 
HETATM   11  C   UNL     1      37.287 -11.459  -2.490  1.00  0.00     0.001 A 
HETATM   12  C   UNL     1      37.156 -12.823  -2.791  1.00  0.00     0.001 A 
BRANCH   5  13
HETATM   13  O   UNL     1      39.569 -15.310  -0.036  1.00  0.00    -0.389 OA
HETATM   14  H   UNL     1      40.309 -15.948  -0.030  1.00  0.00     0.210 HD
ENDBRANCH   5  13
ENDBRANCH   2   4
BRANCH   2  15
HETATM   15  C   UNL     1      40.778 -13.829   2.886  1.00  0.00     0.271 C 
BRANCH  15  16
HETATM   16  C   UNL     1      40.333 -15.198   3.444  1.00  0.00     0.177 C 
BRANCH  16  17
HETATM   17  O   UNL     1      39.222 -15.653   2.662  1.00  0.00    -0.389 OA
HETATM   18  H   UNL     1      38.429 -15.183   2.989  1.00  0.00     0.210 HD
ENDBRANCH  16  17
BRANCH  16  19
HETATM   19  C   UNL     1      41.474 -16.190   3.443  1.00  0.00    -0.028 A 
HETATM   20  C   UNL     1      42.165 -16.451   4.639  1.00  0.00     0.013 A 
HETATM   21  C   UNL     1      43.253 -17.326   4.652  1.00  0.00     0.043 A 
HETATM   22  C   UNL     1      43.653 -17.943   3.474  1.00  0.00     0.116 A 
HETATM   23  F   UNL     1      44.698 -18.777   3.487  1.00  0.00    -0.206 F 
HETATM   24  C   UNL     1      42.985 -17.699   2.281  1.00  0.00     0.043 A 
HETATM   25  C   UNL     1      41.899 -16.820   2.261  1.00  0.00     0.013 A 
ENDBRANCH  16  19
ENDBRANCH  15  16
ENDBRANCH   2  15
TORSDOF 6
ENDMDL
MODEL 4
REMARK VINA RESULT:      -7.4      5.108      6.595
REMARK  6 active torsions:
REMARK  status: ('A' for Active; 'I' for Inactive)
REMARK    1  A    between atoms: N_2  and  C_4 
REMARK    2  A    between atoms: N_2  and  C_14 
REMARK    3  A    between atoms: C_5  and  O_6 
REMARK    4  A    between atoms: C_14  and  C_15 
REMARK    5  A    between atoms: C_15  and  O_16 
REMARK    6  A    between atoms: C_15  and  C_17 
ROOT
HETATM    1  C   UNL     1      41.079 -13.543   4.205  1.00  0.00     0.270 C 
HETATM    2  N   UNL     1      41.005 -14.613   3.149  1.00  0.00    -0.065 N 
HETATM    3  H   UNL     1      41.924 -14.563   2.664  1.00  0.00     0.280 HD
ENDROOT
BRANCH   2   4
HETATM    4  C   UNL     1      40.950 -16.079   3.648  1.00  0.00     0.225 C 
HETATM    5  C   UNL     1      42.333 -16.788   3.498  1.00  0.00     0.183 C 
HETATM    6  C   UNL     1      42.905 -16.622   4.876  1.00  0.00    -0.021 A 
HETATM    7  C   UNL     1      41.897 -16.288   5.795  1.00  0.00    -0.047 A 
HETATM    8  C   UNL     1      44.216 -16.788   5.294  1.00  0.00     0.010 A 
HETATM    9  C   UNL     1      40.556 -16.188   5.132  1.00  0.00     0.075 C 
HETATM   10  C   UNL     1      42.178 -16.115   7.140  1.00  0.00     0.008 A 
HETATM   11  C   UNL     1      43.498 -16.265   7.562  1.00  0.00     0.001 A 
HETATM   12  C   UNL     1      44.509 -16.599   6.647  1.00  0.00     0.001 A 
BRANCH   5  13
HETATM   13  O   UNL     1      43.097 -16.165   2.473  1.00  0.00    -0.389 OA
HETATM   14  H   UNL     1      43.989 -16.562   2.505  1.00  0.00     0.210 HD
ENDBRANCH   5  13
ENDBRANCH   2   4
BRANCH   2  15
HETATM   15  C   UNL     1      39.966 -14.316   2.075  1.00  0.00     0.271 C 
BRANCH  15  16
HETATM   16  C   UNL     1      40.641 -13.738   0.812  1.00  0.00     0.177 C 
BRANCH  16  17
HETATM   17  O   UNL     1      41.726 -14.603   0.457  1.00  0.00    -0.389 OA
HETATM   18  H   UNL     1      42.332 -14.085  -0.110  1.00  0.00     0.210 HD
ENDBRANCH  16  17
BRANCH  16  19
HETATM   19  C   UNL     1      39.647 -13.578  -0.316  1.00  0.00    -0.028 A 
HETATM   20  C   UNL     1      38.806 -12.451  -0.344  1.00  0.00     0.013 A 
HETATM   21  C   UNL     1      37.849 -12.307  -1.350  1.00  0.00     0.043 A 
HETATM   22  C   UNL     1      37.728 -13.283  -2.329  1.00  0.00     0.116 A 
HETATM   23  F   UNL     1      36.807 -13.145  -3.289  1.00  0.00    -0.206 F 
HETATM   24  C   UNL     1      38.548 -14.404  -2.322  1.00  0.00     0.043 A 
HETATM   25  C   UNL     1      39.504 -14.557  -1.315  1.00  0.00     0.013 A 
ENDBRANCH  16  19
ENDBRANCH  15  16
ENDBRANCH   2  15
TORSDOF 6
ENDMDL
MODEL 5
REMARK VINA RESULT:      -7.3      2.955      7.417
REMARK  6 active torsions:
REMARK  status: ('A' for Active; 'I' for Inactive)
REMARK    1  A    between atoms: N_2  and  C_4 
REMARK    2  A    between atoms: N_2  and  C_14 
REMARK    3  A    between atoms: C_5  and  O_6 
REMARK    4  A    between atoms: C_14  and  C_15 
REMARK    5  A    between atoms: C_15  and  O_16 
REMARK    6  A    between atoms: C_15  and  C_17 
ROOT
HETATM    1  C   UNL     1      43.708 -13.972   6.810  1.00  0.00     0.270 C 
HETATM    2  N   UNL     1      42.829 -13.190   5.872  1.00  0.00    -0.065 N 
HETATM    3  H   UNL     1      41.951 -13.035   6.408  1.00  0.00     0.280 HD
ENDROOT
BRANCH   2   4
HETATM    4  C   UNL     1      43.287 -11.752   5.525  1.00  0.00     0.225 C 
HETATM    5  C   UNL     1      42.476 -10.683   6.323  1.00  0.00     0.183 C 
HETATM    6  C   UNL     1      43.395 -10.411   7.478  1.00  0.00    -0.021 A 
HETATM    7  C   UNL     1      44.692 -10.875   7.201  1.00  0.00    -0.047 A 
HETATM    8  C   UNL     1      43.116  -9.769   8.674  1.00  0.00     0.010 A 
HETATM    9  C   UNL     1      44.773 -11.508   5.844  1.00  0.00     0.075 C 
HETATM   10  C   UNL     1      45.726 -10.707   8.107  1.00  0.00     0.008 A 
HETATM   11  C   UNL     1      45.444 -10.076   9.319  1.00  0.00     0.001 A 
HETATM   12  C   UNL     1      44.150  -9.611   9.600  1.00  0.00     0.001 A 
BRANCH   5  13
HETATM   13  O   UNL     1      41.210 -11.207   6.700  1.00  0.00    -0.389 OA
HETATM   14  H   UNL     1      40.616 -10.442   6.833  1.00  0.00     0.210 HD
ENDBRANCH   5  13
ENDBRANCH   2   4
BRANCH   2  15
HETATM   15  C   UNL     1      42.414 -13.989   4.642  1.00  0.00     0.271 C 
BRANCH  15  16
HETATM   16  C   UNL     1      41.845 -15.363   5.055  1.00  0.00     0.177 C 
BRANCH  16  17
HETATM   17  O   UNL     1      40.431 -15.343   4.824  1.00  0.00    -0.389 OA
HETATM   18  H   UNL     1      40.282 -14.841   3.998  1.00  0.00     0.210 HD
ENDBRANCH  16  17
BRANCH  16  19
HETATM   19  C   UNL     1      42.527 -16.487   4.308  1.00  0.00    -0.028 A 
HETATM   20  C   UNL     1      42.099 -16.816   3.010  1.00  0.00     0.013 A 
HETATM   21  C   UNL     1      42.682 -17.881   2.320  1.00  0.00     0.043 A 
HETATM   22  C   UNL     1      43.693 -18.618   2.922  1.00  0.00     0.116 A 
HETATM   23  F   UNL     1      44.247 -19.641   2.261  1.00  0.00    -0.206 F 
HETATM   24  C   UNL     1      44.132 -18.311   4.204  1.00  0.00     0.043 A 
HETATM   25  C   UNL     1      43.548 -17.250   4.900  1.00  0.00     0.013 A 
ENDBRANCH  16  19
ENDBRANCH  15  16
ENDBRANCH   2  15
TORSDOF 6
ENDMDL
MODEL 6
REMARK VINA RESULT:      -7.2      4.634      5.674
REMARK  6 active torsions:
REMARK  status: ('A' for Active; 'I' for Inactive)
REMARK    1  A    between atoms: N_2  and  C_4 
REMARK    2  A    between atoms: N_2  and  C_14 
REMARK    3  A    between atoms: C_5  and  O_6 
REMARK    4  A    between atoms: C_14  and  C_15 
REMARK    5  A    between atoms: C_15  and  O_16 
REMARK    6  A    between atoms: C_15  and  C_17 
ROOT
HETATM    1  C   UNL     1      42.651 -13.583   4.261  1.00  0.00     0.270 C 
HETATM    2  N   UNL     1      41.769 -13.938   3.094  1.00  0.00    -0.065 N 
HETATM    3  H   UNL     1      42.428 -14.054   2.297  1.00  0.00     0.280 HD
ENDROOT
BRANCH   2   4
HETATM    4  C   UNL     1      41.049 -15.307   3.158  1.00  0.00     0.225 C 
HETATM    5  C   UNL     1      41.694 -16.342   2.183  1.00  0.00     0.183 C 
HETATM    6  C   UNL     1      42.618 -17.085   3.103  1.00  0.00    -0.021 A 
HETATM    7  C   UNL     1      42.271 -16.857   4.446  1.00  0.00    -0.047 A 
HETATM    8  C   UNL     1      43.667 -17.930   2.779  1.00  0.00     0.010 A 
HETATM    9  C   UNL     1      41.093 -15.937   4.563  1.00  0.00     0.075 C 
HETATM   10  C   UNL     1      42.961 -17.465   5.481  1.00  0.00     0.008 A 
HETATM   11  C   UNL     1      44.029 -18.302   5.159  1.00  0.00     0.001 A 
HETATM   12  C   UNL     1      44.379 -18.533   3.819  1.00  0.00     0.001 A 
BRANCH   5  13
HETATM   13  O   UNL     1      42.354 -15.668   1.118  1.00  0.00    -0.389 OA
HETATM   14  H   UNL     1      43.299 -15.909   1.174  1.00  0.00     0.210 HD
ENDBRANCH   5  13
ENDBRANCH   2   4
BRANCH   2  15
HETATM   15  C   UNL     1      40.840 -12.801   2.686  1.00  0.00     0.271 C 
BRANCH  15  16
HETATM   16  C   UNL     1      39.742 -13.315   1.729  1.00  0.00     0.177 C 
BRANCH  16  17
HETATM   17  O   UNL     1      38.514 -12.666   2.078  1.00  0.00    -0.389 OA
HETATM   18  H   UNL     1      38.324 -12.013   1.374  1.00  0.00     0.210 HD
ENDBRANCH  16  17
BRANCH  16  19
HETATM   19  C   UNL     1      40.120 -13.081   0.284  1.00  0.00    -0.028 A 
HETATM   20  C   UNL     1      40.741 -11.874  -0.083  1.00  0.00     0.013 A 
HETATM   21  C   UNL     1      41.054 -11.616  -1.419  1.00  0.00     0.043 A 
HETATM   22  C   UNL     1      40.751 -12.560  -2.390  1.00  0.00     0.116 A 
HETATM   23  F   UNL     1      41.048 -12.309  -3.670  1.00  0.00    -0.206 F 
HETATM   24  C   UNL     1      40.137 -13.759  -2.051  1.00  0.00     0.043 A 
HETATM   25  C   UNL     1      39.816 -14.020  -0.716  1.00  0.00     0.013 A 
ENDBRANCH  16  19
ENDBRANCH  15  16
ENDBRANCH   2  15
TORSDOF 6
ENDMDL
MODEL 7
REMARK VINA RESULT:      -6.9      2.415      3.436
REMARK  6 active torsions:
REMARK  status: ('A' for Active; 'I' for Inactive)
REMARK    1  A    between atoms: N_2  and  C_4 
REMARK    2  A    between atoms: N_2  and  C_14 
REMARK    3  A    between atoms: C_5  and  O_6 
REMARK    4  A    between atoms: C_14  and  C_15 
REMARK    5  A    between atoms: C_15  and  O_16 
REMARK    6  A    between atoms: C_15  and  C_17 
ROOT
HETATM    1  C   UNL     1      43.288 -13.812   3.110  1.00  0.00     0.270 C 
HETATM    2  N   UNL     1      41.981 -13.575   3.818  1.00  0.00    -0.065 N 
HETATM    3  H   UNL     1      41.332 -13.264   3.067  1.00  0.00     0.280 HD
ENDROOT
BRANCH   2   4
HETATM    4  C   UNL     1      41.271 -14.821   4.403  1.00  0.00     0.225 C 
HETATM    5  C   UNL     1      40.831 -15.811   3.279  1.00  0.00     0.183 C 
HETATM    6  C   UNL     1      41.970 -16.790   3.279  1.00  0.00    -0.021 A 
HETATM    7  C   UNL     1      42.718 -16.680   4.463  1.00  0.00    -0.047 A 
HETATM    8  C   UNL     1      42.300 -17.733   2.320  1.00  0.00     0.010 A 
HETATM    9  C   UNL     1      42.168 -15.618   5.368  1.00  0.00     0.075 C 
HETATM   10  C   UNL     1      43.803 -17.505   4.708  1.00  0.00     0.008 A 
HETATM   11  C   UNL     1      44.149 -18.444   3.737  1.00  0.00     0.001 A 
HETATM   12  C   UNL     1      43.404 -18.557   2.553  1.00  0.00     0.001 A 
BRANCH   5  13
HETATM   13  O   UNL     1      40.664 -15.117   2.050  1.00  0.00    -0.389 OA
HETATM   14  H   UNL     1      41.236 -15.560   1.394  1.00  0.00     0.210 HD
ENDBRANCH   5  13
ENDBRANCH   2   4
BRANCH   2  15
HETATM   15  C   UNL     1      42.042 -12.415   4.804  1.00  0.00     0.271 C 
BRANCH  15  16
HETATM   16  C   UNL     1      43.341 -11.604   4.609  1.00  0.00     0.177 C 
BRANCH  16  17
HETATM   17  O   UNL     1      43.020 -10.432   3.851  1.00  0.00    -0.389 OA
HETATM   18  H   UNL     1      43.818 -10.195   3.337  1.00  0.00     0.210 HD
ENDBRANCH  16  17
BRANCH  16  19
HETATM   19  C   UNL     1      43.983 -11.266   5.936  1.00  0.00    -0.028 A 
HETATM   20  C   UNL     1      43.177 -10.841   7.006  1.00  0.00     0.013 A 
HETATM   21  C   UNL     1      43.752 -10.477   8.226  1.00  0.00     0.043 A 
HETATM   22  C   UNL     1      45.130 -10.539   8.380  1.00  0.00     0.116 A 
HETATM   23  F   UNL     1      45.680 -10.186   9.548  1.00  0.00    -0.206 F 
HETATM   24  C   UNL     1      45.946 -10.956   7.336  1.00  0.00     0.043 A 
HETATM   25  C   UNL     1      45.376 -11.316   6.113  1.00  0.00     0.013 A 
ENDBRANCH  16  19
ENDBRANCH  15  16
ENDBRANCH   2  15
TORSDOF 6
ENDMDL
MODEL 8
REMARK VINA RESULT:      -6.9      3.513      7.632
REMARK  6 active torsions:
REMARK  status: ('A' for Active; 'I' for Inactive)
REMARK    1  A    between atoms: N_2  and  C_4 
REMARK    2  A    between atoms: N_2  and  C_14 
REMARK    3  A    between atoms: C_5  and  O_6 
REMARK    4  A    between atoms: C_14  and  C_15 
REMARK    5  A    between atoms: C_15  and  O_16 
REMARK    6  A    between atoms: C_15  and  C_17 
ROOT
HETATM    1  C   UNL     1      42.046  -9.774   4.500  1.00  0.00     0.270 C 
HETATM    2  N   UNL     1      42.463 -11.139   4.978  1.00  0.00    -0.065 N 
HETATM    3  H   UNL     1      43.490 -11.169   4.813  1.00  0.00     0.280 HD
ENDROOT
BRANCH   2   4
HETATM    4  C   UNL     1      42.342 -11.411   6.498  1.00  0.00     0.225 C 
HETATM    5  C   UNL     1      43.685 -11.937   7.095  1.00  0.00     0.183 C 
HETATM    6  C   UNL     1      44.286 -10.674   7.639  1.00  0.00    -0.021 A 
HETATM    7  C   UNL     1      43.310  -9.671   7.757  1.00  0.00    -0.047 A 
HETATM    8  C   UNL     1      45.593 -10.439   8.036  1.00  0.00     0.010 A 
HETATM    9  C   UNL     1      41.966 -10.151   7.299  1.00  0.00     0.075 C 
HETATM   10  C   UNL     1      43.620  -8.422   8.269  1.00  0.00     0.008 A 
HETATM   11  C   UNL     1      44.938  -8.176   8.653  1.00  0.00     0.001 A 
HETATM   12  C   UNL     1      45.916  -9.176   8.537  1.00  0.00     0.001 A 
BRANCH   5  13
HETATM   13  O   UNL     1      44.463 -12.561   6.081  1.00  0.00    -0.389 OA
HETATM   14  H   UNL     1      44.551 -13.501   6.331  1.00  0.00     0.210 HD
ENDBRANCH   5  13
ENDBRANCH   2   4
BRANCH   2  15
HETATM   15  C   UNL     1      41.887 -12.266   4.130  1.00  0.00     0.271 C 
BRANCH  15  16
HETATM   16  C   UNL     1      42.888 -12.686   3.032  1.00  0.00     0.177 C 
BRANCH  16  17
HETATM   17  O   UNL     1      44.141 -12.051   3.311  1.00  0.00    -0.389 OA
HETATM   18  H   UNL     1      44.241 -11.318   2.670  1.00  0.00     0.210 HD
ENDBRANCH  16  17
BRANCH  16  19
HETATM   19  C   UNL     1      43.017 -14.190   2.952  1.00  0.00    -0.028 A 
HETATM   20  C   UNL     1      43.269 -14.799   1.709  1.00  0.00     0.013 A 
HETATM   21  C   UNL     1      43.344 -16.189   1.604  1.00  0.00     0.043 A 
HETATM   22  C   UNL     1      43.170 -16.975   2.735  1.00  0.00     0.116 A 
HETATM   23  F   UNL     1      43.238 -18.306   2.631  1.00  0.00    -0.206 F 
HETATM   24  C   UNL     1      42.920 -16.395   3.973  1.00  0.00     0.043 A 
HETATM   25  C   UNL     1      42.838 -15.005   4.083  1.00  0.00     0.013 A 
ENDBRANCH  16  19
ENDBRANCH  15  16
ENDBRANCH   2  15
TORSDOF 6
ENDMDL
MODEL 9
REMARK VINA RESULT:      -6.8     14.578     16.077
REMARK  6 active torsions:
REMARK  status: ('A' for Active; 'I' for Inactive)
REMARK    1  A    between atoms: N_2  and  C_4 
REMARK    2  A    between atoms: N_2  and  C_14 
REMARK    3  A    between atoms: C_5  and  O_6 
REMARK    4  A    between atoms: C_14  and  C_15 
REMARK    5  A    between atoms: C_15  and  O_16 
REMARK    6  A    between atoms: C_15  and  C_17 
ROOT
HETATM    1  C   UNL     1      46.568 -31.624   0.295  1.00  0.00     0.270 C 
HETATM    2  N   UNL     1      46.216 -30.195   0.606  1.00  0.00    -0.065 N 
HETATM    3  H   UNL     1      46.829 -29.634  -0.020  1.00  0.00     0.280 HD
ENDROOT
BRANCH   2   4
HETATM    4  C   UNL     1      44.792 -29.728   0.214  1.00  0.00     0.225 C 
HETATM    5  C   UNL     1      44.823 -28.358  -0.535  1.00  0.00     0.183 C 
HETATM    6  C   UNL     1      44.785 -28.800  -1.969  1.00  0.00    -0.021 A 
HETATM    7  C   UNL     1      44.358 -30.135  -2.066  1.00  0.00    -0.047 A 
HETATM    8  C   UNL     1      45.073 -28.065  -3.108  1.00  0.00     0.010 A 
HETATM    9  C   UNL     1      44.076 -30.724  -0.717  1.00  0.00     0.075 C 
HETATM   10  C   UNL     1      44.211 -30.755  -3.295  1.00  0.00     0.008 A 
HETATM   11  C   UNL     1      44.516 -30.025  -4.443  1.00  0.00     0.001 A 
HETATM   12  C   UNL     1      44.943 -28.691  -4.350  1.00  0.00     0.001 A 
BRANCH   5  13
HETATM   13  O   UNL     1      45.993 -27.632  -0.182  1.00  0.00    -0.389 OA
HETATM   14  H   UNL     1      46.678 -28.291   0.044  1.00  0.00     0.210 HD
ENDBRANCH   5  13
ENDBRANCH   2   4
BRANCH   2  15
HETATM   15  C   UNL     1      46.602 -29.783   2.022  1.00  0.00     0.271 C 
BRANCH  15  16
HETATM   16  C   UNL     1      48.034 -29.206   2.048  1.00  0.00     0.177 C 
BRANCH  16  17
HETATM   17  O   UNL     1      47.937 -27.796   2.283  1.00  0.00    -0.389 OA
HETATM   18  H   UNL     1      48.341 -27.622   3.157  1.00  0.00     0.210 HD
ENDBRANCH  16  17
BRANCH  16  19
HETATM   19  C   UNL     1      48.886 -29.899   3.087  1.00  0.00    -0.028 A 
HETATM   20  C   UNL     1      50.287 -29.794   3.015  1.00  0.00     0.013 A 
HETATM   21  C   UNL     1      51.095 -30.465   3.935  1.00  0.00     0.043 A 
HETATM   22  C   UNL     1      50.510 -31.241   4.927  1.00  0.00     0.116 A 
HETATM   23  F   UNL     1      51.287 -31.886   5.804  1.00  0.00    -0.206 F 
HETATM   24  C   UNL     1      49.129 -31.359   5.016  1.00  0.00     0.043 A 
HETATM   25  C   UNL     1      48.316 -30.693   4.095  1.00  0.00     0.013 A 
ENDBRANCH  16  19
ENDBRANCH  15  16
ENDBRANCH   2  15
TORSDOF 6
ENDMDL
MODEL 10
REMARK VINA RESULT:      -6.8      3.080      4.606
REMARK  6 active torsions:
REMARK  status: ('A' for Active; 'I' for Inactive)
REMARK    1  A    between atoms: N_2  and  C_4 
REMARK    2  A    between atoms: N_2  and  C_14 
REMARK    3  A    between atoms: C_5  and  O_6 
REMARK    4  A    between atoms: C_14  and  C_15 
REMARK    5  A    between atoms: C_15  and  O_16 
REMARK    6  A    between atoms: C_15  and  C_17 
ROOT
HETATM    1  C   UNL     1      39.496 -11.774   1.847  1.00  0.00     0.270 C 
HETATM    2  N   UNL     1      39.833 -13.082   2.511  1.00  0.00    -0.065 N 
HETATM    3  H   UNL     1      39.063 -13.231   3.195  1.00  0.00     0.280 HD
ENDROOT
BRANCH   2   4
HETATM    4  C   UNL     1      39.766 -14.350   1.625  1.00  0.00     0.225 C 
HETATM    5  C   UNL     1      41.039 -14.493   0.731  1.00  0.00     0.183 C 
HETATM    6  C   UNL     1      41.875 -15.433   1.549  1.00  0.00    -0.021 A 
HETATM    7  C   UNL     1      41.089 -16.085   2.514  1.00  0.00    -0.047 A 
HETATM    8  C   UNL     1      43.226 -15.719   1.427  1.00  0.00     0.010 A 
HETATM    9  C   UNL     1      39.657 -15.646   2.448  1.00  0.00     0.075 C 
HETATM   10  C   UNL     1      41.635 -17.028   3.368  1.00  0.00     0.008 A 
HETATM   11  C   UNL     1      42.997 -17.306   3.260  1.00  0.00     0.001 A 
HETATM   12  C   UNL     1      43.786 -16.657   2.298  1.00  0.00     0.001 A 
BRANCH   5  13
HETATM   13  O   UNL     1      41.636 -13.220   0.518  1.00  0.00    -0.389 OA
HETATM   14  H   UNL     1      42.559 -13.383   0.245  1.00  0.00     0.210 HD
ENDBRANCH   5  13
ENDBRANCH   2   4
BRANCH   2  15
HETATM   15  C   UNL     1      41.105 -13.013   3.346  1.00  0.00     0.271 C 
BRANCH  15  16
HETATM   16  C   UNL     1      40.767 -13.017   4.853  1.00  0.00     0.177 C 
BRANCH  16  17
HETATM   17  O   UNL     1      39.353 -13.197   4.987  1.00  0.00    -0.389 OA
HETATM   18  H   UNL     1      39.033 -13.592   4.152  1.00  0.00     0.210 HD
ENDBRANCH  16  17
BRANCH  16  19
HETATM   19  C   UNL     1      41.549 -14.082   5.588  1.00  0.00    -0.028 A 
HETATM   20  C   UNL     1      42.949 -14.126   5.461  1.00  0.00     0.013 A 
HETATM   21  C   UNL     1      43.687 -15.129   6.092  1.00  0.00     0.043 A 
HETATM   22  C   UNL     1      43.031 -16.090   6.850  1.00  0.00     0.116 A 
HETATM   23  F   UNL     1      43.739 -17.053   7.450  1.00  0.00    -0.206 F 
HETATM   24  C   UNL     1      41.649 -16.066   6.990  1.00  0.00     0.043 A 
HETATM   25  C   UNL     1      40.906 -15.067   6.356  1.00  0.00     0.013 A 
ENDBRANCH  16  19
ENDBRANCH  15  16
ENDBRANCH   2  15
TORSDOF 6
ENDMDL
