MODEL 1
REMARK VINA RESULT:      -7.8      0.000      0.000
REMARK  6 active torsions:
REMARK  status: ('A' for Active; 'I' for Inactive)
REMARK    1  A    between atoms: C_2  and  C_3 
REMARK    2  A    between atoms: C_8  and  C_9 
REMARK    3  A    between atoms: C_9  and  N_10 
REMARK    4  A    between atoms: N_10  and  C_12 
REMARK    5  A    between atoms: C_12  and  C_13 
REMARK       I    between atoms: C_13  and  N_14 
REMARK    6  A    between atoms: N_14  and  C_15 
ROOT
HETATM    1  N   UNL     1      42.057 -13.682   4.686  1.00  0.00    -0.063 N 
HETATM    2  H   UNL     1      41.337 -14.151   4.121  1.00  0.00     0.280 HD
HETATM    3  C   UNL     1      41.369 -12.760   5.648  1.00  0.00     0.270 C 
ENDROOT
BRANCH   1   4
HETATM    4  C   UNL     1      42.925 -12.941   3.663  1.00  0.00     0.277 C 
BRANCH   4   5
HETATM    5  C   UNL     1      42.123 -12.409   2.520  1.00  0.00     0.012 A 
HETATM    6  C   UNL     1      41.266 -13.071   1.565  1.00  0.00     0.071 A 
HETATM    7  N   UNL     1      40.722 -12.171   0.731  1.00  0.00    -0.178 NA
HETATM    8  N   UNL     1      41.262 -11.001   1.045  1.00  0.00    -0.288 N 
HETATM    9  H   UNL     1      41.014 -10.189   0.484  1.00  0.00     0.188 HD
HETATM   10  C   UNL     1      42.097 -11.081   2.116  1.00  0.00     0.120 A 
BRANCH   6  11
HETATM   11  C   UNL     1      40.870 -14.532   1.307  1.00  0.00    -0.004 C 
HETATM   12  C   UNL     1      40.201 -14.649  -0.083  1.00  0.00     0.021 C 
HETATM   13  C   UNL     1      39.859 -14.998   2.381  1.00  0.00     0.021 C 
HETATM   14  C   UNL     1      42.038 -15.523   1.320  1.00  0.00     0.021 C 
ENDBRANCH   6  11
ENDBRANCH   4   5
ENDBRANCH   1   4
BRANCH   1  15
HETATM   15  C   UNL     1      42.828 -14.769   5.443  1.00  0.00     0.337 C 
BRANCH  15  16
HETATM   16  C   UNL     1      42.514 -16.172   4.928  1.00  0.00     0.248 C 
HETATM   17  N   UNL     1      43.601 -16.777   4.316  1.00  0.00    -0.326 N 
HETATM   18  H   UNL     1      44.372 -16.192   4.011  1.00  0.00     0.169 HD
HETATM   19  O   UNL     1      41.422 -16.677   5.162  1.00  0.00    -0.271 OA
BRANCH  17  20
HETATM   20  C   UNL     1      43.731 -18.145   3.984  1.00  0.00     0.040 A 
HETATM   21  C   UNL     1      43.513 -18.668   2.709  1.00  0.00     0.072 A 
HETATM   22  C   UNL     1      43.601 -20.045   2.495  1.00  0.00     0.121 A 
HETATM   23  F   UNL     1      43.369 -20.529   1.269  1.00  0.00    -0.206 F 
HETATM   24  C   UNL     1      43.909 -20.919   3.524  1.00  0.00     0.084 A 
HETATM   25  C   UNL     1      44.138 -20.395   4.785  1.00  0.00     0.121 A 
HETATM   26  F   UNL     1      44.433 -21.215   5.801  1.00  0.00    -0.206 F 
HETATM   27  C   UNL     1      44.055 -19.024   5.024  1.00  0.00     0.072 A 
ENDBRANCH  17  20
ENDBRANCH  15  16
ENDBRANCH   1  15
TORSDOF 6
ENDMDL
MODEL 2
REMARK VINA RESULT:      -7.7      0.229      1.893
REMARK  6 active torsions:
REMARK  status: ('A' for Active; 'I' for Inactive)
REMARK    1  A    between atoms: C_2  and  C_3 
REMARK    2  A    between atoms: C_8  and  C_9 
REMARK    3  A    between atoms: C_9  and  N_10 
REMARK    4  A    between atoms: N_10  and  C_12 
REMARK    5  A    between atoms: C_12  and  C_13 
REMARK       I    between atoms: C_13  and  N_14 
REMARK    6  A    between atoms: N_14  and  C_15 
ROOT
HETATM    1  N   UNL     1      42.170 -13.641   4.486  1.00  0.00    -0.063 N 
HETATM    2  H   UNL     1      41.454 -14.184   3.987  1.00  0.00     0.280 HD
HETATM    3  C   UNL     1      41.477 -12.737   5.461  1.00  0.00     0.270 C 
ENDROOT
BRANCH   1   4
HETATM    4  C   UNL     1      42.911 -12.878   3.383  1.00  0.00     0.277 C 
BRANCH   4   5
HETATM    5  C   UNL     1      41.994 -12.430   2.291  1.00  0.00     0.012 A 
HETATM    6  C   UNL     1      41.096 -13.168   1.436  1.00  0.00     0.071 A 
HETATM    7  N   UNL     1      40.444 -12.329   0.616  1.00  0.00    -0.178 NA
HETATM    8  N   UNL     1      40.950 -11.124   0.841  1.00  0.00    -0.288 N 
HETATM    9  H   UNL     1      40.617 -10.348   0.273  1.00  0.00     0.188 HD
HETATM   10  C   UNL     1      41.871 -11.122   1.842  1.00  0.00     0.120 A 
BRANCH   6  11
HETATM   11  C   UNL     1      40.753 -14.656   1.266  1.00  0.00    -0.004 C 
HETATM   12  C   UNL     1      42.058 -15.488   1.238  1.00  0.00     0.021 C 
HETATM   13  C   UNL     1      40.003 -14.871  -0.070  1.00  0.00     0.021 C 
HETATM   14  C   UNL     1      39.879 -15.242   2.378  1.00  0.00     0.021 C 
ENDBRANCH   6  11
ENDBRANCH   4   5
ENDBRANCH   1   4
BRANCH   1  15
HETATM   15  C   UNL     1      43.070 -14.637   5.226  1.00  0.00     0.337 C 
BRANCH  15  16
HETATM   16  C   UNL     1      42.675 -16.089   4.959  1.00  0.00     0.248 C 
HETATM   17  N   UNL     1      43.628 -16.780   4.227  1.00  0.00    -0.326 N 
HETATM   18  H   UNL     1      44.319 -16.248   3.708  1.00  0.00     0.169 HD
HETATM   19  O   UNL     1      41.654 -16.545   5.460  1.00  0.00    -0.271 OA
BRANCH  17  20
HETATM   20  C   UNL     1      43.704 -18.180   4.047  1.00  0.00     0.040 A 
HETATM   21  C   UNL     1      44.041 -19.084   5.054  1.00  0.00     0.072 A 
HETATM   22  C   UNL     1      44.155 -20.445   4.762  1.00  0.00     0.121 A 
HETATM   23  F   UNL     1      44.499 -21.294   5.738  1.00  0.00    -0.206 F 
HETATM   24  C   UNL     1      43.935 -20.931   3.483  1.00  0.00     0.084 A 
HETATM   25  C   UNL     1      43.588 -20.032   2.489  1.00  0.00     0.121 A 
HETATM   26  F   UNL     1      43.373 -20.471   1.243  1.00  0.00    -0.206 F 
HETATM   27  C   UNL     1      43.468 -18.669   2.756  1.00  0.00     0.072 A 
ENDBRANCH  17  20
ENDBRANCH  15  16
ENDBRANCH   1  15
TORSDOF 6
ENDMDL
MODEL 3
REMARK VINA RESULT:      -7.5      4.871      7.752
REMARK  6 active torsions:
REMARK  status: ('A' for Active; 'I' for Inactive)
REMARK    1  A    between atoms: C_2  and  C_3 
REMARK    2  A    between atoms: C_8  and  C_9 
REMARK    3  A    between atoms: C_9  and  N_10 
REMARK    4  A    between atoms: N_10  and  C_12 
REMARK    5  A    between atoms: C_12  and  C_13 
REMARK       I    between atoms: C_13  and  N_14 
REMARK    6  A    between atoms: N_14  and  C_15 
ROOT
HETATM    1  N   UNL     1      41.641 -13.700   5.829  1.00  0.00    -0.063 N 
HETATM    2  H   UNL     1      42.171 -13.683   6.711  1.00  0.00     0.280 HD
HETATM    3  C   UNL     1      40.586 -14.759   5.937  1.00  0.00     0.270 C 
ENDROOT
BRANCH   1   4
HETATM    4  C   UNL     1      42.692 -14.007   4.757  1.00  0.00     0.277 C 
BRANCH   4   5
HETATM    5  C   UNL     1      43.306 -15.358   4.937  1.00  0.00     0.012 A 
HETATM    6  C   UNL     1      43.355 -16.508   4.066  1.00  0.00     0.071 A 
HETATM    7  N   UNL     1      44.052 -17.497   4.645  1.00  0.00    -0.178 NA
HETATM    8  N   UNL     1      44.359 -17.070   5.863  1.00  0.00    -0.288 N 
HETATM    9  H   UNL     1      44.850 -17.707   6.488  1.00  0.00     0.188 HD
HETATM   10  C   UNL     1      43.949 -15.793   6.088  1.00  0.00     0.120 A 
BRANCH   6  11
HETATM   11  C   UNL     1      42.789 -16.827   2.674  1.00  0.00    -0.004 C 
HETATM   12  C   UNL     1      43.070 -18.309   2.329  1.00  0.00     0.021 C 
HETATM   13  C   UNL     1      43.474 -15.935   1.613  1.00  0.00     0.021 C 
HETATM   14  C   UNL     1      41.278 -16.621   2.535  1.00  0.00     0.021 C 
ENDBRANCH   6  11
ENDBRANCH   4   5
ENDBRANCH   1   4
BRANCH   1  15
HETATM   15  C   UNL     1      41.000 -12.319   5.653  1.00  0.00     0.337 C 
BRANCH  15  16
HETATM   16  C   UNL     1      41.995 -11.181   5.873  1.00  0.00     0.248 C 
HETATM   17  N   UNL     1      42.582 -11.215   7.129  1.00  0.00    -0.326 N 
HETATM   18  H   UNL     1      42.134 -11.762   7.857  1.00  0.00     0.169 HD
HETATM   19  O   UNL     1      42.266 -10.420   4.951  1.00  0.00    -0.271 OA
BRANCH  17  20
HETATM   20  C   UNL     1      43.720 -10.491   7.549  1.00  0.00     0.040 A 
HETATM   21  C   UNL     1      43.673  -9.232   8.149  1.00  0.00     0.072 A 
HETATM   22  C   UNL     1      44.859  -8.567   8.469  1.00  0.00     0.121 A 
HETATM   23  F   UNL     1      44.793  -7.351   9.026  1.00  0.00    -0.206 F 
HETATM   24  C   UNL     1      46.097  -9.130   8.211  1.00  0.00     0.084 A 
HETATM   25  C   UNL     1      46.139 -10.386   7.628  1.00  0.00     0.121 A 
HETATM   26  F   UNL     1      47.322 -10.954   7.362  1.00  0.00    -0.206 F 
HETATM   27  C   UNL     1      44.970 -11.069   7.298  1.00  0.00     0.072 A 
ENDBRANCH  17  20
ENDBRANCH  15  16
ENDBRANCH   1  15
TORSDOF 6
ENDMDL
MODEL 4
REMARK VINA RESULT:      -7.5      4.865      7.714
REMARK  6 active torsions:
REMARK  status: ('A' for Active; 'I' for Inactive)
REMARK    1  A    between atoms: C_2  and  C_3 
REMARK    2  A    between atoms: C_8  and  C_9 
REMARK    3  A    between atoms: C_9  and  N_10 
REMARK    4  A    between atoms: N_10  and  C_12 
REMARK    5  A    between atoms: C_12  and  C_13 
REMARK       I    between atoms: C_13  and  N_14 
REMARK    6  A    between atoms: N_14  and  C_15 
ROOT
HETATM    1  N   UNL     1      41.446 -13.650   5.863  1.00  0.00    -0.063 N 
HETATM    2  H   UNL     1      41.996 -13.666   6.732  1.00  0.00     0.280 HD
HETATM    3  C   UNL     1      40.375 -14.694   5.967  1.00  0.00     0.270 C 
ENDROOT
BRANCH   1   4
HETATM    4  C   UNL     1      42.466 -13.945   4.759  1.00  0.00     0.277 C 
BRANCH   4   5
HETATM    5  C   UNL     1      43.142 -15.265   4.950  1.00  0.00     0.012 A 
HETATM    6  C   UNL     1      43.264 -16.409   4.079  1.00  0.00     0.071 A 
HETATM    7  N   UNL     1      43.997 -17.365   4.672  1.00  0.00    -0.178 NA
HETATM    8  N   UNL     1      44.258 -16.925   5.896  1.00  0.00    -0.288 N 
HETATM    9  H   UNL     1      44.766 -17.538   6.530  1.00  0.00     0.188 HD
HETATM   10  C   UNL     1      43.782 -15.670   6.113  1.00  0.00     0.120 A 
BRANCH   6  11
HETATM   11  C   UNL     1      42.742 -16.754   2.676  1.00  0.00    -0.004 C 
HETATM   12  C   UNL     1      43.059 -18.234   2.355  1.00  0.00     0.021 C 
HETATM   13  C   UNL     1      43.440 -15.861   1.624  1.00  0.00     0.021 C 
HETATM   14  C   UNL     1      41.232 -16.576   2.494  1.00  0.00     0.021 C 
ENDBRANCH   6  11
ENDBRANCH   4   5
ENDBRANCH   1   4
BRANCH   1  15
HETATM   15  C   UNL     1      40.824 -12.254   5.739  1.00  0.00     0.337 C 
BRANCH  15  16
HETATM   16  C   UNL     1      41.855 -11.139   5.910  1.00  0.00     0.248 C 
HETATM   17  N   UNL     1      42.573 -11.247   7.091  1.00  0.00    -0.326 N 
HETATM   18  H   UNL     1      42.198 -11.829   7.834  1.00  0.00     0.169 HD
HETATM   19  O   UNL     1      42.036 -10.332   5.007  1.00  0.00    -0.271 OA
BRANCH  17  20
HETATM   20  C   UNL     1      43.761 -10.558   7.424  1.00  0.00     0.040 A 
HETATM   21  C   UNL     1      45.045 -11.069   7.231  1.00  0.00     0.072 A 
HETATM   22  C   UNL     1      46.157 -10.338   7.655  1.00  0.00     0.121 A 
HETATM   23  F   UNL     1      47.380 -10.854   7.479  1.00  0.00    -0.206 F 
HETATM   24  C   UNL     1      46.022  -9.102   8.264  1.00  0.00     0.084 A 
HETATM   25  C   UNL     1      44.746  -8.592   8.441  1.00  0.00     0.121 A 
HETATM   26  F   UNL     1      44.583  -7.402   9.031  1.00  0.00    -0.206 F 
HETATM   27  C   UNL     1      43.620  -9.303   8.027  1.00  0.00     0.072 A 
ENDBRANCH  17  20
ENDBRANCH  15  16
ENDBRANCH   1  15
TORSDOF 6
ENDMDL
MODEL 5
REMARK VINA RESULT:      -7.3      2.017      3.276
REMARK  6 active torsions:
REMARK  status: ('A' for Active; 'I' for Inactive)
REMARK    1  A    between atoms: C_2  and  C_3 
REMARK    2  A    between atoms: C_8  and  C_9 
REMARK    3  A    between atoms: C_9  and  N_10 
REMARK    4  A    between atoms: N_10  and  C_12 
REMARK    5  A    between atoms: C_12  and  C_13 
REMARK       I    between atoms: C_13  and  N_14 
REMARK    6  A    between atoms: N_14  and  C_15 
ROOT
HETATM    1  N   UNL     1      41.063 -13.636   3.048  1.00  0.00    -0.063 N 
HETATM    2  H   UNL     1      40.311 -14.307   2.846  1.00  0.00     0.280 HD
HETATM    3  C   UNL     1      40.559 -12.662   4.070  1.00  0.00     0.270 C 
ENDROOT
BRANCH   1   4
HETATM    4  C   UNL     1      41.368 -12.983   1.696  1.00  0.00     0.277 C 
BRANCH   4   5
HETATM    5  C   UNL     1      40.542 -13.558   0.591  1.00  0.00     0.012 A 
HETATM    6  C   UNL     1      39.977 -12.954  -0.593  1.00  0.00     0.071 A 
HETATM    7  N   UNL     1      39.333 -13.879  -1.321  1.00  0.00    -0.178 NA
HETATM    8  N   UNL     1      39.378 -15.002  -0.617  1.00  0.00    -0.288 N 
HETATM    9  H   UNL     1      38.893 -15.820  -0.981  1.00  0.00     0.188 HD
HETATM   10  C   UNL     1      40.100 -14.872   0.529  1.00  0.00     0.120 A 
BRANCH   6  11
HETATM   11  C   UNL     1      39.951 -11.529  -1.164  1.00  0.00    -0.004 C 
HETATM   12  C   UNL     1      38.854 -11.427  -2.250  1.00  0.00     0.021 C 
HETATM   13  C   UNL     1      41.317 -11.199  -1.811  1.00  0.00     0.021 C 
HETATM   14  C   UNL     1      39.657 -10.432  -0.136  1.00  0.00     0.021 C 
ENDBRANCH   6  11
ENDBRANCH   4   5
ENDBRANCH   1   4
BRANCH   1  15
HETATM   15  C   UNL     1      42.250 -14.431   3.604  1.00  0.00     0.337 C 
BRANCH  15  16
HETATM   16  C   UNL     1      42.053 -15.940   3.475  1.00  0.00     0.248 C 
HETATM   17  N   UNL     1      43.246 -16.627   3.309  1.00  0.00    -0.326 N 
HETATM   18  H   UNL     1      44.066 -16.107   3.011  1.00  0.00     0.169 HD
HETATM   19  O   UNL     1      40.936 -16.424   3.615  1.00  0.00    -0.271 OA
BRANCH  17  20
HETATM   20  C   UNL     1      43.444 -18.021   3.432  1.00  0.00     0.040 A 
HETATM   21  C   UNL     1      43.860 -18.655   4.603  1.00  0.00     0.072 A 
HETATM   22  C   UNL     1      44.092 -20.032   4.606  1.00  0.00     0.121 A 
HETATM   23  F   UNL     1      44.510 -20.619   5.734  1.00  0.00    -0.206 F 
HETATM   24  C   UNL     1      43.913 -20.799   3.467  1.00  0.00     0.084 A 
HETATM   25  C   UNL     1      43.486 -20.168   2.310  1.00  0.00     0.121 A 
HETATM   26  F   UNL     1      43.308 -20.882   1.192  1.00  0.00    -0.206 F 
HETATM   27  C   UNL     1      43.249 -18.794   2.281  1.00  0.00     0.072 A 
ENDBRANCH  17  20
ENDBRANCH  15  16
ENDBRANCH   1  15
TORSDOF 6
ENDMDL
MODEL 6
REMARK VINA RESULT:      -6.9      3.454      7.045
REMARK  6 active torsions:
REMARK  status: ('A' for Active; 'I' for Inactive)
REMARK    1  A    between atoms: C_2  and  C_3 
REMARK    2  A    between atoms: C_8  and  C_9 
REMARK    3  A    between atoms: C_9  and  N_10 
REMARK    4  A    between atoms: N_10  and  C_12 
REMARK    5  A    between atoms: C_12  and  C_13 
REMARK       I    between atoms: C_13  and  N_14 
REMARK    6  A    between atoms: N_14  and  C_15 
ROOT
HETATM    1  N   UNL     1      42.099 -13.127   3.432  1.00  0.00    -0.063 N 
HETATM    2  H   UNL     1      42.021 -13.820   2.677  1.00  0.00     0.280 HD
HETATM    3  C   UNL     1      43.480 -12.543   3.390  1.00  0.00     0.270 C 
ENDROOT
BRANCH   1   4
HETATM    4  C   UNL     1      41.824 -13.922   4.712  1.00  0.00     0.277 C 
BRANCH   4   5
HETATM    5  C   UNL     1      42.770 -15.066   4.883  1.00  0.00     0.012 A 
HETATM    6  C   UNL     1      43.124 -16.152   4.000  1.00  0.00     0.071 A 
HETATM    7  N   UNL     1      44.054 -16.930   4.574  1.00  0.00    -0.178 NA
HETATM    8  N   UNL     1      44.232 -16.453   5.799  1.00  0.00    -0.288 N 
HETATM    9  H   UNL     1      44.870 -16.945   6.420  1.00  0.00     0.188 HD
HETATM   10  C   UNL     1      43.500 -15.331   6.034  1.00  0.00     0.120 A 
BRANCH   6  11
HETATM   11  C   UNL     1      42.668 -16.592   2.601  1.00  0.00    -0.004 C 
HETATM   12  C   UNL     1      41.142 -16.378   2.463  1.00  0.00     0.021 C 
HETATM   13  C   UNL     1      42.976 -18.094   2.398  1.00  0.00     0.021 C 
HETATM   14  C   UNL     1      43.326 -15.833   1.445  1.00  0.00     0.021 C 
ENDBRANCH   6  11
ENDBRANCH   4   5
ENDBRANCH   1   4
BRANCH   1  15
HETATM   15  C   UNL     1      41.050 -12.041   3.171  1.00  0.00     0.337 C 
BRANCH  15  16
HETATM   16  C   UNL     1      39.910 -12.533   2.280  1.00  0.00     0.248 C 
HETATM   17  N   UNL     1      40.101 -12.222   0.942  1.00  0.00    -0.326 N 
HETATM   18  H   UNL     1      40.769 -11.496   0.705  1.00  0.00     0.169 HD
HETATM   19  O   UNL     1      39.010 -13.213   2.759  1.00  0.00    -0.271 OA
BRANCH  17  20
HETATM   20  C   UNL     1      39.393 -12.756  -0.159  1.00  0.00     0.040 A 
HETATM   21  C   UNL     1      39.659 -13.998  -0.735  1.00  0.00     0.072 A 
HETATM   22  C   UNL     1      38.948 -14.410  -1.864  1.00  0.00     0.121 A 
HETATM   23  F   UNL     1      39.231 -15.598  -2.414  1.00  0.00    -0.206 F 
HETATM   24  C   UNL     1      37.970 -13.613  -2.435  1.00  0.00     0.084 A 
HETATM   25  C   UNL     1      37.701 -12.386  -1.852  1.00  0.00     0.121 A 
HETATM   26  F   UNL     1      36.764 -11.590  -2.384  1.00  0.00    -0.206 F 
HETATM   27  C   UNL     1      38.397 -11.952  -0.725  1.00  0.00     0.072 A 
ENDBRANCH  17  20
ENDBRANCH  15  16
ENDBRANCH   1  15
TORSDOF 6
ENDMDL
MODEL 7
REMARK VINA RESULT:      -6.8      3.602      6.134
REMARK  6 active torsions:
REMARK  status: ('A' for Active; 'I' for Inactive)
REMARK    1  A    between atoms: C_2  and  C_3 
REMARK    2  A    between atoms: C_8  and  C_9 
REMARK    3  A    between atoms: C_9  and  N_10 
REMARK    4  A    between atoms: N_10  and  C_12 
REMARK    5  A    between atoms: C_12  and  C_13 
REMARK       I    between atoms: C_13  and  N_14 
REMARK    6  A    between atoms: N_14  and  C_15 
ROOT
HETATM    1  N   UNL     1      41.294 -10.953   5.466  1.00  0.00    -0.063 N 
HETATM    2  H   UNL     1      42.038 -11.567   5.109  1.00  0.00     0.280 HD
HETATM    3  C   UNL     1      40.993  -9.925   4.416  1.00  0.00     0.270 C 
ENDROOT
BRANCH   1   4
HETATM    4  C   UNL     1      41.877 -10.349   6.747  1.00  0.00     0.277 C 
BRANCH   4   5
HETATM    5  C   UNL     1      43.250 -10.860   7.040  1.00  0.00     0.012 A 
HETATM    6  C   UNL     1      44.186 -10.532   8.089  1.00  0.00     0.071 A 
HETATM    7  N   UNL     1      45.296 -11.278   7.968  1.00  0.00    -0.178 NA
HETATM    8  N   UNL     1      45.149 -11.981   6.853  1.00  0.00    -0.288 N 
HETATM    9  H   UNL     1      45.918 -12.578   6.554  1.00  0.00     0.188 HD
HETATM   10  C   UNL     1      43.940 -11.780   6.264  1.00  0.00     0.120 A 
BRANCH   6  11
HETATM   11  C   UNL     1      44.184  -9.540   9.262  1.00  0.00    -0.004 C 
HETATM   12  C   UNL     1      42.929  -9.777  10.136  1.00  0.00     0.021 C 
HETATM   13  C   UNL     1      44.143  -8.091   8.722  1.00  0.00     0.021 C 
HETATM   14  C   UNL     1      45.396  -9.645  10.192  1.00  0.00     0.021 C 
ENDBRANCH   6  11
ENDBRANCH   4   5
ENDBRANCH   1   4
BRANCH   1  15
HETATM   15  C   UNL     1      40.064 -11.828   5.728  1.00  0.00     0.337 C 
BRANCH  15  16
HETATM   16  C   UNL     1      40.365 -13.319   5.576  1.00  0.00     0.248 C 
HETATM   17  N   UNL     1      41.253 -13.585   4.545  1.00  0.00    -0.326 N 
HETATM   18  H   UNL     1      41.398 -12.875   3.835  1.00  0.00     0.169 HD
HETATM   19  O   UNL     1      39.909 -14.119   6.384  1.00  0.00    -0.271 OA
BRANCH  17  20
HETATM   20  C   UNL     1      41.940 -14.798   4.315  1.00  0.00     0.040 A 
HETATM   21  C   UNL     1      41.578 -15.734   3.346  1.00  0.00     0.072 A 
HETATM   22  C   UNL     1      42.282 -16.936   3.239  1.00  0.00     0.121 A 
HETATM   23  F   UNL     1      41.907 -17.830   2.316  1.00  0.00    -0.206 F 
HETATM   24  C   UNL     1      43.346 -17.228   4.075  1.00  0.00     0.084 A 
HETATM   25  C   UNL     1      43.711 -16.291   5.027  1.00  0.00     0.121 A 
HETATM   26  F   UNL     1      44.733 -16.547   5.853  1.00  0.00    -0.206 F 
HETATM   27  C   UNL     1      43.024 -15.085   5.154  1.00  0.00     0.072 A 
ENDBRANCH  17  20
ENDBRANCH  15  16
ENDBRANCH   1  15
TORSDOF 6
ENDMDL
MODEL 8
REMARK VINA RESULT:      -6.7      2.661      4.990
REMARK  6 active torsions:
REMARK  status: ('A' for Active; 'I' for Inactive)
REMARK    1  A    between atoms: C_2  and  C_3 
REMARK    2  A    between atoms: C_8  and  C_9 
REMARK    3  A    between atoms: C_9  and  N_10 
REMARK    4  A    between atoms: N_10  and  C_12 
REMARK    5  A    between atoms: C_12  and  C_13 
REMARK       I    between atoms: C_13  and  N_14 
REMARK    6  A    between atoms: N_14  and  C_15 
ROOT
HETATM    1  N   UNL     1      42.325 -14.057   5.672  1.00  0.00    -0.063 N 
HETATM    2  H   UNL     1      41.418 -13.576   5.603  1.00  0.00     0.280 HD
HETATM    3  C   UNL     1      42.135 -15.299   6.489  1.00  0.00     0.270 C 
ENDROOT
BRANCH   1   4
HETATM    4  C   UNL     1      43.250 -13.035   6.340  1.00  0.00     0.277 C 
BRANCH   4   5
HETATM    5  C   UNL     1      42.660 -11.662   6.357  1.00  0.00     0.012 A 
HETATM    6  C   UNL     1      43.050 -10.464   7.062  1.00  0.00     0.071 A 
HETATM    7  N   UNL     1      42.231  -9.450   6.738  1.00  0.00    -0.178 NA
HETATM    8  N   UNL     1      41.297  -9.966   5.950  1.00  0.00    -0.288 N 
HETATM    9  H   UNL     1      40.543  -9.359   5.636  1.00  0.00     0.188 HD
HETATM   10  C   UNL     1      41.510 -11.282   5.678  1.00  0.00     0.120 A 
BRANCH   6  11
HETATM   11  C   UNL     1      44.154 -10.122   8.073  1.00  0.00    -0.004 C 
HETATM   12  C   UNL     1      44.195  -8.592   8.297  1.00  0.00     0.021 C 
HETATM   13  C   UNL     1      45.527 -10.577   7.522  1.00  0.00     0.021 C 
HETATM   14  C   UNL     1      43.981 -10.766   9.452  1.00  0.00     0.021 C 
ENDBRANCH   6  11
ENDBRANCH   4   5
ENDBRANCH   1   4
BRANCH   1  15
HETATM   15  C   UNL     1      42.765 -14.413   4.247  1.00  0.00     0.337 C 
BRANCH  15  16
HETATM   16  C   UNL     1      42.470 -15.870   3.893  1.00  0.00     0.248 C 
HETATM   17  N   UNL     1      43.615 -16.647   3.815  1.00  0.00    -0.326 N 
HETATM   18  H   UNL     1      44.511 -16.180   3.711  1.00  0.00     0.169 HD
HETATM   19  O   UNL     1      41.310 -16.254   3.804  1.00  0.00    -0.271 OA
BRANCH  17  20
HETATM   20  C   UNL     1      43.679 -18.058   3.781  1.00  0.00     0.040 A 
HETATM   21  C   UNL     1      44.035 -18.855   4.869  1.00  0.00     0.072 A 
HETATM   22  C   UNL     1      44.133 -20.240   4.718  1.00  0.00     0.121 A 
HETATM   23  F   UNL     1      44.495 -20.985   5.769  1.00  0.00    -0.206 F 
HETATM   24  C   UNL     1      43.880 -20.855   3.503  1.00  0.00     0.084 A 
HETATM   25  C   UNL     1      43.514 -20.062   2.429  1.00  0.00     0.121 A 
HETATM   26  F   UNL     1      43.267 -20.627   1.240  1.00  0.00    -0.206 F 
HETATM   27  C   UNL     1      43.409 -18.678   2.554  1.00  0.00     0.072 A 
ENDBRANCH  17  20
ENDBRANCH  15  16
ENDBRANCH   1  15
TORSDOF 6
ENDMDL
MODEL 9
REMARK VINA RESULT:      -6.7      3.507      6.859
REMARK  6 active torsions:
REMARK  status: ('A' for Active; 'I' for Inactive)
REMARK    1  A    between atoms: C_2  and  C_3 
REMARK    2  A    between atoms: C_8  and  C_9 
REMARK    3  A    between atoms: C_9  and  N_10 
REMARK    4  A    between atoms: N_10  and  C_12 
REMARK    5  A    between atoms: C_12  and  C_13 
REMARK       I    between atoms: C_13  and  N_14 
REMARK    6  A    between atoms: N_14  and  C_15 
ROOT
HETATM    1  N   UNL     1      42.157 -12.775   3.478  1.00  0.00    -0.063 N 
HETATM    2  H   UNL     1      42.473 -13.014   2.529  1.00  0.00     0.280 HD
HETATM    3  C   UNL     1      42.579 -11.365   3.770  1.00  0.00     0.270 C 
ENDROOT
BRANCH   1   4
HETATM    4  C   UNL     1      42.843 -13.805   4.382  1.00  0.00     0.277 C 
BRANCH   4   5
HETATM    5  C   UNL     1      43.085 -15.101   3.678  1.00  0.00     0.012 A 
HETATM    6  C   UNL     1      43.333 -16.430   4.185  1.00  0.00     0.071 A 
HETATM    7  N   UNL     1      43.460 -17.297   3.168  1.00  0.00    -0.178 NA
HETATM    8  N   UNL     1      43.404 -16.574   2.057  1.00  0.00    -0.288 N 
HETATM    9  H   UNL     1      43.535 -17.048   1.167  1.00  0.00     0.188 HD
HETATM   10  C   UNL     1      43.168 -15.257   2.302  1.00  0.00     0.120 A 
BRANCH   6  11
HETATM   11  C   UNL     1      43.485 -17.035   5.589  1.00  0.00    -0.004 C 
HETATM   12  C   UNL     1      42.204 -16.760   6.412  1.00  0.00     0.021 C 
HETATM   13  C   UNL     1      44.686 -16.380   6.313  1.00  0.00     0.021 C 
HETATM   14  C   UNL     1      43.709 -18.549   5.613  1.00  0.00     0.021 C 
ENDBRANCH   6  11
ENDBRANCH   4   5
ENDBRANCH   1   4
BRANCH   1  15
HETATM   15  C   UNL     1      40.629 -12.892   3.498  1.00  0.00     0.337 C 
BRANCH  15  16
HETATM   16  C   UNL     1      40.009 -12.669   2.119  1.00  0.00     0.248 C 
HETATM   17  N   UNL     1      40.856 -13.034   1.084  1.00  0.00    -0.326 N 
HETATM   18  H   UNL     1      41.847 -13.133   1.280  1.00  0.00     0.169 HD
HETATM   19  O   UNL     1      38.845 -12.299   2.026  1.00  0.00    -0.271 OA
BRANCH  17  20
HETATM   20  C   UNL     1      40.503 -13.212  -0.273  1.00  0.00     0.040 A 
HETATM   21  C   UNL     1      40.751 -12.276  -1.278  1.00  0.00     0.072 A 
HETATM   22  C   UNL     1      40.304 -12.515  -2.580  1.00  0.00     0.121 A 
HETATM   23  F   UNL     1      40.534 -11.596  -3.525  1.00  0.00    -0.206 F 
HETATM   24  C   UNL     1      39.617 -13.672  -2.908  1.00  0.00     0.084 A 
HETATM   25  C   UNL     1      39.386 -14.604  -1.911  1.00  0.00     0.121 A 
HETATM   26  F   UNL     1      38.721 -15.731  -2.197  1.00  0.00    -0.206 F 
HETATM   27  C   UNL     1      39.821 -14.389  -0.604  1.00  0.00     0.072 A 
ENDBRANCH  17  20
ENDBRANCH  15  16
ENDBRANCH   1  15
TORSDOF 6
ENDMDL
MODEL 10
REMARK VINA RESULT:      -6.6      3.510      6.845
REMARK  6 active torsions:
REMARK  status: ('A' for Active; 'I' for Inactive)
REMARK    1  A    between atoms: C_2  and  C_3 
REMARK    2  A    between atoms: C_8  and  C_9 
REMARK    3  A    between atoms: C_9  and  N_10 
REMARK    4  A    between atoms: N_10  and  C_12 
REMARK    5  A    between atoms: C_12  and  C_13 
REMARK       I    between atoms: C_13  and  N_14 
REMARK    6  A    between atoms: N_14  and  C_15 
ROOT
HETATM    1  N   UNL     1      42.978 -12.827   4.842  1.00  0.00    -0.063 N 
HETATM    2  H   UNL     1      43.469 -13.193   4.015  1.00  0.00     0.280 HD
HETATM    3  C   UNL     1      44.000 -12.243   5.772  1.00  0.00     0.270 C 
ENDROOT
BRANCH   1   4
HETATM    4  C   UNL     1      42.258 -14.045   5.430  1.00  0.00     0.277 C 
BRANCH   4   5
HETATM    5  C   UNL     1      43.092 -15.283   5.362  1.00  0.00     0.012 A 
HETATM    6  C   UNL     1      43.321 -16.222   4.290  1.00  0.00     0.071 A 
HETATM    7  N   UNL     1      44.183 -17.173   4.684  1.00  0.00    -0.178 NA
HETATM    8  N   UNL     1      44.430 -16.939   5.966  1.00  0.00    -0.288 N 
HETATM    9  H   UNL     1      45.029 -17.591   6.468  1.00  0.00     0.188 HD
HETATM   10  C   UNL     1      43.815 -15.815   6.421  1.00  0.00     0.120 A 
BRANCH   6  11
HETATM   11  C   UNL     1      42.798 -16.362   2.853  1.00  0.00    -0.004 C 
HETATM   12  C   UNL     1      41.255 -16.252   2.851  1.00  0.00     0.021 C 
HETATM   13  C   UNL     1      43.195 -17.744   2.283  1.00  0.00     0.021 C 
HETATM   14  C   UNL     1      43.316 -15.301   1.877  1.00  0.00     0.021 C 
ENDBRANCH   6  11
ENDBRANCH   4   5
ENDBRANCH   1   4
BRANCH   1  15
HETATM   15  C   UNL     1      42.010 -11.741   4.358  1.00  0.00     0.337 C 
BRANCH  15  16
HETATM   16  C   UNL     1      41.773 -11.801   2.850  1.00  0.00     0.248 C 
HETATM   17  N   UNL     1      40.640 -12.524   2.511  1.00  0.00    -0.326 N 
HETATM   18  H   UNL     1      40.247 -13.159   3.200  1.00  0.00     0.169 HD
HETATM   19  O   UNL     1      42.497 -11.165   2.093  1.00  0.00    -0.271 OA
BRANCH  17  20
HETATM   20  C   UNL     1      39.994 -12.544   1.255  1.00  0.00     0.040 A 
HETATM   21  C   UNL     1      38.849 -11.808   0.949  1.00  0.00     0.072 A 
HETATM   22  C   UNL     1      38.244 -11.946  -0.303  1.00  0.00     0.121 A 
HETATM   23  F   UNL     1      37.134 -11.247  -0.570  1.00  0.00    -0.206 F 
HETATM   24  C   UNL     1      38.758 -12.800  -1.264  1.00  0.00     0.084 A 
HETATM   25  C   UNL     1      39.903 -13.518  -0.962  1.00  0.00     0.121 A 
HETATM   26  F   UNL     1      40.421 -14.355  -1.870  1.00  0.00    -0.206 F 
HETATM   27  C   UNL     1      40.524 -13.398   0.280  1.00  0.00     0.072 A 
ENDBRANCH  17  20
ENDBRANCH  15  16
ENDBRANCH   1  15
TORSDOF 6
ENDMDL
