MODEL 1
REMARK VINA RESULT:      -8.1      0.000      0.000
REMARK  4 active torsions:
REMARK  status: ('A' for Active; 'I' for Inactive)
REMARK    1  A    between atoms: C_5  and  C_6 
REMARK    2  A    between atoms: C_12  and  C_13 
REMARK    3  A    between atoms: C_13  and  N_14 
REMARK       I    between atoms: N_14  and  C_15 
REMARK       I    between atoms: C_15  and  N_16 
REMARK    4  A    between atoms: N_16  and  C_17 
ROOT
HETATM    1  C   UNL     1      42.775 -14.007   6.189  1.00  0.00     0.168 C 
ENDROOT
BRANCH   1   2
HETATM    2  C   UNL     1      43.232 -12.983   5.209  1.00  0.00     0.023 A 
HETATM    3  C   UNL     1      43.991 -11.842   5.390  1.00  0.00     0.085 A 
HETATM    4  C   UNL     1      44.645 -11.188   6.542  1.00  0.00     0.079 C 
HETATM    5  O   UNL     1      44.129 -11.196   4.205  1.00  0.00    -0.217 OA
HETATM    6  N   UNL     1      43.462 -11.880   3.220  1.00  0.00    -0.127 NA
HETATM    7  C   UNL     1      42.927 -12.960   3.804  1.00  0.00     0.105 A 
BRANCH   7   8
HETATM    8  C   UNL     1      42.126 -13.899   3.022  1.00  0.00    -0.004 A 
HETATM    9  C   UNL     1      40.790 -14.163   3.347  1.00  0.00     0.014 A 
HETATM   10  C   UNL     1      40.038 -15.055   2.578  1.00  0.00     0.001 A 
HETATM   11  C   UNL     1      40.617 -15.698   1.485  1.00  0.00     0.000 A 
HETATM   12  C   UNL     1      41.951 -15.457   1.164  1.00  0.00     0.001 A 
HETATM   13  C   UNL     1      42.704 -14.563   1.929  1.00  0.00     0.014 A 
ENDBRANCH   7   8
ENDBRANCH   1   2
BRANCH   1  14
HETATM   14  N   UNL     1      43.860 -14.865   6.607  1.00  0.00    -0.338 N 
HETATM   15  C   UNL     1      44.231 -16.098   6.166  1.00  0.00     0.320 C 
HETATM   16  N   UNL     1      43.313 -16.768   5.408  1.00  0.00    -0.309 N 
HETATM   17  O   UNL     1      45.346 -16.493   6.487  1.00  0.00    -0.247 OA
HETATM   18  H   UNL     1      42.361 -16.450   5.472  1.00  0.00     0.170 HD
HETATM   19  H   UNL     1      44.608 -14.427   7.131  1.00  0.00     0.164 HD
BRANCH  16  20
HETATM   20  C   UNL     1      43.505 -17.976   4.700  1.00  0.00     0.036 A 
HETATM   21  C   UNL     1      43.856 -19.186   5.303  1.00  0.00     0.029 A 
HETATM   22  C   UNL     1      44.044 -20.336   4.530  1.00  0.00     0.002 A 
HETATM   23  C   UNL     1      43.892 -20.285   3.147  1.00  0.00     0.000 A 
HETATM   24  C   UNL     1      43.550 -19.083   2.534  1.00  0.00     0.002 A 
HETATM   25  C   UNL     1      43.358 -17.935   3.307  1.00  0.00     0.029 A 
ENDBRANCH  16  20
ENDBRANCH   1  14
TORSDOF 4
ENDMDL
MODEL 2
REMARK VINA RESULT:      -8.1      1.035      4.329
REMARK  4 active torsions:
REMARK  status: ('A' for Active; 'I' for Inactive)
REMARK    1  A    between atoms: C_5  and  C_6 
REMARK    2  A    between atoms: C_12  and  C_13 
REMARK    3  A    between atoms: C_13  and  N_14 
REMARK       I    between atoms: N_14  and  C_15 
REMARK       I    between atoms: C_15  and  N_16 
REMARK    4  A    between atoms: N_16  and  C_17 
ROOT
HETATM    1  C   UNL     1      42.706 -13.986   6.149  1.00  0.00     0.168 C 
ENDROOT
BRANCH   1   2
HETATM    2  C   UNL     1      43.109 -13.133   4.997  1.00  0.00     0.023 A 
HETATM    3  C   UNL     1      42.923 -13.311   3.638  1.00  0.00     0.085 A 
HETATM    4  C   UNL     1      42.283 -14.339   2.792  1.00  0.00     0.079 C 
HETATM    5  O   UNL     1      43.491 -12.281   2.963  1.00  0.00    -0.217 OA
HETATM    6  N   UNL     1      44.074 -11.408   3.849  1.00  0.00    -0.127 NA
HETATM    7  C   UNL     1      43.844 -11.900   5.073  1.00  0.00     0.105 A 
BRANCH   7   8
HETATM    8  C   UNL     1      44.355 -11.206   6.253  1.00  0.00    -0.004 A 
HETATM    9  C   UNL     1      43.506 -10.476   7.093  1.00  0.00     0.014 A 
HETATM   10  C   UNL     1      44.013  -9.830   8.224  1.00  0.00     0.001 A 
HETATM   11  C   UNL     1      45.374  -9.901   8.518  1.00  0.00     0.000 A 
HETATM   12  C   UNL     1      46.232 -10.609   7.678  1.00  0.00     0.001 A 
HETATM   13  C   UNL     1      45.726 -11.258   6.550  1.00  0.00     0.014 A 
ENDBRANCH   7   8
ENDBRANCH   1   2
BRANCH   1  14
HETATM   14  N   UNL     1      43.789 -14.835   6.588  1.00  0.00    -0.338 N 
HETATM   15  C   UNL     1      44.187 -16.059   6.145  1.00  0.00     0.320 C 
HETATM   16  N   UNL     1      43.299 -16.733   5.356  1.00  0.00    -0.309 N 
HETATM   17  O   UNL     1      45.298 -16.444   6.491  1.00  0.00    -0.247 OA
HETATM   18  H   UNL     1      42.341 -16.427   5.397  1.00  0.00     0.170 HD
HETATM   19  H   UNL     1      44.517 -14.394   7.135  1.00  0.00     0.164 HD
BRANCH  16  20
HETATM   20  C   UNL     1      43.524 -17.931   4.642  1.00  0.00     0.036 A 
HETATM   21  C   UNL     1      43.431 -18.040   3.253  1.00  0.00     0.029 A 
HETATM   22  C   UNL     1      43.653 -19.268   2.620  1.00  0.00     0.002 A 
HETATM   23  C   UNL     1      43.961 -20.398   3.372  1.00  0.00     0.000 A 
HETATM   24  C   UNL     1      44.049 -20.304   4.757  1.00  0.00     0.002 A 
HETATM   25  C   UNL     1      43.831 -19.076   5.389  1.00  0.00     0.029 A 
ENDBRANCH  16  20
ENDBRANCH   1  14
TORSDOF 4
ENDMDL
MODEL 3
REMARK VINA RESULT:      -8.0      2.249      5.831
REMARK  4 active torsions:
REMARK  status: ('A' for Active; 'I' for Inactive)
REMARK    1  A    between atoms: C_5  and  C_6 
REMARK    2  A    between atoms: C_12  and  C_13 
REMARK    3  A    between atoms: C_13  and  N_14 
REMARK       I    between atoms: N_14  and  C_15 
REMARK       I    between atoms: C_15  and  N_16 
REMARK    4  A    between atoms: N_16  and  C_17 
ROOT
HETATM    1  C   UNL     1      43.979 -17.516   5.351  1.00  0.00     0.168 C 
ENDROOT
BRANCH   1   2
HETATM    2  C   UNL     1      43.726 -18.488   4.252  1.00  0.00     0.023 A 
HETATM    3  C   UNL     1      44.001 -19.841   4.167  1.00  0.00     0.085 A 
HETATM    4  C   UNL     1      44.608 -20.846   5.064  1.00  0.00     0.079 C 
HETATM    5  O   UNL     1      43.617 -20.307   2.953  1.00  0.00    -0.217 OA
HETATM    6  N   UNL     1      43.094 -19.283   2.204  1.00  0.00    -0.127 NA
HETATM    7  C   UNL     1      43.143 -18.187   2.973  1.00  0.00     0.105 A 
BRANCH   7   8
HETATM    8  C   UNL     1      42.672 -16.904   2.457  1.00  0.00    -0.004 A 
HETATM    9  C   UNL     1      43.569 -15.899   2.075  1.00  0.00     0.014 A 
HETATM   10  C   UNL     1      43.098 -14.684   1.571  1.00  0.00     0.001 A 
HETATM   11  C   UNL     1      41.727 -14.459   1.455  1.00  0.00     0.000 A 
HETATM   12  C   UNL     1      40.825 -15.444   1.850  1.00  0.00     0.001 A 
HETATM   13  C   UNL     1      41.294 -16.661   2.351  1.00  0.00     0.014 A 
ENDBRANCH   7   8
ENDBRANCH   1   2
BRANCH   1  14
HETATM   14  N   UNL     1      42.770 -17.213   6.083  1.00  0.00    -0.338 N 
HETATM   15  C   UNL     1      41.957 -16.123   6.030  1.00  0.00     0.320 C 
HETATM   16  N   UNL     1      42.466 -15.019   5.407  1.00  0.00    -0.309 N 
HETATM   17  O   UNL     1      40.849 -16.228   6.544  1.00  0.00    -0.247 OA
HETATM   18  H   UNL     1      43.466 -14.989   5.297  1.00  0.00     0.170 HD
HETATM   19  H   UNL     1      42.304 -17.992   6.530  1.00  0.00     0.164 HD
BRANCH  16  20
HETATM   20  C   UNL     1      41.781 -13.830   5.076  1.00  0.00     0.036 A 
HETATM   21  C   UNL     1      40.390 -13.707   5.070  1.00  0.00     0.029 A 
HETATM   22  C   UNL     1      39.785 -12.496   4.714  1.00  0.00     0.002 A 
HETATM   23  C   UNL     1      40.566 -11.401   4.354  1.00  0.00     0.000 A 
HETATM   24  C   UNL     1      41.953 -11.514   4.349  1.00  0.00     0.002 A 
HETATM   25  C   UNL     1      42.557 -12.721   4.709  1.00  0.00     0.029 A 
ENDBRANCH  16  20
ENDBRANCH   1  14
TORSDOF 4
ENDMDL
MODEL 4
REMARK VINA RESULT:      -7.8      2.337      5.919
REMARK  4 active torsions:
REMARK  status: ('A' for Active; 'I' for Inactive)
REMARK    1  A    between atoms: C_5  and  C_6 
REMARK    2  A    between atoms: C_12  and  C_13 
REMARK    3  A    between atoms: C_13  and  N_14 
REMARK       I    between atoms: N_14  and  C_15 
REMARK       I    between atoms: C_15  and  N_16 
REMARK    4  A    between atoms: N_16  and  C_17 
ROOT
HETATM    1  C   UNL     1      41.199 -16.197   4.596  1.00  0.00     0.168 C 
ENDROOT
BRANCH   1   2
HETATM    2  C   UNL     1      42.543 -16.129   5.234  1.00  0.00     0.023 A 
HETATM    3  C   UNL     1      43.092 -15.176   6.074  1.00  0.00     0.085 A 
HETATM    4  C   UNL     1      42.622 -13.910   6.674  1.00  0.00     0.079 C 
HETATM    5  O   UNL     1      44.366 -15.523   6.382  1.00  0.00    -0.217 OA
HETATM    6  N   UNL     1      44.697 -16.696   5.751  1.00  0.00    -0.127 NA
HETATM    7  C   UNL     1      43.609 -17.077   5.066  1.00  0.00     0.105 A 
BRANCH   7   8
HETATM    8  C   UNL     1      43.637 -18.296   4.261  1.00  0.00    -0.004 A 
HETATM    9  C   UNL     1      43.328 -18.272   2.895  1.00  0.00     0.014 A 
HETATM   10  C   UNL     1      43.374 -19.447   2.140  1.00  0.00     0.001 A 
HETATM   11  C   UNL     1      43.717 -20.655   2.744  1.00  0.00     0.000 A 
HETATM   12  C   UNL     1      44.008 -20.693   4.106  1.00  0.00     0.001 A 
HETATM   13  C   UNL     1      43.967 -19.520   4.863  1.00  0.00     0.014 A 
ENDBRANCH   7   8
ENDBRANCH   1   2
BRANCH   1  14
HETATM   14  N   UNL     1      40.601 -14.887   4.473  1.00  0.00    -0.338 N 
HETATM   15  C   UNL     1      40.320 -14.146   3.367  1.00  0.00     0.320 C 
HETATM   16  N   UNL     1      40.918 -14.545   2.206  1.00  0.00    -0.309 N 
HETATM   17  O   UNL     1      39.561 -13.194   3.512  1.00  0.00    -0.247 OA
HETATM   18  H   UNL     1      41.719 -15.146   2.298  1.00  0.00     0.170 HD
HETATM   19  H   UNL     1      40.092 -14.545   5.278  1.00  0.00     0.164 HD
BRANCH  16  20
HETATM   20  C   UNL     1      40.672 -14.056   0.904  1.00  0.00     0.036 A 
HETATM   21  C   UNL     1      41.111 -12.813   0.441  1.00  0.00     0.029 A 
HETATM   22  C   UNL     1      40.812 -12.393  -0.859  1.00  0.00     0.002 A 
HETATM   23  C   UNL     1      40.064 -13.208  -1.705  1.00  0.00     0.000 A 
HETATM   24  C   UNL     1      39.614 -14.444  -1.253  1.00  0.00     0.002 A 
HETATM   25  C   UNL     1      39.917 -14.866   0.045  1.00  0.00     0.029 A 
ENDBRANCH  16  20
ENDBRANCH   1  14
TORSDOF 4
ENDMDL
MODEL 5
REMARK VINA RESULT:      -7.7      2.931      7.035
REMARK  4 active torsions:
REMARK  status: ('A' for Active; 'I' for Inactive)
REMARK    1  A    between atoms: C_5  and  C_6 
REMARK    2  A    between atoms: C_12  and  C_13 
REMARK    3  A    between atoms: C_13  and  N_14 
REMARK       I    between atoms: N_14  and  C_15 
REMARK       I    between atoms: C_15  and  N_16 
REMARK    4  A    between atoms: N_16  and  C_17 
ROOT
HETATM    1  C   UNL     1      42.925 -17.179   2.345  1.00  0.00     0.168 C 
ENDROOT
BRANCH   1   2
HETATM    2  C   UNL     1      43.415 -18.284   3.214  1.00  0.00     0.023 A 
HETATM    3  C   UNL     1      43.744 -19.591   2.905  1.00  0.00     0.085 A 
HETATM    4  C   UNL     1      43.765 -20.405   1.672  1.00  0.00     0.079 C 
HETATM    5  O   UNL     1      44.116 -20.244   4.034  1.00  0.00    -0.217 OA
HETATM    6  N   UNL     1      44.032 -19.398   5.112  1.00  0.00    -0.127 NA
HETATM    7  C   UNL     1      43.623 -18.215   4.634  1.00  0.00     0.105 A 
BRANCH   7   8
HETATM    8  C   UNL     1      43.414 -17.088   5.540  1.00  0.00    -0.004 A 
HETATM    9  C   UNL     1      44.458 -16.213   5.867  1.00  0.00     0.014 A 
HETATM   10  C   UNL     1      44.234 -15.134   6.725  1.00  0.00     0.001 A 
HETATM   11  C   UNL     1      42.969 -14.926   7.273  1.00  0.00     0.000 A 
HETATM   12  C   UNL     1      41.928 -15.801   6.970  1.00  0.00     0.001 A 
HETATM   13  C   UNL     1      42.149 -16.879   6.109  1.00  0.00     0.014 A 
ENDBRANCH   7   8
ENDBRANCH   1   2
BRANCH   1  14
HETATM   14  N   UNL     1      41.601 -16.745   2.729  1.00  0.00    -0.338 N 
HETATM   15  C   UNL     1      40.744 -15.882   2.120  1.00  0.00     0.320 C 
HETATM   16  N   UNL     1      41.278 -15.086   1.147  1.00  0.00    -0.309 N 
HETATM   17  O   UNL     1      39.577 -15.896   2.497  1.00  0.00    -0.247 OA
HETATM   18  H   UNL     1      42.279 -14.984   1.152  1.00  0.00     0.170 HD
HETATM   19  H   UNL     1      41.117 -17.317   3.410  1.00  0.00     0.164 HD
BRANCH  16  20
HETATM   20  C   UNL     1      40.584 -14.232   0.262  1.00  0.00     0.036 A 
HETATM   21  C   UNL     1      40.672 -12.839   0.293  1.00  0.00     0.029 A 
HETATM   22  C   UNL     1      39.939 -12.061  -0.610  1.00  0.00     0.002 A 
HETATM   23  C   UNL     1      39.106 -12.669  -1.545  1.00  0.00     0.000 A 
HETATM   24  C   UNL     1      39.004 -14.056  -1.580  1.00  0.00     0.002 A 
HETATM   25  C   UNL     1      39.740 -14.834  -0.682  1.00  0.00     0.029 A 
ENDBRANCH  16  20
ENDBRANCH   1  14
TORSDOF 4
ENDMDL
MODEL 6
REMARK VINA RESULT:      -7.7      2.227      6.621
REMARK  4 active torsions:
REMARK  status: ('A' for Active; 'I' for Inactive)
REMARK    1  A    between atoms: C_5  and  C_6 
REMARK    2  A    between atoms: C_12  and  C_13 
REMARK    3  A    between atoms: C_13  and  N_14 
REMARK       I    between atoms: N_14  and  C_15 
REMARK       I    between atoms: C_15  and  N_16 
REMARK    4  A    between atoms: N_16  and  C_17 
ROOT
HETATM    1  C   UNL     1      42.217 -13.882   4.741  1.00  0.00     0.168 C 
ENDROOT
BRANCH   1   2
HETATM    2  C   UNL     1      41.307 -14.530   3.757  1.00  0.00     0.023 A 
HETATM    3  C   UNL     1      40.153 -14.061   3.156  1.00  0.00     0.085 A 
HETATM    4  C   UNL     1      39.378 -12.804   3.209  1.00  0.00     0.079 C 
HETATM    5  O   UNL     1      39.640 -15.020   2.346  1.00  0.00    -0.217 OA
HETATM    6  N   UNL     1      40.427 -16.144   2.398  1.00  0.00    -0.127 NA
HETATM    7  C   UNL     1      41.437 -15.862   3.233  1.00  0.00     0.105 A 
BRANCH   7   8
HETATM    8  C   UNL     1      42.454 -16.869   3.523  1.00  0.00    -0.004 A 
HETATM    9  C   UNL     1      42.989 -17.677   2.512  1.00  0.00     0.014 A 
HETATM   10  C   UNL     1      43.971 -18.625   2.809  1.00  0.00     0.001 A 
HETATM   11  C   UNL     1      44.419 -18.781   4.120  1.00  0.00     0.000 A 
HETATM   12  C   UNL     1      43.881 -17.996   5.137  1.00  0.00     0.001 A 
HETATM   13  C   UNL     1      42.901 -17.045   4.842  1.00  0.00     0.014 A 
ENDBRANCH   7   8
ENDBRANCH   1   2
BRANCH   1  14
HETATM   14  N   UNL     1      43.005 -12.835   4.130  1.00  0.00    -0.338 N 
HETATM   15  C   UNL     1      43.764 -11.858   4.695  1.00  0.00     0.320 C 
HETATM   16  N   UNL     1      43.565 -11.635   6.028  1.00  0.00    -0.309 N 
HETATM   17  O   UNL     1      44.552 -11.270   3.963  1.00  0.00    -0.247 OA
HETATM   18  H   UNL     1      42.705 -11.983   6.417  1.00  0.00     0.170 HD
HETATM   19  H   UNL     1      43.239 -12.957   3.153  1.00  0.00     0.164 HD
BRANCH  16  20
HETATM   20  C   UNL     1      44.326 -10.804   6.880  1.00  0.00     0.036 A 
HETATM   21  C   UNL     1      45.700 -10.947   7.086  1.00  0.00     0.029 A 
HETATM   22  C   UNL     1      46.380 -10.092   7.960  1.00  0.00     0.002 A 
HETATM   23  C   UNL     1      45.691  -9.093   8.642  1.00  0.00     0.000 A 
HETATM   24  C   UNL     1      44.321  -8.945   8.451  1.00  0.00     0.002 A 
HETATM   25  C   UNL     1      43.642  -9.796   7.574  1.00  0.00     0.029 A 
ENDBRANCH  16  20
ENDBRANCH   1  14
TORSDOF 4
ENDMDL
MODEL 7
REMARK VINA RESULT:      -7.6      2.329      3.979
REMARK  4 active torsions:
REMARK  status: ('A' for Active; 'I' for Inactive)
REMARK    1  A    between atoms: C_5  and  C_6 
REMARK    2  A    between atoms: C_12  and  C_13 
REMARK    3  A    between atoms: C_13  and  N_14 
REMARK       I    between atoms: N_14  and  C_15 
REMARK       I    between atoms: C_15  and  N_16 
REMARK    4  A    between atoms: N_16  and  C_17 
ROOT
HETATM    1  C   UNL     1      40.781 -13.277   2.857  1.00  0.00     0.168 C 
ENDROOT
BRANCH   1   2
HETATM    2  C   UNL     1      40.723 -12.240   3.923  1.00  0.00     0.023 A 
HETATM    3  C   UNL     1      40.398 -10.897   3.855  1.00  0.00     0.085 A 
HETATM    4  C   UNL     1      39.984  -9.971   2.780  1.00  0.00     0.079 C 
HETATM    5  O   UNL     1      40.513 -10.338   5.085  1.00  0.00    -0.217 OA
HETATM    6  N   UNL     1      40.925 -11.284   5.991  1.00  0.00    -0.127 NA
HETATM    7  C   UNL     1      41.046 -12.433   5.311  1.00  0.00     0.105 A 
BRANCH   7   8
HETATM    8  C   UNL     1      41.491 -13.647   5.990  1.00  0.00    -0.004 A 
HETATM    9  C   UNL     1      42.793 -13.763   6.493  1.00  0.00     0.014 A 
HETATM   10  C   UNL     1      43.195 -14.928   7.151  1.00  0.00     0.001 A 
HETATM   11  C   UNL     1      42.304 -15.990   7.303  1.00  0.00     0.000 A 
HETATM   12  C   UNL     1      41.012 -15.892   6.791  1.00  0.00     0.001 A 
HETATM   13  C   UNL     1      40.607 -14.727   6.135  1.00  0.00     0.014 A 
ENDBRANCH   7   8
ENDBRANCH   1   2
BRANCH   1  14
HETATM   14  N   UNL     1      42.133 -13.490   2.393  1.00  0.00    -0.338 N 
HETATM   15  C   UNL     1      42.898 -14.615   2.392  1.00  0.00     0.320 C 
HETATM   16  N   UNL     1      42.460 -15.644   3.176  1.00  0.00    -0.309 N 
HETATM   17  O   UNL     1      43.905 -14.604   1.693  1.00  0.00    -0.247 OA
HETATM   18  H   UNL     1      41.798 -15.407   3.896  1.00  0.00     0.170 HD
HETATM   19  H   UNL     1      42.510 -12.794   1.763  1.00  0.00     0.164 HD
BRANCH  16  20
HETATM   20  C   UNL     1      42.971 -16.959   3.228  1.00  0.00     0.036 A 
HETATM   21  C   UNL     1      42.765 -17.916   2.232  1.00  0.00     0.029 A 
HETATM   22  C   UNL     1      43.292 -19.205   2.366  1.00  0.00     0.002 A 
HETATM   23  C   UNL     1      44.022 -19.551   3.499  1.00  0.00     0.000 A 
HETATM   24  C   UNL     1      44.228 -18.608   4.502  1.00  0.00     0.002 A 
HETATM   25  C   UNL     1      43.705 -17.319   4.367  1.00  0.00     0.029 A 
ENDBRANCH  16  20
ENDBRANCH   1  14
TORSDOF 4
ENDMDL
MODEL 8
REMARK VINA RESULT:      -7.5      3.543      7.055
REMARK  4 active torsions:
REMARK  status: ('A' for Active; 'I' for Inactive)
REMARK    1  A    between atoms: C_5  and  C_6 
REMARK    2  A    between atoms: C_12  and  C_13 
REMARK    3  A    between atoms: C_13  and  N_14 
REMARK       I    between atoms: N_14  and  C_15 
REMARK       I    between atoms: C_15  and  N_16 
REMARK    4  A    between atoms: N_16  and  C_17 
ROOT
HETATM    1  C   UNL     1      42.740 -15.544   1.379  1.00  0.00     0.168 C 
ENDROOT
BRANCH   1   2
HETATM    2  C   UNL     1      42.934 -15.382   2.846  1.00  0.00     0.023 A 
HETATM    3  C   UNL     1      42.912 -14.247   3.636  1.00  0.00     0.085 A 
HETATM    4  C   UNL     1      42.691 -12.806   3.395  1.00  0.00     0.079 C 
HETATM    5  O   UNL     1      43.173 -14.583   4.923  1.00  0.00    -0.217 OA
HETATM    6  N   UNL     1      43.386 -15.936   5.018  1.00  0.00    -0.127 NA
HETATM    7  C   UNL     1      43.236 -16.431   3.782  1.00  0.00     0.105 A 
BRANCH   7   8
HETATM    8  C   UNL     1      43.417 -17.859   3.534  1.00  0.00    -0.004 A 
HETATM    9  C   UNL     1      43.036 -18.441   2.318  1.00  0.00     0.014 A 
HETATM   10  C   UNL     1      43.230 -19.807   2.097  1.00  0.00     0.001 A 
HETATM   11  C   UNL     1      43.796 -20.604   3.091  1.00  0.00     0.000 A 
HETATM   12  C   UNL     1      44.161 -20.039   4.311  1.00  0.00     0.001 A 
HETATM   13  C   UNL     1      43.971 -18.673   4.534  1.00  0.00     0.014 A 
ENDBRANCH   7   8
ENDBRANCH   1   2
BRANCH   1  14
HETATM   14  N   UNL     1      41.345 -15.454   1.013  1.00  0.00    -0.338 N 
HETATM   15  C   UNL     1      40.688 -14.528   0.262  1.00  0.00     0.320 C 
HETATM   16  N   UNL     1      41.355 -13.360   0.025  1.00  0.00    -0.309 N 
HETATM   17  O   UNL     1      39.565 -14.825  -0.132  1.00  0.00    -0.247 OA
HETATM   18  H   UNL     1      42.124 -13.151   0.639  1.00  0.00     0.170 HD
HETATM   19  H   UNL     1      40.795 -16.298   1.111  1.00  0.00     0.164 HD
BRANCH  16  20
HETATM   20  C   UNL     1      40.972 -12.317  -0.847  1.00  0.00     0.036 A 
HETATM   21  C   UNL     1      40.933 -12.438  -2.238  1.00  0.00     0.029 A 
HETATM   22  C   UNL     1      40.558 -11.352  -3.036  1.00  0.00     0.002 A 
HETATM   23  C   UNL     1      40.228 -10.133  -2.450  1.00  0.00     0.000 A 
HETATM   24  C   UNL     1      40.270  -9.997  -1.066  1.00  0.00     0.002 A 
HETATM   25  C   UNL     1      40.640 -11.084  -0.269  1.00  0.00     0.029 A 
ENDBRANCH  16  20
ENDBRANCH   1  14
TORSDOF 4
ENDMDL
MODEL 9
REMARK VINA RESULT:      -7.5      3.070      6.663
REMARK  4 active torsions:
REMARK  status: ('A' for Active; 'I' for Inactive)
REMARK    1  A    between atoms: C_5  and  C_6 
REMARK    2  A    between atoms: C_12  and  C_13 
REMARK    3  A    between atoms: C_13  and  N_14 
REMARK       I    between atoms: N_14  and  C_15 
REMARK       I    between atoms: C_15  and  N_16 
REMARK    4  A    between atoms: N_16  and  C_17 
ROOT
HETATM    1  C   UNL     1      42.378 -15.247   1.898  1.00  0.00     0.168 C 
ENDROOT
BRANCH   1   2
HETATM    2  C   UNL     1      42.768 -15.247   3.334  1.00  0.00     0.023 A 
HETATM    3  C   UNL     1      42.834 -14.211   4.248  1.00  0.00     0.085 A 
HETATM    4  C   UNL     1      42.559 -12.760   4.211  1.00  0.00     0.079 C 
HETATM    5  O   UNL     1      43.274 -14.684   5.441  1.00  0.00    -0.217 OA
HETATM    6  N   UNL     1      43.519 -16.032   5.346  1.00  0.00    -0.127 NA
HETATM    7  C   UNL     1      43.210 -16.386   4.091  1.00  0.00     0.105 A 
BRANCH   7   8
HETATM    8  C   UNL     1      43.379 -17.770   3.655  1.00  0.00    -0.004 A 
HETATM    9  C   UNL     1      42.949 -18.193   2.391  1.00  0.00     0.014 A 
HETATM   10  C   UNL     1      43.132 -19.518   1.989  1.00  0.00     0.001 A 
HETATM   11  C   UNL     1      43.736 -20.434   2.849  1.00  0.00     0.000 A 
HETATM   12  C   UNL     1      44.152 -20.029   4.116  1.00  0.00     0.001 A 
HETATM   13  C   UNL     1      43.973 -18.703   4.519  1.00  0.00     0.014 A 
ENDBRANCH   7   8
ENDBRANCH   1   2
BRANCH   1  14
HETATM   14  N   UNL     1      42.249 -13.903   1.381  1.00  0.00    -0.338 N 
HETATM   15  C   UNL     1      41.366 -13.384   0.484  1.00  0.00     0.320 C 
HETATM   16  N   UNL     1      40.658 -14.286  -0.257  1.00  0.00    -0.309 N 
HETATM   17  O   UNL     1      41.288 -12.162   0.423  1.00  0.00    -0.247 OA
HETATM   18  H   UNL     1      41.030 -15.219  -0.302  1.00  0.00     0.170 HD
HETATM   19  H   UNL     1      42.704 -13.169   1.909  1.00  0.00     0.164 HD
BRANCH  16  20
HETATM   20  C   UNL     1      39.578 -14.019  -1.128  1.00  0.00     0.036 A 
HETATM   21  C   UNL     1      38.683 -12.961  -0.958  1.00  0.00     0.029 A 
HETATM   22  C   UNL     1      37.627 -12.773  -1.857  1.00  0.00     0.002 A 
HETATM   23  C   UNL     1      37.453 -13.645  -2.927  1.00  0.00     0.000 A 
HETATM   24  C   UNL     1      38.334 -14.708  -3.102  1.00  0.00     0.002 A 
HETATM   25  C   UNL     1      39.391 -14.894  -2.207  1.00  0.00     0.029 A 
ENDBRANCH  16  20
ENDBRANCH   1  14
TORSDOF 4
ENDMDL
MODEL 10
REMARK VINA RESULT:      -7.5      3.132      6.159
REMARK  4 active torsions:
REMARK  status: ('A' for Active; 'I' for Inactive)
REMARK    1  A    between atoms: C_5  and  C_6 
REMARK    2  A    between atoms: C_12  and  C_13 
REMARK    3  A    between atoms: C_13  and  N_14 
REMARK       I    between atoms: N_14  and  C_15 
REMARK       I    between atoms: C_15  and  N_16 
REMARK    4  A    between atoms: N_16  and  C_17 
ROOT
HETATM    1  C   UNL     1      41.963 -13.297   3.641  1.00  0.00     0.168 C 
ENDROOT
BRANCH   1   2
HETATM    2  C   UNL     1      41.228 -14.050   4.695  1.00  0.00     0.023 A 
HETATM    3  C   UNL     1      40.354 -13.608   5.672  1.00  0.00     0.085 A 
HETATM    4  C   UNL     1      39.795 -12.298   6.064  1.00  0.00     0.079 C 
HETATM    5  O   UNL     1      39.953 -14.657   6.431  1.00  0.00    -0.217 OA
HETATM    6  N   UNL     1      40.554 -15.810   5.990  1.00  0.00    -0.127 NA
HETATM    7  C   UNL     1      41.315 -15.463   4.942  1.00  0.00     0.105 A 
BRANCH   7   8
HETATM    8  C   UNL     1      42.112 -16.471   4.247  1.00  0.00    -0.004 A 
HETATM    9  C   UNL     1      41.841 -16.825   2.919  1.00  0.00     0.014 A 
HETATM   10  C   UNL     1      42.624 -17.782   2.268  1.00  0.00     0.001 A 
HETATM   11  C   UNL     1      43.677 -18.400   2.941  1.00  0.00     0.000 A 
HETATM   12  C   UNL     1      43.944 -18.069   4.268  1.00  0.00     0.001 A 
HETATM   13  C   UNL     1      43.164 -17.110   4.920  1.00  0.00     0.014 A 
ENDBRANCH   7   8
ENDBRANCH   1   2
BRANCH   1  14
HETATM   14  N   UNL     1      41.131 -12.285   3.032  1.00  0.00    -0.338 N 
HETATM   15  C   UNL     1      40.532 -12.253   1.811  1.00  0.00     0.320 C 
HETATM   16  N   UNL     1      40.974 -13.167   0.897  1.00  0.00    -0.309 N 
HETATM   17  O   UNL     1      39.656 -11.412   1.641  1.00  0.00    -0.247 OA
HETATM   18  H   UNL     1      41.872 -13.583   1.079  1.00  0.00     0.170 HD
HETATM   19  H   UNL     1      40.722 -11.600   3.655  1.00  0.00     0.164 HD
BRANCH  16  20
HETATM   20  C   UNL     1      40.418 -13.450  -0.370  1.00  0.00     0.036 A 
HETATM   21  C   UNL     1      39.634 -14.573  -0.644  1.00  0.00     0.029 A 
HETATM   22  C   UNL     1      39.132 -14.792  -1.931  1.00  0.00     0.002 A 
HETATM   23  C   UNL     1      39.416 -13.895  -2.957  1.00  0.00     0.000 A 
HETATM   24  C   UNL     1      40.203 -12.777  -2.698  1.00  0.00     0.002 A 
HETATM   25  C   UNL     1      40.701 -12.556  -1.411  1.00  0.00     0.029 A 
ENDBRANCH  16  20
ENDBRANCH   1  14
TORSDOF 4
ENDMDL
