MODEL 1
REMARK VINA RESULT:      -8.0      0.000      0.000
REMARK  8 active torsions:
REMARK  status: ('A' for Active; 'I' for Inactive)
REMARK    1  A    between atoms: CG_8  and  CB_9 
REMARK    2  A    between atoms: CB_9  and  CA_10 
REMARK    3  A    between atoms: CA_10  and  N_11 
REMARK    4  A    between atoms: CA_10  and  C_14 
REMARK    5  A    between atoms: N_11  and  C_19 
REMARK    6  A    between atoms: C_14  and  O_15 
REMARK    7  A    between atoms: C_19  and  C_20 
REMARK    8  A    between atoms: C_22  and  C_23 
ROOT
ATOM      1  CA  TRP A   1      41.703 -15.072   3.291  1.00  0.00     0.214 C 
ENDROOT
BRANCH   1   2
ATOM      2  CB  TRP A   1      43.106 -15.584   2.948  1.00  0.00     0.076 C 
BRANCH   2   3
ATOM      3  CG  TRP A   1      43.522 -16.735   3.803  1.00  0.00    -0.028 A 
ATOM      4  CD2 TRP A   1      43.558 -18.118   3.431  1.00  0.00    -0.002 A 
ATOM      5  CE3 TRP A   1      43.270 -18.830   2.247  1.00  0.00     0.014 A 
ATOM      6  CE2 TRP A   1      43.976 -18.838   4.551  1.00  0.00     0.042 A 
ATOM      7  CZ3 TRP A   1      43.393 -20.225   2.233  1.00  0.00     0.001 A 
ATOM      8  CH2 TRP A   1      43.803 -20.913   3.372  1.00  0.00     0.002 A 
ATOM      9  CZ2 TRP A   1      44.106 -20.230   4.553  1.00  0.00     0.030 A 
ATOM     10  NE1 TRP A   1      44.218 -17.930   5.555  1.00  0.00    -0.365 N 
ATOM     11  HE1 TRP A   1      44.558 -18.174   6.476  1.00  0.00     0.165 HD
ATOM     12  CD1 TRP A   1      43.940 -16.661   5.118  1.00  0.00     0.096 A 
ENDBRANCH   2   3
ENDBRANCH   1   2
BRANCH   1  13
ATOM     13  N   TRP A   1      41.723 -14.239   4.555  1.00  0.00    -0.064 N 
ATOM     14  H1  TRP A   1      40.742 -14.286   4.899  1.00  0.00     0.278 HD
ATOM     15  H2  TRP A   1      42.268 -14.694   5.296  1.00  0.00     0.278 HD
BRANCH  13  16
HETATM   16  C   UNK A   0      42.116 -12.812   4.428  1.00  0.00     0.280 C 
BRANCH  16  17
HETATM   17  C   UNK A   0      42.824 -12.339   5.643  1.00  0.00     0.027 A 
HETATM   18  S   UNK A   0      42.605 -10.740   6.238  1.00  0.00    -0.076 SA
HETATM   19  C   UNK A   0      43.721 -11.068   7.499  1.00  0.00     0.079 A 
HETATM   20  N   UNK A   0      44.226 -12.281   7.502  1.00  0.00    -0.257 NA
HETATM   21  C   UNK A   0      43.709 -13.014   6.457  1.00  0.00     0.133 A 
BRANCH  19  22
HETATM   22  C   UNK A   0      44.108 -10.011   8.534  1.00  0.00     0.045 C 
HETATM   23  C   UNK A   0      43.941 -10.474  10.014  1.00  0.00     0.011 C 
HETATM   24  C   UNK A   0      45.249  -9.724  10.324  1.00  0.00     0.002 C 
HETATM   25  C   UNK A   0      45.634  -9.970   8.855  1.00  0.00     0.011 C 
ENDBRANCH  19  22
ENDBRANCH  16  17
ENDBRANCH  13  16
ENDBRANCH   1  13
BRANCH   1  26
ATOM     26  C   TRP A   1      40.677 -16.195   3.550  1.00  0.00     0.197 C 
BRANCH  26  27
ATOM     27  O   TRP A   1      40.185 -16.014   4.887  1.00  0.00    -0.399 OA
ATOM     28  H   TRP A   1      40.305 -16.872   5.348  1.00  0.00     0.209 HD
ENDBRANCH  26  27
ENDBRANCH   1  26
TORSDOF 8
ENDMDL
MODEL 2
REMARK VINA RESULT:      -8.0      2.526      6.829
REMARK  8 active torsions:
REMARK  status: ('A' for Active; 'I' for Inactive)
REMARK    1  A    between atoms: CG_8  and  CB_9 
REMARK    2  A    between atoms: CB_9  and  CA_10 
REMARK    3  A    between atoms: CA_10  and  N_11 
REMARK    4  A    between atoms: CA_10  and  C_14 
REMARK    5  A    between atoms: N_11  and  C_19 
REMARK    6  A    between atoms: C_14  and  O_15 
REMARK    7  A    between atoms: C_19  and  C_20 
REMARK    8  A    between atoms: C_22  and  C_23 
ROOT
ATOM      1  CA  TRP A   1      43.422 -12.803   6.274  1.00  0.00     0.214 C 
ENDROOT
BRANCH   1   2
ATOM      2  CB  TRP A   1      42.578 -11.942   5.329  1.00  0.00     0.076 C 
BRANCH   2   3
ATOM      3  CG  TRP A   1      41.599 -12.747   4.539  1.00  0.00    -0.028 A 
ATOM      4  CD2 TRP A   1      41.892 -13.650   3.466  1.00  0.00    -0.002 A 
ATOM      5  CE3 TRP A   1      43.078 -14.088   2.839  1.00  0.00     0.014 A 
ATOM      6  CE2 TRP A   1      40.675 -14.152   3.003  1.00  0.00     0.042 A 
ATOM      7  CZ3 TRP A   1      43.001 -14.990   1.770  1.00  0.00     0.001 A 
ATOM      8  CH2 TRP A   1      41.768 -15.462   1.327  1.00  0.00     0.002 A 
ATOM      9  CZ2 TRP A   1      40.580 -15.054   1.939  1.00  0.00     0.030 A 
ATOM     10  NE1 TRP A   1      39.683 -13.605   3.783  1.00  0.00    -0.365 N 
ATOM     11  HE1 TRP A   1      38.698 -13.814   3.684  1.00  0.00     0.165 HD
ATOM     12  CD1 TRP A   1      40.228 -12.750   4.705  1.00  0.00     0.096 A 
ENDBRANCH   2   3
ENDBRANCH   1   2
BRANCH   1  13
ATOM     13  N   TRP A   1      42.545 -13.710   7.112  1.00  0.00    -0.064 N 
ATOM     14  H1  TRP A   1      42.401 -13.172   7.992  1.00  0.00     0.278 HD
ATOM     15  H2  TRP A   1      41.603 -13.792   6.715  1.00  0.00     0.278 HD
BRANCH  13  16
HETATM   16  C   UNK A   0      43.081 -15.052   7.455  1.00  0.00     0.280 C 
BRANCH  16  17
HETATM   17  C   UNK A   0      42.984 -15.980   6.302  1.00  0.00     0.027 A 
HETATM   18  S   UNK A   0      44.382 -16.735   5.644  1.00  0.00    -0.076 SA
HETATM   19  C   UNK A   0      43.400 -17.504   4.466  1.00  0.00     0.079 A 
HETATM   20  N   UNK A   0      42.114 -17.240   4.546  1.00  0.00    -0.257 NA
HETATM   21  C   UNK A   0      41.870 -16.385   5.598  1.00  0.00     0.133 A 
BRANCH  19  22
HETATM   22  C   UNK A   0      43.987 -18.419   3.392  1.00  0.00     0.045 C 
HETATM   23  C   UNK A   0      43.917 -19.938   3.737  1.00  0.00     0.011 C 
HETATM   24  C   UNK A   0      43.577 -20.189   2.257  1.00  0.00     0.002 C 
HETATM   25  C   UNK A   0      42.991 -18.766   2.243  1.00  0.00     0.011 C 
ENDBRANCH  19  22
ENDBRANCH  16  17
ENDBRANCH  13  16
ENDBRANCH   1  13
BRANCH   1  26
ATOM     26  C   TRP A   1      44.257 -11.985   7.281  1.00  0.00     0.197 C 
BRANCH  26  27
ATOM     27  O   TRP A   1      43.329 -11.301   8.139  1.00  0.00    -0.399 OA
ATOM     28  H   TRP A   1      43.141 -10.437   7.715  1.00  0.00     0.209 HD
ENDBRANCH  26  27
ENDBRANCH   1  26
TORSDOF 8
ENDMDL
MODEL 3
REMARK VINA RESULT:      -7.9      3.728      7.032
REMARK  8 active torsions:
REMARK  status: ('A' for Active; 'I' for Inactive)
REMARK    1  A    between atoms: CG_8  and  CB_9 
REMARK    2  A    between atoms: CB_9  and  CA_10 
REMARK    3  A    between atoms: CA_10  and  N_11 
REMARK    4  A    between atoms: CA_10  and  C_14 
REMARK    5  A    between atoms: N_11  and  C_19 
REMARK    6  A    between atoms: C_14  and  O_15 
REMARK    7  A    between atoms: C_19  and  C_20 
REMARK    8  A    between atoms: C_22  and  C_23 
ROOT
ATOM      1  CA  TRP A   1      41.076 -13.969   5.189  1.00  0.00     0.214 C 
ENDROOT
BRANCH   1   2
ATOM      2  CB  TRP A   1      42.396 -14.158   4.435  1.00  0.00     0.076 C 
BRANCH   2   3
ATOM      3  CG  TRP A   1      43.107 -15.410   4.829  1.00  0.00    -0.028 A 
ATOM      4  CD2 TRP A   1      43.262 -16.599   4.043  1.00  0.00    -0.002 A 
ATOM      5  CE3 TRP A   1      42.868 -16.981   2.743  1.00  0.00     0.014 A 
ATOM      6  CE2 TRP A   1      43.964 -17.521   4.820  1.00  0.00     0.042 A 
ATOM      7  CZ3 TRP A   1      43.174 -18.267   2.280  1.00  0.00     0.001 A 
ATOM      8  CH2 TRP A   1      43.867 -19.166   3.087  1.00  0.00     0.002 A 
ATOM      9  CZ2 TRP A   1      44.279 -18.808   4.373  1.00  0.00     0.030 A 
ATOM     10  NE1 TRP A   1      44.256 -16.910   6.018  1.00  0.00    -0.365 N 
ATOM     11  HE1 TRP A   1      44.783 -17.342   6.766  1.00  0.00     0.165 HD
ATOM     12  CD1 TRP A   1      43.737 -15.642   6.037  1.00  0.00     0.096 A 
ENDBRANCH   2   3
ENDBRANCH   1   2
BRANCH   1  13
ATOM     13  N   TRP A   1      39.903 -13.935   4.231  1.00  0.00    -0.064 N 
ATOM     14  H1  TRP A   1      39.899 -14.886   3.810  1.00  0.00     0.278 HD
ATOM     15  H2  TRP A   1      39.010 -13.882   4.734  1.00  0.00     0.278 HD
BRANCH  13  16
HETATM   16  C   UNK A   0      39.941 -12.929   3.139  1.00  0.00     0.280 C 
BRANCH  16  17
HETATM   17  C   UNK A   0      39.892 -13.579   1.807  1.00  0.00     0.027 A 
HETATM   18  S   UNK A   0      39.642 -12.661   0.374  1.00  0.00    -0.076 SA
HETATM   19  C   UNK A   0      39.697 -14.106  -0.549  1.00  0.00     0.079 A 
HETATM   20  N   UNK A   0      39.899 -15.207   0.141  1.00  0.00    -0.257 NA
HETATM   21  C   UNK A   0      40.025 -14.912   1.480  1.00  0.00     0.133 A 
BRANCH  19  22
HETATM   22  C   UNK A   0      39.510 -14.107  -2.066  1.00  0.00     0.045 C 
HETATM   23  C   UNK A   0      38.810 -15.383  -2.624  1.00  0.00     0.011 C 
HETATM   24  C   UNK A   0      38.056 -14.461  -3.598  1.00  0.00     0.002 C 
HETATM   25  C   UNK A   0      38.231 -13.353  -2.545  1.00  0.00     0.011 C 
ENDBRANCH  19  22
ENDBRANCH  16  17
ENDBRANCH  13  16
ENDBRANCH   1  13
BRANCH   1  26
ATOM     26  C   TRP A   1      40.998 -12.651   5.987  1.00  0.00     0.197 C 
BRANCH  26  27
ATOM     27  O   TRP A   1      39.809 -12.716   6.790  1.00  0.00    -0.399 OA
ATOM     28  H   TRP A   1      39.184 -13.308   6.318  1.00  0.00     0.209 HD
ENDBRANCH  26  27
ENDBRANCH   1  26
TORSDOF 8
ENDMDL
MODEL 4
REMARK VINA RESULT:      -7.7      2.479      3.224
REMARK  8 active torsions:
REMARK  status: ('A' for Active; 'I' for Inactive)
REMARK    1  A    between atoms: CG_8  and  CB_9 
REMARK    2  A    between atoms: CB_9  and  CA_10 
REMARK    3  A    between atoms: CA_10  and  N_11 
REMARK    4  A    between atoms: CA_10  and  C_14 
REMARK    5  A    between atoms: N_11  and  C_19 
REMARK    6  A    between atoms: C_14  and  O_15 
REMARK    7  A    between atoms: C_19  and  C_20 
REMARK    8  A    between atoms: C_22  and  C_23 
ROOT
ATOM      1  CA  TRP A   1      40.233 -14.563   1.781  1.00  0.00     0.214 C 
ENDROOT
BRANCH   1   2
ATOM      2  CB  TRP A   1      40.329 -16.035   2.192  1.00  0.00     0.076 C 
BRANCH   2   3
ATOM      3  CG  TRP A   1      41.316 -16.261   3.289  1.00  0.00    -0.028 A 
ATOM      4  CD2 TRP A   1      42.387 -17.213   3.304  1.00  0.00    -0.002 A 
ATOM      5  CE3 TRP A   1      42.871 -18.168   2.385  1.00  0.00     0.014 A 
ATOM      6  CE2 TRP A   1      43.028 -17.097   4.538  1.00  0.00     0.042 A 
ATOM      7  CZ3 TRP A   1      43.959 -18.976   2.740  1.00  0.00     0.001 A 
ATOM      8  CH2 TRP A   1      44.569 -18.841   3.984  1.00  0.00     0.002 A 
ATOM      9  CZ2 TRP A   1      44.116 -17.894   4.907  1.00  0.00     0.030 A 
ATOM     10  NE1 TRP A   1      42.397 -16.093   5.235  1.00  0.00    -0.365 N 
ATOM     11  HE1 TRP A   1      42.672 -15.777   6.156  1.00  0.00     0.165 HD
ATOM     12  CD1 TRP A   1      41.359 -15.589   4.496  1.00  0.00     0.096 A 
ENDBRANCH   2   3
ENDBRANCH   1   2
BRANCH   1  13
ATOM     13  N   TRP A   1      38.970 -13.927   2.323  1.00  0.00    -0.064 N 
ATOM     14  H1  TRP A   1      38.289 -14.021   1.542  1.00  0.00     0.278 HD
ATOM     15  H2  TRP A   1      38.561 -14.491   3.077  1.00  0.00     0.278 HD
BRANCH  13  16
HETATM   16  C   UNK A   0      39.042 -12.500   2.727  1.00  0.00     0.280 C 
BRANCH  16  17
HETATM   17  C   UNK A   0      39.842 -12.330   3.964  1.00  0.00     0.027 A 
HETATM   18  S   UNK A   0      41.476 -11.797   3.904  1.00  0.00    -0.076 SA
HETATM   19  C   UNK A   0      41.570 -11.924   5.612  1.00  0.00     0.079 A 
HETATM   20  N   UNK A   0      40.468 -12.323   6.208  1.00  0.00    -0.257 NA
HETATM   21  C   UNK A   0      39.477 -12.542   5.277  1.00  0.00     0.133 A 
BRANCH  19  22
HETATM   22  C   UNK A   0      42.853 -11.607   6.380  1.00  0.00     0.045 C 
HETATM   23  C   UNK A   0      43.597 -12.862   6.929  1.00  0.00     0.011 C 
HETATM   24  C   UNK A   0      44.915 -12.164   6.547  1.00  0.00     0.002 C 
HETATM   25  C   UNK A   0      44.106 -11.422   5.468  1.00  0.00     0.011 C 
ENDBRANCH  19  22
ENDBRANCH  16  17
ENDBRANCH  13  16
ENDBRANCH   1  13
BRANCH   1  26
ATOM     26  C   TRP A   1      40.184 -14.345   0.254  1.00  0.00     0.197 C 
BRANCH  26  27
ATOM     27  O   TRP A   1      41.213 -13.396  -0.068  1.00  0.00    -0.399 OA
ATOM     28  H   TRP A   1      40.914 -12.921  -0.873  1.00  0.00     0.209 HD
ENDBRANCH  26  27
ENDBRANCH   1  26
TORSDOF 8
ENDMDL
MODEL 5
REMARK VINA RESULT:      -7.7      1.709      2.278
REMARK  8 active torsions:
REMARK  status: ('A' for Active; 'I' for Inactive)
REMARK    1  A    between atoms: CG_8  and  CB_9 
REMARK    2  A    between atoms: CB_9  and  CA_10 
REMARK    3  A    between atoms: CA_10  and  N_11 
REMARK    4  A    between atoms: CA_10  and  C_14 
REMARK    5  A    between atoms: N_11  and  C_19 
REMARK    6  A    between atoms: C_14  and  O_15 
REMARK    7  A    between atoms: C_19  and  C_20 
REMARK    8  A    between atoms: C_22  and  C_23 
ROOT
ATOM      1  CA  TRP A   1      41.558 -13.906   5.185  1.00  0.00     0.214 C 
ENDROOT
BRANCH   1   2
ATOM      2  CB  TRP A   1      41.048 -15.236   5.748  1.00  0.00     0.076 C 
BRANCH   2   3
ATOM      3  CG  TRP A   1      42.105 -16.290   5.779  1.00  0.00    -0.028 A 
ATOM      4  CD2 TRP A   1      42.665 -16.984   4.657  1.00  0.00    -0.002 A 
ATOM      5  CE3 TRP A   1      42.470 -16.924   3.261  1.00  0.00     0.014 A 
ATOM      6  CE2 TRP A   1      43.592 -17.900   5.157  1.00  0.00     0.042 A 
ATOM      7  CZ3 TRP A   1      43.190 -17.787   2.426  1.00  0.00     0.001 A 
ATOM      8  CH2 TRP A   1      44.100 -18.697   2.960  1.00  0.00     0.002 A 
ATOM      9  CZ2 TRP A   1      44.321 -18.767   4.338  1.00  0.00     0.030 A 
ATOM     10  NE1 TRP A   1      43.622 -17.748   6.524  1.00  0.00    -0.365 N 
ATOM     11  HE1 TRP A   1      44.227 -18.271   7.144  1.00  0.00     0.165 HD
ATOM     12  CD1 TRP A   1      42.724 -16.787   6.910  1.00  0.00     0.096 A 
ENDBRANCH   2   3
ENDBRANCH   1   2
BRANCH   1  13
ATOM     13  N   TRP A   1      42.889 -13.529   5.802  1.00  0.00    -0.064 N 
ATOM     14  H1  TRP A   1      42.659 -13.353   6.801  1.00  0.00     0.278 HD
ATOM     15  H2  TRP A   1      43.528 -14.332   5.833  1.00  0.00     0.278 HD
BRANCH  13  16
HETATM   16  C   UNK A   0      43.583 -12.337   5.254  1.00  0.00     0.280 C 
BRANCH  16  17
HETATM   17  C   UNK A   0      44.339 -11.621   6.311  1.00  0.00     0.027 A 
HETATM   18  S   UNK A   0      43.544 -10.956   7.683  1.00  0.00    -0.076 SA
HETATM   19  C   UNK A   0      45.050 -10.367   8.257  1.00  0.00     0.079 A 
HETATM   20  N   UNK A   0      46.088 -10.645   7.501  1.00  0.00    -0.257 NA
HETATM   21  C   UNK A   0      45.693 -11.371   6.399  1.00  0.00     0.133 A 
BRANCH  19  22
HETATM   22  C   UNK A   0      45.165  -9.563   9.553  1.00  0.00     0.045 C 
HETATM   23  C   UNK A   0      44.043  -8.497   9.747  1.00  0.00     0.011 C 
HETATM   24  C   UNK A   0      44.031  -8.882  11.237  1.00  0.00     0.002 C 
HETATM   25  C   UNK A   0      44.533 -10.267  10.793  1.00  0.00     0.011 C 
ENDBRANCH  19  22
ENDBRANCH  16  17
ENDBRANCH  13  16
ENDBRANCH   1  13
BRANCH   1  26
ATOM     26  C   TRP A   1      40.620 -12.713   5.462  1.00  0.00     0.197 C 
BRANCH  26  27
ATOM     27  O   TRP A   1      40.022 -12.938   6.748  1.00  0.00    -0.399 OA
ATOM     28  H   TRP A   1      40.185 -13.879   6.972  1.00  0.00     0.209 HD
ENDBRANCH  26  27
ENDBRANCH   1  26
TORSDOF 8
ENDMDL
MODEL 6
REMARK VINA RESULT:      -7.6      1.907      2.869
REMARK  8 active torsions:
REMARK  status: ('A' for Active; 'I' for Inactive)
REMARK    1  A    between atoms: CG_8  and  CB_9 
REMARK    2  A    between atoms: CB_9  and  CA_10 
REMARK    3  A    between atoms: CA_10  and  N_11 
REMARK    4  A    between atoms: CA_10  and  C_14 
REMARK    5  A    between atoms: N_11  and  C_19 
REMARK    6  A    between atoms: C_14  and  O_15 
REMARK    7  A    between atoms: C_19  and  C_20 
REMARK    8  A    between atoms: C_22  and  C_23 
ROOT
ATOM      1  CA  TRP A   1      41.579 -13.082   4.941  1.00  0.00     0.214 C 
ENDROOT
BRANCH   1   2
ATOM      2  CB  TRP A   1      42.977 -13.436   4.423  1.00  0.00     0.076 C 
BRANCH   2   3
ATOM      3  CG  TRP A   1      42.948 -14.493   3.370  1.00  0.00    -0.028 A 
ATOM      4  CD2 TRP A   1      43.228 -15.889   3.540  1.00  0.00    -0.002 A 
ATOM      5  CE3 TRP A   1      43.571 -16.700   4.642  1.00  0.00     0.014 A 
ATOM      6  CE2 TRP A   1      43.114 -16.489   2.285  1.00  0.00     0.042 A 
ATOM      7  CZ3 TRP A   1      43.803 -18.067   4.447  1.00  0.00     0.001 A 
ATOM      8  CH2 TRP A   1      43.691 -18.632   3.179  1.00  0.00     0.002 A 
ATOM      9  CZ2 TRP A   1      43.340 -17.853   2.073  1.00  0.00     0.030 A 
ATOM     10  NE1 TRP A   1      42.747 -15.510   1.393  1.00  0.00    -0.365 N 
ATOM     11  HE1 TRP A   1      42.569 -15.670   0.410  1.00  0.00     0.165 HD
ATOM     12  CD1 TRP A   1      42.653 -14.302   2.033  1.00  0.00     0.096 A 
ENDBRANCH   2   3
ENDBRANCH   1   2
BRANCH   1  13
ATOM     13  N   TRP A   1      41.580 -11.734   5.630  1.00  0.00    -0.064 N 
ATOM     14  H1  TRP A   1      40.809 -11.215   5.162  1.00  0.00     0.278 HD
ATOM     15  H2  TRP A   1      41.270 -11.811   6.606  1.00  0.00     0.278 HD
BRANCH  13  16
HETATM   16  C   UNK A   0      42.822 -10.924   5.546  1.00  0.00     0.280 C 
BRANCH  16  17
HETATM   17  C   UNK A   0      43.486 -10.819   6.869  1.00  0.00     0.027 A 
HETATM   18  S   UNK A   0      42.923  -9.721   8.067  1.00  0.00    -0.076 SA
HETATM   19  C   UNK A   0      44.187 -10.228   9.110  1.00  0.00     0.079 A 
HETATM   20  N   UNK A   0      44.978 -11.159   8.625  1.00  0.00    -0.257 NA
HETATM   21  C   UNK A   0      44.577 -11.509   7.355  1.00  0.00     0.133 A 
BRANCH  19  22
HETATM   22  C   UNK A   0      44.381  -9.625  10.502  1.00  0.00     0.045 C 
HETATM   23  C   UNK A   0      43.532  -8.344  10.768  1.00  0.00     0.011 C 
HETATM   24  C   UNK A   0      43.303  -8.876  12.194  1.00  0.00     0.002 C 
HETATM   25  C   UNK A   0      43.497 -10.284  11.606  1.00  0.00     0.011 C 
ENDBRANCH  19  22
ENDBRANCH  16  17
ENDBRANCH  13  16
ENDBRANCH   1  13
BRANCH   1  26
ATOM     26  C   TRP A   1      41.030 -14.080   5.982  1.00  0.00     0.197 C 
BRANCH  26  27
ATOM     27  O   TRP A   1      39.995 -13.401   6.709  1.00  0.00    -0.399 OA
ATOM     28  H   TRP A   1      39.430 -12.955   6.042  1.00  0.00     0.209 HD
ENDBRANCH  26  27
ENDBRANCH   1  26
TORSDOF 8
ENDMDL
MODEL 7
REMARK VINA RESULT:      -7.6      1.640      2.169
REMARK  8 active torsions:
REMARK  status: ('A' for Active; 'I' for Inactive)
REMARK    1  A    between atoms: CG_8  and  CB_9 
REMARK    2  A    between atoms: CB_9  and  CA_10 
REMARK    3  A    between atoms: CA_10  and  N_11 
REMARK    4  A    between atoms: CA_10  and  C_14 
REMARK    5  A    between atoms: N_11  and  C_19 
REMARK    6  A    between atoms: C_14  and  O_15 
REMARK    7  A    between atoms: C_19  and  C_20 
REMARK    8  A    between atoms: C_22  and  C_23 
ROOT
ATOM      1  CA  TRP A   1      42.059 -15.331   5.496  1.00  0.00     0.214 C 
ENDROOT
BRANCH   1   2
ATOM      2  CB  TRP A   1      43.452 -15.733   5.001  1.00  0.00     0.076 C 
BRANCH   2   3
ATOM      3  CG  TRP A   1      43.405 -16.801   3.959  1.00  0.00    -0.028 A 
ATOM      4  CD2 TRP A   1      43.618 -18.205   4.152  1.00  0.00    -0.002 A 
ATOM      5  CE3 TRP A   1      43.897 -19.016   5.272  1.00  0.00     0.014 A 
ATOM      6  CE2 TRP A   1      43.511 -18.815   2.902  1.00  0.00     0.042 A 
ATOM      7  CZ3 TRP A   1      44.073 -20.395   5.098  1.00  0.00     0.001 A 
ATOM      8  CH2 TRP A   1      43.970 -20.970   3.834  1.00  0.00     0.002 A 
ATOM      9  CZ2 TRP A   1      43.683 -20.190   2.711  1.00  0.00     0.030 A 
ATOM     10  NE1 TRP A   1      43.211 -17.831   1.989  1.00  0.00    -0.365 N 
ATOM     11  HE1 TRP A   1      43.053 -17.996   1.003  1.00  0.00     0.165 HD
ATOM     12  CD1 TRP A   1      43.154 -16.613   2.613  1.00  0.00     0.096 A 
ENDBRANCH   2   3
ENDBRANCH   1   2
BRANCH   1  13
ATOM     13  N   TRP A   1      41.719 -13.916   5.074  1.00  0.00    -0.064 N 
ATOM     14  H1  TRP A   1      41.102 -14.045   4.246  1.00  0.00     0.278 HD
ATOM     15  H2  TRP A   1      41.115 -13.454   5.764  1.00  0.00     0.278 HD
BRANCH  13  16
HETATM   16  C   UNK A   0      42.846 -13.026   4.697  1.00  0.00     0.280 C 
BRANCH  16  17
HETATM   17  C   UNK A   0      43.169 -12.075   5.788  1.00  0.00     0.027 A 
HETATM   18  S   UNK A   0      44.512 -12.334   6.831  1.00  0.00    -0.076 SA
HETATM   19  C   UNK A   0      44.108 -10.905   7.690  1.00  0.00     0.079 A 
HETATM   20  N   UNK A   0      43.056 -10.257   7.241  1.00  0.00    -0.257 NA
HETATM   21  C   UNK A   0      42.526 -10.910   6.151  1.00  0.00     0.133 A 
BRANCH  19  22
HETATM   22  C   UNK A   0      44.912 -10.432   8.901  1.00  0.00     0.045 C 
HETATM   23  C   UNK A   0      44.982  -8.882   9.058  1.00  0.00     0.011 C 
HETATM   24  C   UNK A   0      44.837  -9.097  10.574  1.00  0.00     0.002 C 
HETATM   25  C   UNK A   0      44.095 -10.400  10.229  1.00  0.00     0.011 C 
ENDBRANCH  19  22
ENDBRANCH  16  17
ENDBRANCH  13  16
ENDBRANCH   1  13
BRANCH   1  26
ATOM     26  C   TRP A   1      41.914 -15.353   7.032  1.00  0.00     0.197 C 
BRANCH  26  27
ATOM     27  O   TRP A   1      42.606 -16.520   7.502  1.00  0.00    -0.399 OA
ATOM     28  H   TRP A   1      42.038 -17.290   7.284  1.00  0.00     0.209 HD
ENDBRANCH  26  27
ENDBRANCH   1  26
TORSDOF 8
ENDMDL
MODEL 8
REMARK VINA RESULT:      -7.5      4.119      6.814
REMARK  8 active torsions:
REMARK  status: ('A' for Active; 'I' for Inactive)
REMARK    1  A    between atoms: CG_8  and  CB_9 
REMARK    2  A    between atoms: CB_9  and  CA_10 
REMARK    3  A    between atoms: CA_10  and  N_11 
REMARK    4  A    between atoms: CA_10  and  C_14 
REMARK    5  A    between atoms: N_11  and  C_19 
REMARK    6  A    between atoms: C_14  and  O_15 
REMARK    7  A    between atoms: C_19  and  C_20 
REMARK    8  A    between atoms: C_22  and  C_23 
ROOT
ATOM      1  CA  TRP A   1      41.032 -15.114   3.892  1.00  0.00     0.214 C 
ENDROOT
BRANCH   1   2
ATOM      2  CB  TRP A   1      42.442 -15.364   3.349  1.00  0.00     0.076 C 
BRANCH   2   3
ATOM      3  CG  TRP A   1      43.112 -16.526   4.005  1.00  0.00    -0.028 A 
ATOM      4  CD2 TRP A   1      43.261 -17.848   3.473  1.00  0.00    -0.002 A 
ATOM      5  CE3 TRP A   1      42.897 -18.472   2.261  1.00  0.00     0.014 A 
ATOM      6  CE2 TRP A   1      43.918 -18.612   4.439  1.00  0.00     0.042 A 
ATOM      7  CZ3 TRP A   1      43.186 -19.829   2.069  1.00  0.00     0.001 A 
ATOM      8  CH2 TRP A   1      43.833 -20.564   3.059  1.00  0.00     0.002 A 
ATOM      9  CZ2 TRP A   1      44.215 -19.967   4.263  1.00  0.00     0.030 A 
ATOM     10  NE1 TRP A   1      44.188 -17.783   5.502  1.00  0.00    -0.365 N 
ATOM     11  HE1 TRP A   1      44.682 -18.068   6.338  1.00  0.00     0.165 HD
ATOM     12  CD1 TRP A   1      43.699 -16.527   5.255  1.00  0.00     0.096 A 
ENDBRANCH   2   3
ENDBRANCH   1   2
BRANCH   1  13
ATOM     13  N   TRP A   1      39.993 -15.277   2.802  1.00  0.00    -0.064 N 
ATOM     14  H1  TRP A   1      39.390 -16.051   3.148  1.00  0.00     0.278 HD
ATOM     15  H2  TRP A   1      39.361 -14.469   2.762  1.00  0.00     0.278 HD
BRANCH  13  16
HETATM   16  C   UNK A   0      40.479 -15.621   1.441  1.00  0.00     0.280 C 
BRANCH  16  17
HETATM   17  C   UNK A   0      39.985 -14.651   0.433  1.00  0.00     0.027 A 
HETATM   18  S   UNK A   0      39.864 -12.974   0.791  1.00  0.00    -0.076 SA
HETATM   19  C   UNK A   0      39.240 -12.693  -0.782  1.00  0.00     0.079 A 
HETATM   20  N   UNK A   0      39.131 -13.759  -1.543  1.00  0.00    -0.257 NA
HETATM   21  C   UNK A   0      39.567 -14.875  -0.863  1.00  0.00     0.133 A 
BRANCH  19  22
HETATM   22  C   UNK A   0      38.827 -11.299  -1.254  1.00  0.00     0.045 C 
HETATM   23  C   UNK A   0      38.491 -11.210  -2.774  1.00  0.00     0.011 C 
HETATM   24  C   UNK A   0      37.340 -10.262  -2.395  1.00  0.00     0.002 C 
HETATM   25  C   UNK A   0      37.316 -10.978  -1.033  1.00  0.00     0.011 C 
ENDBRANCH  19  22
ENDBRANCH  16  17
ENDBRANCH  13  16
ENDBRANCH   1  13
BRANCH   1  26
ATOM     26  C   TRP A   1      40.824 -13.692   4.453  1.00  0.00     0.197 C 
BRANCH  26  27
ATOM     27  O   TRP A   1      39.418 -13.408   4.366  1.00  0.00    -0.399 OA
ATOM     28  H   TRP A   1      39.092 -13.324   5.288  1.00  0.00     0.209 HD
ENDBRANCH  26  27
ENDBRANCH   1  26
TORSDOF 8
ENDMDL
MODEL 9
REMARK VINA RESULT:      -7.4      2.112      8.418
REMARK  8 active torsions:
REMARK  status: ('A' for Active; 'I' for Inactive)
REMARK    1  A    between atoms: CG_8  and  CB_9 
REMARK    2  A    between atoms: CB_9  and  CA_10 
REMARK    3  A    between atoms: CA_10  and  N_11 
REMARK    4  A    between atoms: CA_10  and  C_14 
REMARK    5  A    between atoms: N_11  and  C_19 
REMARK    6  A    between atoms: C_14  and  O_15 
REMARK    7  A    between atoms: C_19  and  C_20 
REMARK    8  A    between atoms: C_22  and  C_23 
ROOT
ATOM      1  CA  TRP A   1      41.667 -12.996   6.082  1.00  0.00     0.214 C 
ENDROOT
BRANCH   1   2
ATOM      2  CB  TRP A   1      42.107 -11.658   5.481  1.00  0.00     0.076 C 
BRANCH   2   3
ATOM      3  CG  TRP A   1      42.455 -10.647   6.523  1.00  0.00    -0.028 A 
ATOM      4  CD2 TRP A   1      43.750 -10.396   7.084  1.00  0.00    -0.002 A 
ATOM      5  CE3 TRP A   1      45.038 -10.931   6.872  1.00  0.00     0.014 A 
ATOM      6  CE2 TRP A   1      43.599  -9.393   8.042  1.00  0.00     0.042 A 
ATOM      7  CZ3 TRP A   1      46.115 -10.458   7.631  1.00  0.00     0.001 A 
ATOM      8  CH2 TRP A   1      45.927  -9.462   8.587  1.00  0.00     0.002 A 
ATOM      9  CZ2 TRP A   1      44.664  -8.908   8.808  1.00  0.00     0.030 A 
ATOM     10  NE1 TRP A   1      42.275  -9.022   8.042  1.00  0.00    -0.365 N 
ATOM     11  HE1 TRP A   1      41.886  -8.293   8.626  1.00  0.00     0.165 HD
ATOM     12  CD1 TRP A   1      41.575  -9.777   7.137  1.00  0.00     0.096 A 
ENDBRANCH   2   3
ENDBRANCH   1   2
BRANCH   1  13
ATOM     13  N   TRP A   1      42.792 -14.008   6.039  1.00  0.00    -0.064 N 
ATOM     14  H1  TRP A   1      42.799 -14.330   5.050  1.00  0.00     0.278 HD
ATOM     15  H2  TRP A   1      43.707 -13.558   6.159  1.00  0.00     0.278 HD
BRANCH  13  16
HETATM   16  C   UNK A   0      42.680 -15.194   6.927  1.00  0.00     0.280 C 
BRANCH  16  17
HETATM   17  C   UNK A   0      43.111 -16.430   6.231  1.00  0.00     0.027 A 
HETATM   18  S   UNK A   0      43.438 -16.437   4.543  1.00  0.00    -0.076 SA
HETATM   19  C   UNK A   0      43.790 -18.114   4.628  1.00  0.00     0.079 A 
HETATM   20  N   UNK A   0      43.688 -18.650   5.823  1.00  0.00    -0.257 NA
HETATM   21  C   UNK A   0      43.316 -17.695   6.742  1.00  0.00     0.133 A 
BRANCH  19  22
HETATM   22  C   UNK A   0      44.180 -18.924   3.391  1.00  0.00     0.045 C 
HETATM   23  C   UNK A   0      43.738 -20.419   3.440  1.00  0.00     0.011 C 
HETATM   24  C   UNK A   0      43.400 -20.297   1.944  1.00  0.00     0.002 C 
HETATM   25  C   UNK A   0      43.170 -18.798   2.208  1.00  0.00     0.011 C 
ENDBRANCH  19  22
ENDBRANCH  16  17
ENDBRANCH  13  16
ENDBRANCH   1  13
BRANCH   1  26
ATOM     26  C   TRP A   1      40.487 -13.655   5.337  1.00  0.00     0.197 C 
BRANCH  26  27
ATOM     27  O   TRP A   1      39.451 -13.879   6.307  1.00  0.00    -0.399 OA
ATOM     28  H   TRP A   1      38.747 -13.221   6.123  1.00  0.00     0.209 HD
ENDBRANCH  26  27
ENDBRANCH   1  26
TORSDOF 8
ENDMDL
MODEL 10
REMARK VINA RESULT:      -7.3      2.949      5.189
REMARK  8 active torsions:
REMARK  status: ('A' for Active; 'I' for Inactive)
REMARK    1  A    between atoms: CG_8  and  CB_9 
REMARK    2  A    between atoms: CB_9  and  CA_10 
REMARK    3  A    between atoms: CA_10  and  N_11 
REMARK    4  A    between atoms: CA_10  and  C_14 
REMARK    5  A    between atoms: N_11  and  C_19 
REMARK    6  A    between atoms: C_14  and  O_15 
REMARK    7  A    between atoms: C_19  and  C_20 
REMARK    8  A    between atoms: C_22  and  C_23 
ROOT
ATOM      1  CA  TRP A   1      42.212 -15.468   5.795  1.00  0.00     0.214 C 
ENDROOT
BRANCH   1   2
ATOM      2  CB  TRP A   1      43.582 -15.980   5.340  1.00  0.00     0.076 C 
BRANCH   2   3
ATOM      3  CG  TRP A   1      43.491 -16.905   4.172  1.00  0.00    -0.028 A 
ATOM      4  CD2 TRP A   1      43.682 -18.325   4.178  1.00  0.00    -0.002 A 
ATOM      5  CE3 TRP A   1      43.971 -19.278   5.177  1.00  0.00     0.014 A 
ATOM      6  CE2 TRP A   1      43.535 -18.768   2.863  1.00  0.00     0.042 A 
ATOM      7  CZ3 TRP A   1      44.118 -20.625   4.824  1.00  0.00     0.001 A 
ATOM      8  CH2 TRP A   1      43.974 -21.032   3.500  1.00  0.00     0.002 A 
ATOM      9  CZ2 TRP A   1      43.676 -20.110   2.494  1.00  0.00     0.030 A 
ATOM     10  NE1 TRP A   1      43.232 -17.671   2.091  1.00  0.00    -0.365 N 
ATOM     11  HE1 TRP A   1      43.048 -17.705   1.097  1.00  0.00     0.165 HD
ATOM     12  CD1 TRP A   1      43.212 -16.542   2.868  1.00  0.00     0.096 A 
ENDBRANCH   2   3
ENDBRANCH   1   2
BRANCH   1  13
ATOM     13  N   TRP A   1      42.221 -13.963   5.959  1.00  0.00    -0.064 N 
ATOM     14  H1  TRP A   1      41.304 -13.664   5.567  1.00  0.00     0.278 HD
ATOM     15  H2  TRP A   1      42.168 -13.693   6.948  1.00  0.00     0.278 HD
BRANCH  13  16
HETATM   16  C   UNK A   0      43.302 -13.207   5.275  1.00  0.00     0.280 C 
BRANCH  16  17
HETATM   17  C   UNK A   0      42.791 -12.510   4.069  1.00  0.00     0.027 A 
HETATM   18  S   UNK A   0      41.478 -13.146   3.160  1.00  0.00    -0.076 SA
HETATM   19  C   UNK A   0      41.612 -11.831   2.066  1.00  0.00     0.079 A 
HETATM   20  N   UNK A   0      42.556 -10.960   2.346  1.00  0.00    -0.257 NA
HETATM   21  C   UNK A   0      43.221 -11.334   3.493  1.00  0.00     0.133 A 
BRANCH  19  22
HETATM   22  C   UNK A   0      40.703 -11.696   0.844  1.00  0.00     0.045 C 
HETATM   23  C   UNK A   0      40.781 -12.896  -0.148  1.00  0.00     0.011 C 
HETATM   24  C   UNK A   0      39.258 -12.761  -0.325  1.00  0.00     0.002 C 
HETATM   25  C   UNK A   0      39.236 -12.164   1.093  1.00  0.00     0.011 C 
ENDBRANCH  19  22
ENDBRANCH  16  17
ENDBRANCH  13  16
ENDBRANCH   1  13
BRANCH   1  26
ATOM     26  C   TRP A   1      41.757 -16.031   7.157  1.00  0.00     0.197 C 
BRANCH  26  27
ATOM     27  O   TRP A   1      42.863 -15.883   8.063  1.00  0.00    -0.399 OA
ATOM     28  H   TRP A   1      42.483 -15.860   8.967  1.00  0.00     0.209 HD
ENDBRANCH  26  27
ENDBRANCH   1  26
TORSDOF 8
ENDMDL
