MODEL 1
REMARK VINA RESULT:      -8.7      0.000      0.000
REMARK  6 active torsions:
REMARK  status: ('A' for Active; 'I' for Inactive)
REMARK    1  A    between atoms: C_2  and  O_3 
REMARK    2  A    between atoms: O_3  and  C_4 
REMARK    3  A    between atoms: C_5  and  N_6 
REMARK    4  A    between atoms: N_6  and  C_7 
REMARK    5  A    between atoms: C_8  and  C_9 
REMARK    6  A    between atoms: C_12  and  C_13 
ROOT
HETATM    1  C   UNL     1      40.260 -15.598   2.263  1.00  0.00     0.087 C 
HETATM    2  C   UNL     1      40.212 -14.350   1.766  1.00  0.00     0.077 C 
HETATM    3  C   UNL     1      39.836 -14.107   0.314  1.00  0.00     0.023 C 
HETATM    4  N   UNL     1      39.524 -13.905  -0.891  1.00  0.00    -0.096 N 
ENDROOT
BRANCH   2   5
HETATM    5  C   UNL     1      40.539 -13.213   2.582  1.00  0.00     0.118 A 
HETATM    6  S   UNL     1      39.436 -11.867   2.668  1.00  0.00    -0.078 SA
HETATM    7  C   UNL     1      40.462 -11.075   3.776  1.00  0.00     0.084 A 
HETATM    8  C   UNL     1      41.581 -11.840   4.020  1.00  0.00     0.081 A 
HETATM    9  N   UNL     1      41.602 -13.065   3.360  1.00  0.00    -0.239 NA
BRANCH   8  10
HETATM   10  C   UNL     1      42.664 -11.507   4.910  1.00  0.00     0.070 A 
HETATM   11  C   UNL     1      44.077 -11.533   4.403  1.00  0.00     0.301 A 
HETATM   12  O   UNL     1      44.372 -11.876   3.261  1.00  0.00    -0.259 OA
HETATM   13  O   UNL     1      45.082 -11.142   5.283  1.00  0.00    -0.274 OA
HETATM   14  C   UNL     1      44.814 -10.798   6.616  1.00  0.00     0.089 A 
HETATM   15  C   UNL     1      43.514 -10.820   7.100  1.00  0.00     0.000 A 
HETATM   16  C   UNL     1      45.895 -10.446   7.420  1.00  0.00     0.039 A 
HETATM   17  C   UNL     1      43.284 -10.480   8.435  1.00  0.00     0.033 A 
HETATM   18  C   UNL     1      42.436 -11.181   6.196  1.00  0.00     0.034 A 
HETATM   19  C   UNL     1      44.360 -10.125   9.252  1.00  0.00     0.012 A 
HETATM   20  C   UNL     1      45.665 -10.105   8.751  1.00  0.00     0.022 A 
HETATM   21 BR   UNL     1      44.049  -9.666  11.060  1.00  0.00    -0.051 Br
ENDBRANCH   8  10
ENDBRANCH   2   5
BRANCH   1  22
HETATM   22  N   UNL     1      40.735 -16.028   3.490  1.00  0.00    -0.266 NA
HETATM   23  H   UNL     1      40.010 -16.502   4.045  1.00  0.00     0.133 HD
BRANCH  22  24
HETATM   24  C   UNL     1      41.933 -16.774   3.679  1.00  0.00     0.045 A 
HETATM   25  C   UNL     1      42.464 -16.896   4.984  1.00  0.00     0.090 A 
HETATM   26  C   UNL     1      43.595 -17.688   5.213  1.00  0.00     0.038 A 
HETATM   27  C   UNL     1      44.222 -18.336   4.150  1.00  0.00     0.003 A 
HETATM   28  C   UNL     1      43.727 -18.194   2.856  1.00  0.00     0.002 A 
HETATM   29  C   UNL     1      42.594 -17.412   2.620  1.00  0.00     0.026 A 
BRANCH  25  30
HETATM   30  O   UNL     1      41.788 -16.247   5.992  1.00  0.00    -0.350 OA
BRANCH  30  31
HETATM   31  C   UNL     1      42.543 -16.058   7.193  1.00  0.00     0.171 C 
HETATM   32  C   UNL     1      43.094 -14.643   7.197  1.00  0.00     0.034 C 
ENDBRANCH  30  31
ENDBRANCH  25  30
ENDBRANCH  22  24
ENDBRANCH   1  22
TORSDOF 6
ENDMDL
MODEL 2
REMARK VINA RESULT:      -8.7      3.802      6.973
REMARK  6 active torsions:
REMARK  status: ('A' for Active; 'I' for Inactive)
REMARK    1  A    between atoms: C_2  and  O_3 
REMARK    2  A    between atoms: O_3  and  C_4 
REMARK    3  A    between atoms: C_5  and  N_6 
REMARK    4  A    between atoms: N_6  and  C_7 
REMARK    5  A    between atoms: C_8  and  C_9 
REMARK    6  A    between atoms: C_12  and  C_13 
ROOT
HETATM    1  C   UNL     1      43.330 -15.396   6.477  1.00  0.00     0.087 C 
HETATM    2  C   UNL     1      43.070 -14.118   6.152  1.00  0.00     0.077 C 
HETATM    3  C   UNL     1      43.905 -12.986   6.727  1.00  0.00     0.023 C 
HETATM    4  N   UNL     1      44.598 -12.047   7.204  1.00  0.00    -0.096 N 
ENDROOT
BRANCH   2   5
HETATM    5  C   UNL     1      41.983 -13.781   5.274  1.00  0.00     0.118 A 
HETATM    6  S   UNL     1      40.553 -13.024   5.921  1.00  0.00    -0.078 SA
HETATM    7  C   UNL     1      39.875 -12.930   4.360  1.00  0.00     0.084 A 
HETATM    8  C   UNL     1      40.734 -13.478   3.434  1.00  0.00     0.081 A 
HETATM    9  N   UNL     1      41.941 -13.932   3.958  1.00  0.00    -0.239 NA
BRANCH   8  10
HETATM   10  C   UNL     1      40.512 -13.566   2.013  1.00  0.00     0.070 A 
HETATM   11  C   UNL     1      40.015 -14.851   1.417  1.00  0.00     0.301 A 
HETATM   12  O   UNL     1      39.828 -15.869   2.080  1.00  0.00    -0.259 OA
HETATM   13  O   UNL     1      39.755 -14.867   0.049  1.00  0.00    -0.274 OA
HETATM   14  C   UNL     1      40.005 -13.757  -0.769  1.00  0.00     0.089 A 
HETATM   15  C   UNL     1      40.510 -12.583  -0.229  1.00  0.00     0.000 A 
HETATM   16  C   UNL     1      39.734 -13.885  -2.130  1.00  0.00     0.039 A 
HETATM   17  C   UNL     1      40.756 -11.499  -1.075  1.00  0.00     0.033 A 
HETATM   18  C   UNL     1      40.752 -12.519   1.202  1.00  0.00     0.034 A 
HETATM   19  C   UNL     1      40.489 -11.617  -2.441  1.00  0.00     0.012 A 
HETATM   20  C   UNL     1      39.978 -12.804  -2.973  1.00  0.00     0.022 A 
HETATM   21 BR   UNL     1      40.822 -10.150  -3.587  1.00  0.00    -0.051 Br
ENDBRANCH   8  10
ENDBRANCH   2   5
BRANCH   1  22
HETATM   22  N   UNL     1      42.591 -16.532   6.194  1.00  0.00    -0.266 NA
HETATM   23  H   UNL     1      41.792 -16.334   5.577  1.00  0.00     0.133 HD
BRANCH  22  24
HETATM   24  C   UNL     1      43.142 -17.767   5.749  1.00  0.00     0.045 A 
HETATM   25  C   UNL     1      43.638 -17.858   4.429  1.00  0.00     0.090 A 
HETATM   26  C   UNL     1      44.257 -19.033   3.988  1.00  0.00     0.038 A 
HETATM   27  C   UNL     1      44.359 -20.133   4.840  1.00  0.00     0.003 A 
HETATM   28  C   UNL     1      43.842 -20.064   6.131  1.00  0.00     0.002 A 
HETATM   29  C   UNL     1      43.229 -18.892   6.582  1.00  0.00     0.026 A 
BRANCH  25  30
HETATM   30  O   UNL     1      43.524 -16.733   3.645  1.00  0.00    -0.350 OA
BRANCH  30  31
HETATM   31  C   UNL     1      43.164 -16.987   2.283  1.00  0.00     0.171 C 
HETATM   32  C   UNL     1      43.522 -15.765   1.455  1.00  0.00     0.034 C 
ENDBRANCH  30  31
ENDBRANCH  25  30
ENDBRANCH  22  24
ENDBRANCH   1  22
TORSDOF 6
ENDMDL
MODEL 3
REMARK VINA RESULT:      -8.7      3.579      7.693
REMARK  6 active torsions:
REMARK  status: ('A' for Active; 'I' for Inactive)
REMARK    1  A    between atoms: C_2  and  O_3 
REMARK    2  A    between atoms: O_3  and  C_4 
REMARK    3  A    between atoms: C_5  and  N_6 
REMARK    4  A    between atoms: N_6  and  C_7 
REMARK    5  A    between atoms: C_8  and  C_9 
REMARK    6  A    between atoms: C_12  and  C_13 
ROOT
HETATM    1  C   UNL     1      41.288  -9.760   7.187  1.00  0.00     0.087 C 
HETATM    2  C   UNL     1      40.763 -10.200   6.031  1.00  0.00     0.077 C 
HETATM    3  C   UNL     1      39.398  -9.721   5.566  1.00  0.00     0.023 C 
HETATM    4  N   UNL     1      38.265  -9.323   5.179  1.00  0.00    -0.096 N 
ENDROOT
BRANCH   2   5
HETATM    5  C   UNL     1      41.462 -11.155   5.214  1.00  0.00     0.118 A 
HETATM    6  S   UNL     1      42.004 -10.696   3.623  1.00  0.00    -0.078 SA
HETATM    7  C   UNL     1      42.708 -12.232   3.401  1.00  0.00     0.084 A 
HETATM    8  C   UNL     1      42.495 -13.019   4.511  1.00  0.00     0.081 A 
HETATM    9  N   UNL     1      41.812 -12.389   5.548  1.00  0.00    -0.239 NA
BRANCH   8  10
HETATM   10  C   UNL     1      42.952 -14.373   4.698  1.00  0.00     0.070 A 
HETATM   11  C   UNL     1      43.563 -14.776   6.008  1.00  0.00     0.301 A 
HETATM   12  O   UNL     1      43.744 -13.988   6.933  1.00  0.00    -0.259 OA
HETATM   13  O   UNL     1      43.929 -16.111   6.162  1.00  0.00    -0.274 OA
HETATM   14  C   UNL     1      43.802 -17.043   5.122  1.00  0.00     0.089 A 
HETATM   15  C   UNL     1      43.281 -16.661   3.894  1.00  0.00     0.000 A 
HETATM   16  C   UNL     1      44.222 -18.348   5.372  1.00  0.00     0.039 A 
HETATM   17  C   UNL     1      43.178 -17.614   2.878  1.00  0.00     0.033 A 
HETATM   18  C   UNL     1      42.850 -15.286   3.714  1.00  0.00     0.034 A 
HETATM   19  C   UNL     1      43.596 -18.925   3.117  1.00  0.00     0.012 A 
HETATM   20  C   UNL     1      44.116 -19.298   4.359  1.00  0.00     0.022 A 
HETATM   21 BR   UNL     1      43.455 -20.214   1.740  1.00  0.00    -0.051 Br
ENDBRANCH   8  10
ENDBRANCH   2   5
BRANCH   1  22
HETATM   22  N   UNL     1      42.420 -10.199   7.851  1.00  0.00    -0.266 NA
HETATM   23  H   UNL     1      43.253 -10.192   7.247  1.00  0.00     0.133 HD
BRANCH  22  24
HETATM   24  C   UNL     1      42.847  -9.726   9.125  1.00  0.00     0.045 A 
HETATM   25  C   UNL     1      44.088 -10.168   9.637  1.00  0.00     0.090 A 
HETATM   26  C   UNL     1      44.572  -9.661  10.848  1.00  0.00     0.038 A 
HETATM   27  C   UNL     1      43.816  -8.740  11.572  1.00  0.00     0.003 A 
HETATM   28  C   UNL     1      42.576  -8.324  11.093  1.00  0.00     0.002 A 
HETATM   29  C   UNL     1      42.090  -8.820   9.881  1.00  0.00     0.026 A 
BRANCH  25  30
HETATM   30  O   UNL     1      44.794 -11.064   8.866  1.00  0.00    -0.350 OA
BRANCH  30  31
HETATM   31  C   UNL     1      45.804 -10.476   8.040  1.00  0.00     0.171 C 
HETATM   32  C   UNL     1      45.810 -11.196   6.703  1.00  0.00     0.034 C 
ENDBRANCH  30  31
ENDBRANCH  25  30
ENDBRANCH  22  24
ENDBRANCH   1  22
TORSDOF 6
ENDMDL
MODEL 4
REMARK VINA RESULT:      -8.6      3.734      7.203
REMARK  6 active torsions:
REMARK  status: ('A' for Active; 'I' for Inactive)
REMARK    1  A    between atoms: C_2  and  O_3 
REMARK    2  A    between atoms: O_3  and  C_4 
REMARK    3  A    between atoms: C_5  and  N_6 
REMARK    4  A    between atoms: N_6  and  C_7 
REMARK    5  A    between atoms: C_8  and  C_9 
REMARK    6  A    between atoms: C_12  and  C_13 
ROOT
HETATM    1  C   UNL     1      39.262 -11.762   5.175  1.00  0.00     0.087 C 
HETATM    2  C   UNL     1      40.286 -11.476   5.998  1.00  0.00     0.077 C 
HETATM    3  C   UNL     1      40.234 -10.259   6.907  1.00  0.00     0.023 C 
HETATM    4  N   UNL     1      40.191  -9.250   7.662  1.00  0.00    -0.096 N 
ENDROOT
BRANCH   2   5
HETATM    5  C   UNL     1      41.468 -12.293   6.024  1.00  0.00     0.118 A 
HETATM    6  S   UNL     1      43.030 -11.546   6.220  1.00  0.00    -0.078 SA
HETATM    7  C   UNL     1      43.783 -13.075   6.203  1.00  0.00     0.084 A 
HETATM    8  C   UNL     1      42.843 -14.068   6.038  1.00  0.00     0.081 A 
HETATM    9  N   UNL     1      41.527 -13.616   5.967  1.00  0.00    -0.239 NA
BRANCH   8  10
HETATM   10  C   UNL     1      43.097 -15.485   5.989  1.00  0.00     0.070 A 
HETATM   11  C   UNL     1      43.218 -16.263   7.267  1.00  0.00     0.301 A 
HETATM   12  O   UNL     1      43.159 -15.741   8.377  1.00  0.00    -0.259 OA
HETATM   13  O   UNL     1      43.399 -17.640   7.166  1.00  0.00    -0.274 OA
HETATM   14  C   UNL     1      43.534 -18.285   5.928  1.00  0.00     0.089 A 
HETATM   15  C   UNL     1      43.471 -17.560   4.746  1.00  0.00     0.000 A 
HETATM   16  C   UNL     1      43.738 -19.663   5.939  1.00  0.00     0.039 A 
HETATM   17  C   UNL     1      43.618 -18.234   3.532  1.00  0.00     0.033 A 
HETATM   18  C   UNL     1      43.239 -16.129   4.815  1.00  0.00     0.034 A 
HETATM   19  C   UNL     1      43.823 -19.616   3.530  1.00  0.00     0.012 A 
HETATM   20  C   UNL     1      43.882 -20.334   4.727  1.00  0.00     0.022 A 
HETATM   21 BR   UNL     1      44.023 -20.527   1.885  1.00  0.00    -0.051 Br
ENDBRANCH   8  10
ENDBRANCH   2   5
BRANCH   1  22
HETATM   22  N   UNL     1      39.194 -12.711   4.170  1.00  0.00    -0.266 NA
HETATM   23  H   UNL     1      38.433 -13.386   4.323  1.00  0.00     0.133 HD
BRANCH  22  24
HETATM   24  C   UNL     1      39.192 -12.417   2.777  1.00  0.00     0.045 A 
HETATM   25  C   UNL     1      40.215 -12.955   1.963  1.00  0.00     0.090 A 
HETATM   26  C   UNL     1      40.196 -12.749   0.579  1.00  0.00     0.038 A 
HETATM   27  C   UNL     1      39.185 -11.985  -0.001  1.00  0.00     0.003 A 
HETATM   28  C   UNL     1      38.191 -11.422   0.796  1.00  0.00     0.002 A 
HETATM   29  C   UNL     1      38.199 -11.630   2.178  1.00  0.00     0.026 A 
BRANCH  25  30
HETATM   30  O   UNL     1      41.174 -13.715   2.594  1.00  0.00    -0.350 OA
BRANCH  30  31
HETATM   31  C   UNL     1      41.454 -14.968   1.963  1.00  0.00     0.171 C 
HETATM   32  C   UNL     1      40.396 -15.970   2.392  1.00  0.00     0.034 C 
ENDBRANCH  30  31
ENDBRANCH  25  30
ENDBRANCH  22  24
ENDBRANCH   1  22
TORSDOF 6
ENDMDL
MODEL 5
REMARK VINA RESULT:      -8.6      1.783      2.359
REMARK  6 active torsions:
REMARK  status: ('A' for Active; 'I' for Inactive)
REMARK    1  A    between atoms: C_2  and  O_3 
REMARK    2  A    between atoms: O_3  and  C_4 
REMARK    3  A    between atoms: C_5  and  N_6 
REMARK    4  A    between atoms: N_6  and  C_7 
REMARK    5  A    between atoms: C_8  and  C_9 
REMARK    6  A    between atoms: C_12  and  C_13 
ROOT
HETATM    1  C   UNL     1      40.580 -14.678   3.760  1.00  0.00     0.087 C 
HETATM    2  C   UNL     1      40.448 -13.369   3.486  1.00  0.00     0.077 C 
HETATM    3  C   UNL     1      39.353 -12.877   2.554  1.00  0.00     0.023 C 
HETATM    4  N   UNL     1      38.445 -12.469   1.781  1.00  0.00    -0.096 N 
ENDROOT
BRANCH   2   5
HETATM    5  C   UNL     1      41.351 -12.400   4.043  1.00  0.00     0.118 A 
HETATM    6  S   UNL     1      42.080 -11.202   3.007  1.00  0.00    -0.078 SA
HETATM    7  C   UNL     1      42.872 -10.502   4.344  1.00  0.00     0.084 A 
HETATM    8  C   UNL     1      42.571 -11.197   5.494  1.00  0.00     0.081 A 
HETATM    9  N   UNL     1      41.684 -12.256   5.318  1.00  0.00    -0.239 NA
BRANCH   8  10
HETATM   10  C   UNL     1      43.042 -10.896   6.822  1.00  0.00     0.070 A 
HETATM   11  C   UNL     1      44.139 -11.723   7.427  1.00  0.00     0.301 A 
HETATM   12  O   UNL     1      44.635 -12.694   6.861  1.00  0.00    -0.259 OA
HETATM   13  O   UNL     1      44.604 -11.351   8.685  1.00  0.00    -0.274 OA
HETATM   14  C   UNL     1      44.037 -10.290   9.406  1.00  0.00     0.089 A 
HETATM   15  C   UNL     1      42.991  -9.554   8.869  1.00  0.00     0.000 A 
HETATM   16  C   UNL     1      44.560 -10.017  10.668  1.00  0.00     0.039 A 
HETATM   17  C   UNL     1      42.444  -8.510   9.618  1.00  0.00     0.033 A 
HETATM   18  C   UNL     1      42.511  -9.888   7.540  1.00  0.00     0.034 A 
HETATM   19  C   UNL     1      42.959  -8.227  10.885  1.00  0.00     0.012 A 
HETATM   20  C   UNL     1      44.016  -8.974  11.414  1.00  0.00     0.022 A 
HETATM   21 BR   UNL     1      42.219  -6.813  11.899  1.00  0.00    -0.051 Br
ENDBRANCH   8  10
ENDBRANCH   2   5
BRANCH   1  22
HETATM   22  N   UNL     1      41.598 -15.327   4.437  1.00  0.00    -0.266 NA
HETATM   23  H   UNL     1      41.312 -15.620   5.381  1.00  0.00     0.133 HD
BRANCH  22  24
HETATM   24  C   UNL     1      42.372 -16.396   3.905  1.00  0.00     0.045 A 
HETATM   25  C   UNL     1      43.540 -16.802   4.590  1.00  0.00     0.090 A 
HETATM   26  C   UNL     1      44.278 -17.900   4.135  1.00  0.00     0.038 A 
HETATM   27  C   UNL     1      43.883 -18.581   2.985  1.00  0.00     0.003 A 
HETATM   28  C   UNL     1      42.754 -18.168   2.283  1.00  0.00     0.002 A 
HETATM   29  C   UNL     1      42.007 -17.077   2.735  1.00  0.00     0.026 A 
BRANCH  25  30
HETATM   30  O   UNL     1      43.866 -16.101   5.729  1.00  0.00    -0.350 OA
BRANCH  30  31
HETATM   31  C   UNL     1      43.578 -16.782   6.954  1.00  0.00     0.171 C 
HETATM   32  C   UNL     1      42.985 -15.783   7.932  1.00  0.00     0.034 C 
ENDBRANCH  30  31
ENDBRANCH  25  30
ENDBRANCH  22  24
ENDBRANCH   1  22
TORSDOF 6
ENDMDL
MODEL 6
REMARK VINA RESULT:      -8.5      3.621      7.500
REMARK  6 active torsions:
REMARK  status: ('A' for Active; 'I' for Inactive)
REMARK    1  A    between atoms: C_2  and  O_3 
REMARK    2  A    between atoms: O_3  and  C_4 
REMARK    3  A    between atoms: C_5  and  N_6 
REMARK    4  A    between atoms: N_6  and  C_7 
REMARK    5  A    between atoms: C_8  and  C_9 
REMARK    6  A    between atoms: C_12  and  C_13 
ROOT
HETATM    1  C   UNL     1      41.199  -9.952   7.048  1.00  0.00     0.087 C 
HETATM    2  C   UNL     1      40.881 -10.336   5.800  1.00  0.00     0.077 C 
HETATM    3  C   UNL     1      39.658  -9.766   5.100  1.00  0.00     0.023 C 
HETATM    4  N   UNL     1      38.644  -9.294   4.520  1.00  0.00    -0.096 N 
ENDROOT
BRANCH   2   5
HETATM    5  C   UNL     1      41.670 -11.312   5.100  1.00  0.00     0.118 A 
HETATM    6  S   UNL     1      42.525 -10.854   3.652  1.00  0.00    -0.078 SA
HETATM    7  C   UNL     1      43.177 -12.423   3.519  1.00  0.00     0.084 A 
HETATM    8  C   UNL     1      42.719 -13.218   4.546  1.00  0.00     0.081 A 
HETATM    9  N   UNL     1      41.887 -12.570   5.456  1.00  0.00    -0.239 NA
BRANCH   8  10
HETATM   10  C   UNL     1      43.062 -14.599   4.775  1.00  0.00     0.070 A 
HETATM   11  C   UNL     1      43.426 -15.054   6.158  1.00  0.00     0.301 A 
HETATM   12  O   UNL     1      43.497 -14.291   7.118  1.00  0.00    -0.259 OA
HETATM   13  O   UNL     1      43.686 -16.410   6.340  1.00  0.00    -0.274 OA
HETATM   14  C   UNL     1      43.679 -17.320   5.273  1.00  0.00     0.089 A 
HETATM   15  C   UNL     1      43.390 -16.892   3.985  1.00  0.00     0.000 A 
HETATM   16  C   UNL     1      43.978 -18.650   5.559  1.00  0.00     0.039 A 
HETATM   17  C   UNL     1      43.401 -17.824   2.945  1.00  0.00     0.033 A 
HETATM   18  C   UNL     1      43.072 -15.492   3.768  1.00  0.00     0.034 A 
HETATM   19  C   UNL     1      43.699 -19.160   3.219  1.00  0.00     0.012 A 
HETATM   20  C   UNL     1      43.986 -19.579   4.521  1.00  0.00     0.022 A 
HETATM   21 BR   UNL     1      43.714 -20.422   1.810  1.00  0.00    -0.051 Br
ENDBRANCH   8  10
ENDBRANCH   2   5
BRANCH   1  22
HETATM   22  N   UNL     1      42.158 -10.472   7.900  1.00  0.00    -0.266 NA
HETATM   23  H   UNL     1      42.118 -11.498   7.952  1.00  0.00     0.133 HD
BRANCH  22  24
HETATM   24  C   UNL     1      43.540 -10.129   7.870  1.00  0.00     0.045 A 
HETATM   25  C   UNL     1      43.966  -8.950   8.523  1.00  0.00     0.090 A 
HETATM   26  C   UNL     1      45.326  -8.627   8.578  1.00  0.00     0.038 A 
HETATM   27  C   UNL     1      46.267  -9.451   7.962  1.00  0.00     0.003 A 
HETATM   28  C   UNL     1      45.854 -10.597   7.287  1.00  0.00     0.002 A 
HETATM   29  C   UNL     1      44.498 -10.931   7.234  1.00  0.00     0.026 A 
BRANCH  25  30
HETATM   30  O   UNL     1      42.991  -8.188   9.127  1.00  0.00    -0.350 OA
BRANCH  30  31
HETATM   31  C   UNL     1      43.231  -7.894  10.506  1.00  0.00     0.171 C 
HETATM   32  C   UNL     1      43.355  -9.205  11.263  1.00  0.00     0.034 C 
ENDBRANCH  30  31
ENDBRANCH  25  30
ENDBRANCH  22  24
ENDBRANCH   1  22
TORSDOF 6
ENDMDL
MODEL 7
REMARK VINA RESULT:      -8.5      3.838      6.899
REMARK  6 active torsions:
REMARK  status: ('A' for Active; 'I' for Inactive)
REMARK    1  A    between atoms: C_2  and  O_3 
REMARK    2  A    between atoms: O_3  and  C_4 
REMARK    3  A    between atoms: C_5  and  N_6 
REMARK    4  A    between atoms: N_6  and  C_7 
REMARK    5  A    between atoms: C_8  and  C_9 
REMARK    6  A    between atoms: C_12  and  C_13 
ROOT
HETATM    1  C   UNL     1      43.345 -15.127   6.345  1.00  0.00     0.087 C 
HETATM    2  C   UNL     1      43.154 -13.818   6.109  1.00  0.00     0.077 C 
HETATM    3  C   UNL     1      44.025 -12.771   6.783  1.00  0.00     0.023 C 
HETATM    4  N   UNL     1      44.748 -11.903   7.343  1.00  0.00    -0.096 N 
ENDROOT
BRANCH   2   5
HETATM    5  C   UNL     1      42.106 -13.367   5.234  1.00  0.00     0.118 A 
HETATM    6  S   UNL     1      40.562 -12.911   5.900  1.00  0.00    -0.078 SA
HETATM    7  C   UNL     1      39.995 -12.495   4.347  1.00  0.00     0.084 A 
HETATM    8  C   UNL     1      40.972 -12.727   3.405  1.00  0.00     0.081 A 
HETATM    9  N   UNL     1      42.178 -13.195   3.922  1.00  0.00    -0.239 NA
BRANCH   8  10
HETATM   10  C   UNL     1      40.867 -12.484   1.989  1.00  0.00     0.070 A 
HETATM   11  C   UNL     1      41.577 -11.309   1.382  1.00  0.00     0.301 A 
HETATM   12  O   UNL     1      42.216 -10.497   2.047  1.00  0.00    -0.259 OA
HETATM   13  O   UNL     1      41.498 -11.154   0.001  1.00  0.00    -0.274 OA
HETATM   14  C   UNL     1      40.735 -12.013  -0.803  1.00  0.00     0.089 A 
HETATM   15  C   UNL     1      40.039 -13.073  -0.238  1.00  0.00     0.000 A 
HETATM   16  C   UNL     1      40.703 -11.756  -2.171  1.00  0.00     0.039 A 
HETATM   17  C   UNL     1      39.282 -13.903  -1.067  1.00  0.00     0.033 A 
HETATM   18  C   UNL     1      40.135 -13.288   1.195  1.00  0.00     0.034 A 
HETATM   19  C   UNL     1      39.242 -13.654  -2.441  1.00  0.00     0.012 A 
HETATM   20  C   UNL     1      39.949 -12.586  -2.998  1.00  0.00     0.022 A 
HETATM   21 BR   UNL     1      38.216 -14.779  -3.564  1.00  0.00    -0.051 Br
ENDBRANCH   8  10
ENDBRANCH   2   5
BRANCH   1  22
HETATM   22  N   UNL     1      42.562 -16.203   5.965  1.00  0.00    -0.266 NA
HETATM   23  H   UNL     1      41.724 -15.910   5.446  1.00  0.00     0.133 HD
BRANCH  22  24
HETATM   24  C   UNL     1      43.050 -17.368   5.308  1.00  0.00     0.045 A 
HETATM   25  C   UNL     1      43.030 -17.416   3.895  1.00  0.00     0.090 A 
HETATM   26  C   UNL     1      43.575 -18.514   3.219  1.00  0.00     0.038 A 
HETATM   27  C   UNL     1      44.113 -19.581   3.937  1.00  0.00     0.003 A 
HETATM   28  C   UNL     1      44.107 -19.558   5.330  1.00  0.00     0.002 A 
HETATM   29  C   UNL     1      43.571 -18.463   6.012  1.00  0.00     0.026 A 
BRANCH  25  30
HETATM   30  O   UNL     1      42.502 -16.324   3.245  1.00  0.00    -0.350 OA
BRANCH  30  31
HETATM   31  C   UNL     1      42.743 -16.294   1.835  1.00  0.00     0.171 C 
HETATM   32  C   UNL     1      43.576 -15.065   1.516  1.00  0.00     0.034 C 
ENDBRANCH  30  31
ENDBRANCH  25  30
ENDBRANCH  22  24
ENDBRANCH   1  22
TORSDOF 6
ENDMDL
MODEL 8
REMARK VINA RESULT:      -8.2      2.206      2.668
REMARK  6 active torsions:
REMARK  status: ('A' for Active; 'I' for Inactive)
REMARK    1  A    between atoms: C_2  and  O_3 
REMARK    2  A    between atoms: O_3  and  C_4 
REMARK    3  A    between atoms: C_5  and  N_6 
REMARK    4  A    between atoms: N_6  and  C_7 
REMARK    5  A    between atoms: C_8  and  C_9 
REMARK    6  A    between atoms: C_12  and  C_13 
ROOT
HETATM    1  C   UNL     1      42.586 -16.507   1.674  1.00  0.00     0.087 C 
HETATM    2  C   UNL     1      41.612 -15.604   1.878  1.00  0.00     0.077 C 
HETATM    3  C   UNL     1      40.748 -15.121   0.725  1.00  0.00     0.023 C 
HETATM    4  N   UNL     1      40.030 -14.721  -0.231  1.00  0.00    -0.096 N 
ENDROOT
BRANCH   2   5
HETATM    5  C   UNL     1      41.376 -15.048   3.183  1.00  0.00     0.118 A 
HETATM    6  S   UNL     1      40.671 -16.041   4.429  1.00  0.00    -0.078 SA
HETATM    7  C   UNL     1      40.784 -14.755   5.542  1.00  0.00     0.084 A 
HETATM    8  C   UNL     1      41.325 -13.645   4.934  1.00  0.00     0.081 A 
HETATM    9  N   UNL     1      41.686 -13.830   3.602  1.00  0.00    -0.239 NA
BRANCH   8  10
HETATM   10  C   UNL     1      41.587 -12.373   5.558  1.00  0.00     0.070 A 
HETATM   11  C   UNL     1      40.670 -11.214   5.294  1.00  0.00     0.301 A 
HETATM   12  O   UNL     1      39.717 -11.276   4.522  1.00  0.00    -0.259 OA
HETATM   13  O   UNL     1      40.928 -10.024   5.971  1.00  0.00    -0.274 OA
HETATM   14  C   UNL     1      42.036  -9.874   6.818  1.00  0.00     0.089 A 
HETATM   15  C   UNL     1      42.912 -10.930   7.026  1.00  0.00     0.000 A 
HETATM   16  C   UNL     1      42.217  -8.634   7.427  1.00  0.00     0.039 A 
HETATM   17  C   UNL     1      44.009 -10.742   7.869  1.00  0.00     0.033 A 
HETATM   18  C   UNL     1      42.647 -12.198   6.369  1.00  0.00     0.034 A 
HETATM   19  C   UNL     1      44.202  -9.503   8.484  1.00  0.00     0.012 A 
HETATM   20  C   UNL     1      43.311  -8.448   8.269  1.00  0.00     0.022 A 
HETATM   21 BR   UNL     1      45.688  -9.249   9.626  1.00  0.00    -0.051 Br
ENDBRANCH   8  10
ENDBRANCH   2   5
BRANCH   1  22
HETATM   22  N   UNL     1      43.570 -16.936   2.548  1.00  0.00    -0.266 NA
HETATM   23  H   UNL     1      43.637 -16.340   3.383  1.00  0.00     0.133 HD
BRANCH  22  24
HETATM   24  C   UNL     1      43.721 -18.277   3.003  1.00  0.00     0.045 A 
HETATM   25  C   UNL     1      44.139 -18.505   4.334  1.00  0.00     0.090 A 
HETATM   26  C   UNL     1      44.220 -19.809   4.834  1.00  0.00     0.038 A 
HETATM   27  C   UNL     1      43.919 -20.894   4.012  1.00  0.00     0.003 A 
HETATM   28  C   UNL     1      43.540 -20.682   2.689  1.00  0.00     0.002 A 
HETATM   29  C   UNL     1      43.449 -19.382   2.184  1.00  0.00     0.026 A 
BRANCH  25  30
HETATM   30  O   UNL     1      44.403 -17.392   5.100  1.00  0.00    -0.350 OA
BRANCH  30  31
HETATM   31  C   UNL     1      43.760 -17.379   6.378  1.00  0.00     0.171 C 
HETATM   32  C   UNL     1      43.845 -15.972   6.944  1.00  0.00     0.034 C 
ENDBRANCH  30  31
ENDBRANCH  25  30
ENDBRANCH  22  24
ENDBRANCH   1  22
TORSDOF 6
ENDMDL
MODEL 9
REMARK VINA RESULT:      -8.2      2.162      2.522
REMARK  6 active torsions:
REMARK  status: ('A' for Active; 'I' for Inactive)
REMARK    1  A    between atoms: C_2  and  O_3 
REMARK    2  A    between atoms: O_3  and  C_4 
REMARK    3  A    between atoms: C_5  and  N_6 
REMARK    4  A    between atoms: N_6  and  C_7 
REMARK    5  A    between atoms: C_8  and  C_9 
REMARK    6  A    between atoms: C_12  and  C_13 
ROOT
HETATM    1  C   UNL     1      42.670 -15.556   2.432  1.00  0.00     0.087 C 
HETATM    2  C   UNL     1      42.054 -14.368   2.552  1.00  0.00     0.077 C 
HETATM    3  C   UNL     1      41.608 -13.597   1.321  1.00  0.00     0.023 C 
HETATM    4  N   UNL     1      41.238 -12.957   0.299  1.00  0.00    -0.096 N 
ENDROOT
BRANCH   2   5
HETATM    5  C   UNL     1      41.820 -13.779   3.843  1.00  0.00     0.118 A 
HETATM    6  S   UNL     1      40.519 -14.372   4.839  1.00  0.00    -0.078 SA
HETATM    7  C   UNL     1      40.947 -13.281   6.077  1.00  0.00     0.084 A 
HETATM    8  C   UNL     1      42.025 -12.518   5.688  1.00  0.00     0.081 A 
HETATM    9  N   UNL     1      42.533 -12.828   4.429  1.00  0.00    -0.239 NA
BRANCH   8  10
HETATM   10  C   UNL     1      42.677 -11.499   6.471  1.00  0.00     0.070 A 
HETATM   11  C   UNL     1      44.087 -11.712   6.941  1.00  0.00     0.301 A 
HETATM   12  O   UNL     1      44.714 -12.748   6.731  1.00  0.00    -0.259 OA
HETATM   13  O   UNL     1      44.695 -10.672   7.639  1.00  0.00    -0.274 OA
HETATM   14  C   UNL     1      44.012  -9.491   7.960  1.00  0.00     0.089 A 
HETATM   15  C   UNL     1      42.693  -9.311   7.568  1.00  0.00     0.000 A 
HETATM   16  C   UNL     1      44.705  -8.523   8.684  1.00  0.00     0.039 A 
HETATM   17  C   UNL     1      42.040  -8.126   7.913  1.00  0.00     0.033 A 
HETATM   18  C   UNL     1      42.043 -10.359   6.801  1.00  0.00     0.034 A 
HETATM   19  C   UNL     1      42.724  -7.148   8.640  1.00  0.00     0.012 A 
HETATM   20  C   UNL     1      44.054  -7.340   9.026  1.00  0.00     0.022 A 
HETATM   21 BR   UNL     1      41.840  -5.543   9.106  1.00  0.00    -0.051 Br
ENDBRANCH   8  10
ENDBRANCH   2   5
BRANCH   1  22
HETATM   22  N   UNL     1      43.289 -16.317   3.409  1.00  0.00    -0.266 NA
HETATM   23  H   UNL     1      42.915 -16.125   4.347  1.00  0.00     0.133 HD
BRANCH  22  24
HETATM   24  C   UNL     1      43.482 -17.726   3.337  1.00  0.00     0.045 A 
HETATM   25  C   UNL     1      43.993 -18.404   4.467  1.00  0.00     0.090 A 
HETATM   26  C   UNL     1      44.120 -19.798   4.455  1.00  0.00     0.038 A 
HETATM   27  C   UNL     1      43.772 -20.522   3.315  1.00  0.00     0.003 A 
HETATM   28  C   UNL     1      43.300 -19.859   2.185  1.00  0.00     0.002 A 
HETATM   29  C   UNL     1      43.164 -18.469   2.192  1.00  0.00     0.026 A 
BRANCH  25  30
HETATM   30  O   UNL     1      44.301 -17.635   5.566  1.00  0.00    -0.350 OA
BRANCH  30  31
HETATM   31  C   UNL     1      43.477 -17.871   6.711  1.00  0.00     0.171 C 
HETATM   32  C   UNL     1      42.696 -16.604   7.013  1.00  0.00     0.034 C 
ENDBRANCH  30  31
ENDBRANCH  25  30
ENDBRANCH  22  24
ENDBRANCH   1  22
TORSDOF 6
ENDMDL
MODEL 10
REMARK VINA RESULT:      -8.1      3.239      7.626
REMARK  6 active torsions:
REMARK  status: ('A' for Active; 'I' for Inactive)
REMARK    1  A    between atoms: C_2  and  O_3 
REMARK    2  A    between atoms: O_3  and  C_4 
REMARK    3  A    between atoms: C_5  and  N_6 
REMARK    4  A    between atoms: N_6  and  C_7 
REMARK    5  A    between atoms: C_8  and  C_9 
REMARK    6  A    between atoms: C_12  and  C_13 
ROOT
HETATM    1  C   UNL     1      42.182  -9.603   6.801  1.00  0.00     0.087 C 
HETATM    2  C   UNL     1      41.586  -9.956   5.650  1.00  0.00     0.077 C 
HETATM    3  C   UNL     1      41.331  -8.927   4.561  1.00  0.00     0.023 C 
HETATM    4  N   UNL     1      41.119  -8.074   3.657  1.00  0.00    -0.096 N 
ENDROOT
BRANCH   2   5
HETATM    5  C   UNL     1      41.149 -11.307   5.423  1.00  0.00     0.118 A 
HETATM    6  S   UNL     1      39.564 -11.802   5.953  1.00  0.00    -0.078 SA
HETATM    7  C   UNL     1      39.816 -13.359   5.306  1.00  0.00     0.084 A 
HETATM    8  C   UNL     1      41.068 -13.444   4.740  1.00  0.00     0.081 A 
HETATM    9  N   UNL     1      41.807 -12.264   4.786  1.00  0.00    -0.239 NA
BRANCH   8  10
HETATM   10  C   UNL     1      41.632 -14.596   4.084  1.00  0.00     0.070 A 
HETATM   11  C   UNL     1      41.707 -14.634   2.586  1.00  0.00     0.301 A 
HETATM   12  O   UNL     1      41.261 -13.742   1.870  1.00  0.00    -0.259 OA
HETATM   13  O   UNL     1      42.319 -15.740   2.002  1.00  0.00    -0.274 OA
HETATM   14  C   UNL     1      42.794 -16.818   2.763  1.00  0.00     0.089 A 
HETATM   15  C   UNL     1      42.683 -16.806   4.146  1.00  0.00     0.000 A 
HETATM   16  C   UNL     1      43.367 -17.887   2.079  1.00  0.00     0.039 A 
HETATM   17  C   UNL     1      43.158 -17.900   4.872  1.00  0.00     0.033 A 
HETATM   18  C   UNL     1      42.088 -15.648   4.790  1.00  0.00     0.034 A 
HETATM   19  C   UNL     1      43.734 -18.978   4.197  1.00  0.00     0.012 A 
HETATM   20  C   UNL     1      43.843 -18.977   2.804  1.00  0.00     0.022 A 
HETATM   21 BR   UNL     1      44.377 -20.460   5.181  1.00  0.00    -0.051 Br
ENDBRANCH   8  10
ENDBRANCH   2   5
BRANCH   1  22
HETATM   22  N   UNL     1      42.347 -10.345   7.958  1.00  0.00    -0.266 NA
HETATM   23  H   UNL     1      42.768 -11.266   7.774  1.00  0.00     0.133 HD
BRANCH  22  24
HETATM   24  C   UNL     1      42.954  -9.861   9.152  1.00  0.00     0.045 A 
HETATM   25  C   UNL     1      44.252 -10.308   9.489  1.00  0.00     0.090 A 
HETATM   26  C   UNL     1      44.905  -9.790  10.613  1.00  0.00     0.038 A 
HETATM   27  C   UNL     1      44.267  -8.854  11.424  1.00  0.00     0.003 A 
HETATM   28  C   UNL     1      42.975  -8.433  11.120  1.00  0.00     0.002 A 
HETATM   29  C   UNL     1      42.318  -8.939   9.995  1.00  0.00     0.026 A 
BRANCH  25  30
HETATM   30  O   UNL     1      44.834 -11.219   8.638  1.00  0.00    -0.350 OA
BRANCH  30  31
HETATM   31  C   UNL     1      45.847 -10.677   7.784  1.00  0.00     0.171 C 
HETATM   32  C   UNL     1      45.730 -11.337   6.421  1.00  0.00     0.034 C 
ENDBRANCH  30  31
ENDBRANCH  25  30
ENDBRANCH  22  24
ENDBRANCH   1  22
TORSDOF 6
ENDMDL
