MODEL 1
REMARK VINA RESULT:      -8.0      0.000      0.000
REMARK  4 active torsions:
REMARK  status: ('A' for Active; 'I' for Inactive)
REMARK    1  A    between atoms: C_5  and  C_6 
REMARK    2  A    between atoms: C_10  and  N_11 
REMARK       I    between atoms: N_11  and  C_12 
REMARK    3  A    between atoms: C_12  and  C_13 
REMARK    4  A    between atoms: C_13  and  O_14 
ROOT
HETATM    1  C   UNL     1      41.794 -15.854   2.399  1.00  0.00     0.070 A 
HETATM    2  N   UNL     1      40.436 -15.695   2.521  1.00  0.00    -0.275 N 
HETATM    3  H   UNL     1      39.853 -15.963   3.309  1.00  0.00     0.189 HD
HETATM    4  N   UNL     1      39.848 -15.118   1.459  1.00  0.00    -0.156 NA
HETATM    5  C   UNL     1      40.849 -14.935   0.597  1.00  0.00     0.152 A 
HETATM    6  C   UNL     1      42.079 -15.363   1.139  1.00  0.00     0.084 A 
ENDROOT
BRANCH   5   7
HETATM    7  N   UNL     1      40.574 -14.389  -0.629  1.00  0.00    -0.308 N 
HETATM    8  C   UNL     1      40.703 -13.059  -0.970  1.00  0.00     0.258 C 
HETATM    9  O   UNL     1      41.074 -12.163  -0.220  1.00  0.00    -0.270 OA
HETATM   10  H   UNL     1      40.380 -15.063  -1.361  1.00  0.00     0.170 HD
BRANCH   8  11
HETATM   11  C   UNL     1      40.294 -12.796  -2.445  1.00  0.00     0.140 C 
HETATM   12  C   UNL     1      39.021 -13.581  -2.792  1.00  0.00     0.058 C 
HETATM   13  C   UNL     1      37.763 -13.046  -2.123  1.00  0.00     0.077 C 
HETATM   14  S   UNL     1      37.415 -11.350  -2.657  1.00  0.00    -0.169 SA
HETATM   15  C   UNL     1      38.979 -10.585  -2.155  1.00  0.00     0.077 C 
HETATM   16  C   UNL     1      40.183 -11.297  -2.759  1.00  0.00     0.058 C 
BRANCH  11  17
HETATM   17  O   UNL     1      41.344 -13.343  -3.275  1.00  0.00    -0.380 OA
HETATM   18  H   UNL     1      42.045 -13.673  -2.683  1.00  0.00     0.211 HD
ENDBRANCH  11  17
ENDBRANCH   8  11
ENDBRANCH   5   7
BRANCH   1  19
HETATM   19  C   UNL     1      42.643 -16.443   3.440  1.00  0.00     0.069 A 
HETATM   20  C   UNL     1      43.195 -17.724   3.298  1.00  0.00     0.132 A 
HETATM   21  C   UNL     1      44.020 -18.288   4.273  1.00  0.00     0.043 A 
HETATM   22  F   UNL     1      42.939 -18.451   2.197  1.00  0.00    -0.205 F 
HETATM   23  C   UNL     1      44.307 -17.576   5.434  1.00  0.00     0.006 A 
HETATM   24  C   UNL     1      43.765 -16.306   5.609  1.00  0.00     0.043 A 
HETATM   25  C   UNL     1      42.946 -15.752   4.621  1.00  0.00     0.132 A 
HETATM   26  F   UNL     1      42.441 -14.530   4.850  1.00  0.00    -0.205 F 
ENDBRANCH   1  19
TORSDOF 4
ENDMDL
MODEL 2
REMARK VINA RESULT:      -8.0      0.078      1.724
REMARK  4 active torsions:
REMARK  status: ('A' for Active; 'I' for Inactive)
REMARK    1  A    between atoms: C_5  and  C_6 
REMARK    2  A    between atoms: C_10  and  N_11 
REMARK       I    between atoms: N_11  and  C_12 
REMARK    3  A    between atoms: C_12  and  C_13 
REMARK    4  A    between atoms: C_13  and  O_14 
ROOT
HETATM    1  C   UNL     1      41.820 -15.787   2.381  1.00  0.00     0.070 A 
HETATM    2  N   UNL     1      40.462 -15.634   2.513  1.00  0.00    -0.275 N 
HETATM    3  H   UNL     1      39.888 -15.904   3.306  1.00  0.00     0.189 HD
HETATM    4  N   UNL     1      39.863 -15.061   1.456  1.00  0.00    -0.156 NA
HETATM    5  C   UNL     1      40.856 -14.873   0.585  1.00  0.00     0.152 A 
HETATM    6  C   UNL     1      42.092 -15.295   1.118  1.00  0.00     0.084 A 
ENDROOT
BRANCH   5   7
HETATM    7  N   UNL     1      40.569 -14.329  -0.638  1.00  0.00    -0.308 N 
HETATM    8  C   UNL     1      40.698 -13.001  -0.984  1.00  0.00     0.258 C 
HETATM    9  O   UNL     1      41.080 -12.103  -0.240  1.00  0.00    -0.270 OA
HETATM   10  H   UNL     1      40.363 -15.004  -1.366  1.00  0.00     0.170 HD
BRANCH   8  11
HETATM   11  C   UNL     1      40.273 -12.740  -2.455  1.00  0.00     0.140 C 
HETATM   12  C   UNL     1      39.016 -13.552  -2.797  1.00  0.00     0.058 C 
HETATM   13  C   UNL     1      37.750 -13.050  -2.116  1.00  0.00     0.077 C 
HETATM   14  S   UNL     1      37.359 -11.360  -2.639  1.00  0.00    -0.169 SA
HETATM   15  C   UNL     1      38.908 -10.561  -2.144  1.00  0.00     0.077 C 
HETATM   16  C   UNL     1      40.124 -11.242  -2.760  1.00  0.00     0.058 C 
BRANCH  11  17
HETATM   17  O   UNL     1      41.329 -13.257  -3.295  1.00  0.00    -0.380 OA
HETATM   18  H   UNL     1      42.093 -13.449  -2.721  1.00  0.00     0.211 HD
ENDBRANCH  11  17
ENDBRANCH   8  11
ENDBRANCH   5   7
BRANCH   1  19
HETATM   19  C   UNL     1      42.680 -16.371   3.415  1.00  0.00     0.069 A 
HETATM   20  C   UNL     1      43.005 -15.666   4.583  1.00  0.00     0.132 A 
HETATM   21  C   UNL     1      43.807 -16.219   5.583  1.00  0.00     0.043 A 
HETATM   22  F   UNL     1      42.541 -14.419   4.770  1.00  0.00    -0.205 F 
HETATM   23  C   UNL     1      44.318 -17.505   5.431  1.00  0.00     0.006 A 
HETATM   24  C   UNL     1      44.022 -18.226   4.277  1.00  0.00     0.043 A 
HETATM   25  C   UNL     1      43.212 -17.661   3.287  1.00  0.00     0.132 A 
HETATM   26  F   UNL     1      42.972 -18.397   2.191  1.00  0.00    -0.205 F 
ENDBRANCH   1  19
TORSDOF 4
ENDMDL
MODEL 3
REMARK VINA RESULT:      -7.8      1.329      2.400
REMARK  4 active torsions:
REMARK  status: ('A' for Active; 'I' for Inactive)
REMARK    1  A    between atoms: C_5  and  C_6 
REMARK    2  A    between atoms: C_10  and  N_11 
REMARK       I    between atoms: N_11  and  C_12 
REMARK    3  A    between atoms: C_12  and  C_13 
REMARK    4  A    between atoms: C_13  and  O_14 
ROOT
HETATM    1  C   UNL     1      41.580 -16.288   2.710  1.00  0.00     0.070 A 
HETATM    2  N   UNL     1      40.326 -16.082   3.230  1.00  0.00    -0.275 N 
HETATM    3  H   UNL     1      39.979 -16.383   4.135  1.00  0.00     0.189 HD
HETATM    4  N   UNL     1      39.495 -15.405   2.420  1.00  0.00    -0.156 NA
HETATM    5  C   UNL     1      40.215 -15.200   1.316  1.00  0.00     0.152 A 
HETATM    6  C   UNL     1      41.520 -15.717   1.452  1.00  0.00     0.084 A 
ENDROOT
BRANCH   5   7
HETATM    7  N   UNL     1      39.634 -14.555   0.258  1.00  0.00    -0.308 N 
HETATM    8  C   UNL     1      40.046 -13.356  -0.285  1.00  0.00     0.258 C 
HETATM    9  O   UNL     1      40.992 -12.682   0.109  1.00  0.00    -0.270 OA
HETATM   10  H   UNL     1      38.919 -15.087  -0.225  1.00  0.00     0.170 HD
BRANCH   8  11
HETATM   11  C   UNL     1      39.147 -12.916  -1.472  1.00  0.00     0.140 C 
HETATM   12  C   UNL     1      38.555 -11.526  -1.203  1.00  0.00     0.058 C 
HETATM   13  C   UNL     1      39.572 -10.396  -1.275  1.00  0.00     0.077 C 
HETATM   14  S   UNL     1      40.290 -10.274  -2.933  1.00  0.00    -0.169 SA
HETATM   15  C   UNL     1      40.950 -11.956  -3.064  1.00  0.00     0.077 C 
HETATM   16  C   UNL     1      39.877 -13.010  -2.820  1.00  0.00     0.058 C 
BRANCH  11  17
HETATM   17  O   UNL     1      38.028 -13.831  -1.513  1.00  0.00    -0.380 OA
HETATM   18  H   UNL     1      38.028 -14.331  -0.676  1.00  0.00     0.211 HD
ENDBRANCH  11  17
ENDBRANCH   8  11
ENDBRANCH   5   7
BRANCH   1  19
HETATM   19  C   UNL     1      42.654 -16.987   3.423  1.00  0.00     0.069 A 
HETATM   20  C   UNL     1      43.250 -16.440   4.569  1.00  0.00     0.132 A 
HETATM   21  C   UNL     1      44.260 -17.104   5.267  1.00  0.00     0.043 A 
HETATM   22  F   UNL     1      42.853 -15.242   5.030  1.00  0.00    -0.205 F 
HETATM   23  C   UNL     1      44.710 -18.344   4.823  1.00  0.00     0.006 A 
HETATM   24  C   UNL     1      44.145 -18.908   3.682  1.00  0.00     0.043 A 
HETATM   25  C   UNL     1      43.130 -18.234   2.997  1.00  0.00     0.132 A 
HETATM   26  F   UNL     1      42.633 -18.818   1.897  1.00  0.00    -0.205 F 
ENDBRANCH   1  19
TORSDOF 4
ENDMDL
MODEL 4
REMARK VINA RESULT:      -7.6      2.042      2.869
REMARK  4 active torsions:
REMARK  status: ('A' for Active; 'I' for Inactive)
REMARK    1  A    between atoms: C_5  and  C_6 
REMARK    2  A    between atoms: C_10  and  N_11 
REMARK       I    between atoms: N_11  and  C_12 
REMARK    3  A    between atoms: C_12  and  C_13 
REMARK    4  A    between atoms: C_13  and  O_14 
ROOT
HETATM    1  C   UNL     1      42.886 -17.316   2.576  1.00  0.00     0.070 A 
HETATM    2  N   UNL     1      43.756 -16.470   1.932  1.00  0.00    -0.275 N 
HETATM    3  H   UNL     1      44.771 -16.500   1.954  1.00  0.00     0.189 HD
HETATM    4  N   UNL     1      43.161 -15.511   1.204  1.00  0.00    -0.156 NA
HETATM    5  C   UNL     1      41.859 -15.708   1.414  1.00  0.00     0.152 A 
HETATM    6  C   UNL     1      41.636 -16.825   2.248  1.00  0.00     0.084 A 
ENDROOT
BRANCH   5   7
HETATM    7  N   UNL     1      40.958 -14.857   0.831  1.00  0.00    -0.308 N 
HETATM    8  C   UNL     1      40.924 -13.487   0.981  1.00  0.00     0.258 C 
HETATM    9  O   UNL     1      41.692 -12.826   1.672  1.00  0.00    -0.270 OA
HETATM   10  H   UNL     1      40.354 -15.287   0.140  1.00  0.00     0.170 HD
BRANCH   8  11
HETATM   11  C   UNL     1      39.759 -12.844   0.180  1.00  0.00     0.140 C 
HETATM   12  C   UNL     1      40.144 -11.428  -0.272  1.00  0.00     0.058 C 
HETATM   13  C   UNL     1      41.200 -11.394  -1.367  1.00  0.00     0.077 C 
HETATM   14  S   UNL     1      40.603 -12.209  -2.870  1.00  0.00    -0.169 SA
HETATM   15  C   UNL     1      40.231 -13.835  -2.165  1.00  0.00     0.077 C 
HETATM   16  C   UNL     1      39.284 -13.738  -0.975  1.00  0.00     0.058 C 
BRANCH  11  17
HETATM   17  O   UNL     1      38.654 -12.688   1.099  1.00  0.00    -0.380 OA
HETATM   18  H   UNL     1      38.025 -12.059   0.698  1.00  0.00     0.211 HD
ENDBRANCH  11  17
ENDBRANCH   8  11
ENDBRANCH   5   7
BRANCH   1  19
HETATM   19  C   UNL     1      43.312 -18.443   3.411  1.00  0.00     0.069 A 
HETATM   20  C   UNL     1      43.552 -19.711   2.862  1.00  0.00     0.132 A 
HETATM   21  C   UNL     1      43.976 -20.788   3.644  1.00  0.00     0.043 A 
HETATM   22  F   UNL     1      43.378 -19.923   1.547  1.00  0.00    -0.205 F 
HETATM   23  C   UNL     1      44.163 -20.621   5.013  1.00  0.00     0.006 A 
HETATM   24  C   UNL     1      43.922 -19.376   5.588  1.00  0.00     0.043 A 
HETATM   25  C   UNL     1      43.504 -18.305   4.792  1.00  0.00     0.132 A 
HETATM   26  F   UNL     1      43.274 -17.133   5.402  1.00  0.00    -0.205 F 
ENDBRANCH   1  19
TORSDOF 4
ENDMDL
MODEL 5
REMARK VINA RESULT:      -7.4      5.843      6.829
REMARK  4 active torsions:
REMARK  status: ('A' for Active; 'I' for Inactive)
REMARK    1  A    between atoms: C_5  and  C_6 
REMARK    2  A    between atoms: C_10  and  N_11 
REMARK       I    between atoms: N_11  and  C_12 
REMARK    3  A    between atoms: C_12  and  C_13 
REMARK    4  A    between atoms: C_13  and  O_14 
ROOT
HETATM    1  C   UNL     1      43.049 -17.000   4.461  1.00  0.00     0.070 A 
HETATM    2  N   UNL     1      41.774 -16.541   4.688  1.00  0.00    -0.275 N 
HETATM    3  H   UNL     1      40.918 -17.088   4.705  1.00  0.00     0.189 HD
HETATM    4  N   UNL     1      41.692 -15.219   4.905  1.00  0.00    -0.156 NA
HETATM    5  C   UNL     1      42.948 -14.790   4.771  1.00  0.00     0.152 A 
HETATM    6  C   UNL     1      43.829 -15.860   4.509  1.00  0.00     0.084 A 
ENDROOT
BRANCH   5   7
HETATM    7  N   UNL     1      43.208 -13.452   4.898  1.00  0.00    -0.308 N 
HETATM    8  C   UNL     1      43.517 -12.794   6.070  1.00  0.00     0.258 C 
HETATM    9  O   UNL     1      43.595 -13.312   7.179  1.00  0.00    -0.270 OA
HETATM   10  H   UNL     1      43.293 -12.950   4.021  1.00  0.00     0.170 HD
BRANCH   8  11
HETATM   11  C   UNL     1      43.742 -11.275   5.841  1.00  0.00     0.140 C 
HETATM   12  C   UNL     1      42.410 -10.584   5.516  1.00  0.00     0.058 C 
HETATM   13  C   UNL     1      41.460 -10.484   6.701  1.00  0.00     0.077 C 
HETATM   14  S   UNL     1      42.181  -9.485   8.028  1.00  0.00    -0.169 SA
HETATM   15  C   UNL     1      43.694 -10.444   8.293  1.00  0.00     0.077 C 
HETATM   16  C   UNL     1      44.493 -10.616   7.007  1.00  0.00     0.058 C 
BRANCH  11  17
HETATM   17  O   UNL     1      44.563 -11.145   4.659  1.00  0.00    -0.380 OA
HETATM   18  H   UNL     1      44.108 -10.535   4.050  1.00  0.00     0.211 HD
ENDBRANCH  11  17
ENDBRANCH   8  11
ENDBRANCH   5   7
BRANCH   1  19
HETATM   19  C   UNL     1      43.378 -18.408   4.218  1.00  0.00     0.069 A 
HETATM   20  C   UNL     1      43.690 -19.280   5.271  1.00  0.00     0.132 A 
HETATM   21  C   UNL     1      43.987 -20.627   5.054  1.00  0.00     0.043 A 
HETATM   22  F   UNL     1      43.709 -18.830   6.537  1.00  0.00    -0.205 F 
HETATM   23  C   UNL     1      43.987 -21.137   3.759  1.00  0.00     0.006 A 
HETATM   24  C   UNL     1      43.691 -20.293   2.692  1.00  0.00     0.043 A 
HETATM   25  C   UNL     1      43.390 -18.948   2.925  1.00  0.00     0.132 A 
HETATM   26  F   UNL     1      43.127 -18.180   1.858  1.00  0.00    -0.205 F 
ENDBRANCH   1  19
TORSDOF 4
ENDMDL
MODEL 6
REMARK VINA RESULT:      -7.2      5.021      5.828
REMARK  4 active torsions:
REMARK  status: ('A' for Active; 'I' for Inactive)
REMARK    1  A    between atoms: C_5  and  C_6 
REMARK    2  A    between atoms: C_10  and  N_11 
REMARK       I    between atoms: N_11  and  C_12 
REMARK    3  A    between atoms: C_12  and  C_13 
REMARK    4  A    between atoms: C_13  and  O_14 
ROOT
HETATM    1  C   UNL     1      42.989 -17.007   4.007  1.00  0.00     0.070 A 
HETATM    2  N   UNL     1      41.759 -16.543   3.607  1.00  0.00    -0.275 N 
HETATM    3  H   UNL     1      40.974 -17.094   3.272  1.00  0.00     0.189 HD
HETATM    4  N   UNL     1      41.619 -15.210   3.681  1.00  0.00    -0.156 NA
HETATM    5  C   UNL     1      42.811 -14.783   4.100  1.00  0.00     0.152 A 
HETATM    6  C   UNL     1      43.691 -15.861   4.330  1.00  0.00     0.084 A 
ENDROOT
BRANCH   5   7
HETATM    7  N   UNL     1      43.018 -13.437   4.247  1.00  0.00    -0.308 N 
HETATM    8  C   UNL     1      42.886 -12.720   5.417  1.00  0.00     0.258 C 
HETATM    9  O   UNL     1      42.552 -13.182   6.504  1.00  0.00    -0.270 OA
HETATM   10  H   UNL     1      43.419 -12.978   3.437  1.00  0.00     0.170 HD
BRANCH   8  11
HETATM   11  C   UNL     1      43.190 -11.211   5.212  1.00  0.00     0.140 C 
HETATM   12  C   UNL     1      42.463 -10.688   3.965  1.00  0.00     0.058 C 
HETATM   13  C   UNL     1      40.953 -10.581   4.129  1.00  0.00     0.077 C 
HETATM   14  S   UNL     1      40.525  -9.404   5.438  1.00  0.00    -0.169 SA
HETATM   15  C   UNL     1      41.427 -10.180   6.803  1.00  0.00     0.077 C 
HETATM   16  C   UNL     1      42.900 -10.382   6.472  1.00  0.00     0.058 C 
BRANCH  11  17
HETATM   17  O   UNL     1      44.604 -11.103   4.930  1.00  0.00    -0.380 OA
HETATM   18  H   UNL     1      44.724 -11.245   3.972  1.00  0.00     0.211 HD
ENDBRANCH  11  17
ENDBRANCH   8  11
ENDBRANCH   5   7
BRANCH   1  19
HETATM   19  C   UNL     1      43.359 -18.426   4.026  1.00  0.00     0.069 A 
HETATM   20  C   UNL     1      43.386 -19.192   2.852  1.00  0.00     0.132 A 
HETATM   21  C   UNL     1      43.755 -20.539   2.855  1.00  0.00     0.043 A 
HETATM   22  F   UNL     1      43.052 -18.637   1.675  1.00  0.00    -0.205 F 
HETATM   23  C   UNL     1      44.101 -21.160   4.051  1.00  0.00     0.006 A 
HETATM   24  C   UNL     1      44.074 -20.428   5.235  1.00  0.00     0.043 A 
HETATM   25  C   UNL     1      43.708 -19.079   5.215  1.00  0.00     0.132 A 
HETATM   26  F   UNL     1      43.686 -18.427   6.388  1.00  0.00    -0.205 F 
ENDBRANCH   1  19
TORSDOF 4
ENDMDL
MODEL 7
REMARK VINA RESULT:      -7.2      5.007      6.041
REMARK  4 active torsions:
REMARK  status: ('A' for Active; 'I' for Inactive)
REMARK    1  A    between atoms: C_5  and  C_6 
REMARK    2  A    between atoms: C_10  and  N_11 
REMARK       I    between atoms: N_11  and  C_12 
REMARK    3  A    between atoms: C_12  and  C_13 
REMARK    4  A    between atoms: C_13  and  O_14 
ROOT
HETATM    1  C   UNL     1      42.746 -15.515   4.028  1.00  0.00     0.070 A 
HETATM    2  N   UNL     1      43.135 -14.405   3.318  1.00  0.00    -0.275 N 
HETATM    3  H   UNL     1      43.757 -14.376   2.515  1.00  0.00     0.189 HD
HETATM    4  N   UNL     1      42.617 -13.250   3.767  1.00  0.00    -0.156 NA
HETATM    5  C   UNL     1      41.901 -13.610   4.833  1.00  0.00     0.152 A 
HETATM    6  C   UNL     1      41.937 -15.007   5.028  1.00  0.00     0.084 A 
ENDROOT
BRANCH   5   7
HETATM    7  N   UNL     1      41.259 -12.641   5.557  1.00  0.00    -0.308 N 
HETATM    8  C   UNL     1      40.016 -12.114   5.282  1.00  0.00     0.258 C 
HETATM    9  O   UNL     1      39.300 -12.429   4.336  1.00  0.00    -0.270 OA
HETATM   10  H   UNL     1      41.708 -12.398   6.433  1.00  0.00     0.170 HD
BRANCH   8  11
HETATM   11  C   UNL     1      39.605 -11.026   6.311  1.00  0.00     0.140 C 
HETATM   12  C   UNL     1      40.798 -10.110   6.620  1.00  0.00     0.058 C 
HETATM   13  C   UNL     1      41.180  -9.185   5.472  1.00  0.00     0.077 C 
HETATM   14  S   UNL     1      39.824  -8.053   5.072  1.00  0.00    -0.169 SA
HETATM   15  C   UNL     1      38.543  -9.283   4.717  1.00  0.00     0.077 C 
HETATM   16  C   UNL     1      38.350 -10.256   5.874  1.00  0.00     0.058 C 
BRANCH  11  17
HETATM   17  O   UNL     1      39.293 -11.712   7.545  1.00  0.00    -0.380 OA
HETATM   18  H   UNL     1      38.435 -12.159   7.424  1.00  0.00     0.211 HD
ENDBRANCH  11  17
ENDBRANCH   8  11
ENDBRANCH   5   7
BRANCH   1  19
HETATM   19  C   UNL     1      43.173 -16.880   3.707  1.00  0.00     0.069 A 
HETATM   20  C   UNL     1      44.130 -17.550   4.482  1.00  0.00     0.132 A 
HETATM   21  C   UNL     1      44.531 -18.857   4.198  1.00  0.00     0.043 A 
HETATM   22  F   UNL     1      44.693 -16.938   5.538  1.00  0.00    -0.205 F 
HETATM   23  C   UNL     1      43.982 -19.529   3.110  1.00  0.00     0.006 A 
HETATM   24  C   UNL     1      43.037 -18.887   2.315  1.00  0.00     0.043 A 
HETATM   25  C   UNL     1      42.641 -17.580   2.616  1.00  0.00     0.132 A 
HETATM   26  F   UNL     1      41.737 -17.006   1.807  1.00  0.00    -0.205 F 
ENDBRANCH   1  19
TORSDOF 4
ENDMDL
MODEL 8
REMARK VINA RESULT:      -7.2      5.750      6.797
REMARK  4 active torsions:
REMARK  status: ('A' for Active; 'I' for Inactive)
REMARK    1  A    between atoms: C_5  and  C_6 
REMARK    2  A    between atoms: C_10  and  N_11 
REMARK       I    between atoms: N_11  and  C_12 
REMARK    3  A    between atoms: C_12  and  C_13 
REMARK    4  A    between atoms: C_13  and  O_14 
ROOT
HETATM    1  C   UNL     1      43.060 -17.007   4.122  1.00  0.00     0.070 A 
HETATM    2  N   UNL     1      41.852 -16.481   3.733  1.00  0.00    -0.275 N 
HETATM    3  H   UNL     1      41.062 -16.982   3.337  1.00  0.00     0.189 HD
HETATM    4  N   UNL     1      41.743 -15.154   3.911  1.00  0.00    -0.156 NA
HETATM    5  C   UNL     1      42.934 -14.793   4.390  1.00  0.00     0.152 A 
HETATM    6  C   UNL     1      43.782 -15.909   4.552  1.00  0.00     0.084 A 
ENDROOT
BRANCH   5   7
HETATM    7  N   UNL     1      43.170 -13.469   4.649  1.00  0.00    -0.308 N 
HETATM    8  C   UNL     1      42.722 -12.766   5.747  1.00  0.00     0.258 C 
HETATM    9  O   UNL     1      42.033 -13.222   6.654  1.00  0.00    -0.270 OA
HETATM   10  H   UNL     1      43.835 -13.026   4.025  1.00  0.00     0.170 HD
BRANCH   8  11
HETATM   11  C   UNL     1      43.172 -11.280   5.708  1.00  0.00     0.140 C 
HETATM   12  C   UNL     1      42.904 -10.609   7.063  1.00  0.00     0.058 C 
HETATM   13  C   UNL     1      43.824 -11.082   8.180  1.00  0.00     0.077 C 
HETATM   14  S   UNL     1      45.552 -10.688   7.808  1.00  0.00    -0.169 SA
HETATM   15  C   UNL     1      45.692 -11.564   6.228  1.00  0.00     0.077 C 
HETATM   16  C   UNL     1      44.624 -11.124   5.235  1.00  0.00     0.058 C 
BRANCH  11  17
HETATM   17  O   UNL     1      42.322 -10.609   4.750  1.00  0.00    -0.380 OA
HETATM   18  H   UNL     1      42.861  -9.929   4.306  1.00  0.00     0.211 HD
ENDBRANCH  11  17
ENDBRANCH   8  11
ENDBRANCH   5   7
BRANCH   1  19
HETATM   19  C   UNL     1      43.395 -18.432   4.036  1.00  0.00     0.069 A 
HETATM   20  C   UNL     1      43.409 -19.108   2.808  1.00  0.00     0.132 A 
HETATM   21  C   UNL     1      43.744 -20.460   2.711  1.00  0.00     0.043 A 
HETATM   22  F   UNL     1      43.095 -18.458   1.675  1.00  0.00    -0.205 F 
HETATM   23  C   UNL     1      44.069 -21.178   3.858  1.00  0.00     0.006 A 
HETATM   24  C   UNL     1      44.054 -20.536   5.093  1.00  0.00     0.043 A 
HETATM   25  C   UNL     1      43.722 -19.181   5.174  1.00  0.00     0.132 A 
HETATM   26  F   UNL     1      43.710 -18.618   6.392  1.00  0.00    -0.205 F 
ENDBRANCH   1  19
TORSDOF 4
ENDMDL
MODEL 9
REMARK VINA RESULT:      -7.1      3.837      4.967
REMARK  4 active torsions:
REMARK  status: ('A' for Active; 'I' for Inactive)
REMARK    1  A    between atoms: C_5  and  C_6 
REMARK    2  A    between atoms: C_10  and  N_11 
REMARK       I    between atoms: N_11  and  C_12 
REMARK    3  A    between atoms: C_12  and  C_13 
REMARK    4  A    between atoms: C_13  and  O_14 
ROOT
HETATM    1  C   UNL     1      42.985 -17.233   3.512  1.00  0.00     0.070 A 
HETATM    2  N   UNL     1      41.873 -16.945   2.759  1.00  0.00    -0.275 N 
HETATM    3  H   UNL     1      41.211 -17.605   2.363  1.00  0.00     0.189 HD
HETATM    4  N   UNL     1      41.676 -15.634   2.542  1.00  0.00    -0.156 NA
HETATM    5  C   UNL     1      42.717 -15.048   3.135  1.00  0.00     0.152 A 
HETATM    6  C   UNL     1      43.551 -15.997   3.763  1.00  0.00     0.084 A 
ENDROOT
BRANCH   5   7
HETATM    7  N   UNL     1      42.837 -13.686   3.066  1.00  0.00    -0.308 N 
HETATM    8  C   UNL     1      42.439 -12.787   4.033  1.00  0.00     0.258 C 
HETATM    9  O   UNL     1      41.906 -13.076   5.099  1.00  0.00    -0.270 OA
HETATM   10  H   UNL     1      43.380 -13.346   2.279  1.00  0.00     0.170 HD
BRANCH   8  11
HETATM   11  C   UNL     1      42.722 -11.319   3.613  1.00  0.00     0.140 C 
HETATM   12  C   UNL     1      42.131 -11.041   2.223  1.00  0.00     0.058 C 
HETATM   13  C   UNL     1      40.610 -10.981   2.199  1.00  0.00     0.077 C 
HETATM   14  S   UNL     1      39.997  -9.628   3.236  1.00  0.00    -0.169 SA
HETATM   15  C   UNL     1      40.755 -10.128   4.804  1.00  0.00     0.077 C 
HETATM   16  C   UNL     1      42.262 -10.311   4.676  1.00  0.00     0.058 C 
BRANCH  11  17
HETATM   17  O   UNL     1      44.155 -11.190   3.474  1.00  0.00    -0.380 OA
HETATM   18  H   UNL     1      44.416 -11.670   2.667  1.00  0.00     0.211 HD
ENDBRANCH  11  17
ENDBRANCH   8  11
ENDBRANCH   5   7
BRANCH   1  19
HETATM   19  C   UNL     1      43.387 -18.593   3.887  1.00  0.00     0.069 A 
HETATM   20  C   UNL     1      43.640 -18.940   5.221  1.00  0.00     0.132 A 
HETATM   21  C   UNL     1      44.004 -20.236   5.593  1.00  0.00     0.043 A 
HETATM   22  F   UNL     1      43.534 -18.017   6.191  1.00  0.00    -0.205 F 
HETATM   23  C   UNL     1      44.134 -21.225   4.622  1.00  0.00     0.006 A 
HETATM   24  C   UNL     1      43.900 -20.908   3.287  1.00  0.00     0.043 A 
HETATM   25  C   UNL     1      43.530 -19.607   2.931  1.00  0.00     0.132 A 
HETATM   26  F   UNL     1      43.330 -19.356   1.629  1.00  0.00    -0.205 F 
ENDBRANCH   1  19
TORSDOF 4
ENDMDL
MODEL 10
REMARK VINA RESULT:      -7.1      6.019      8.423
REMARK  4 active torsions:
REMARK  status: ('A' for Active; 'I' for Inactive)
REMARK    1  A    between atoms: C_5  and  C_6 
REMARK    2  A    between atoms: C_10  and  N_11 
REMARK       I    between atoms: N_11  and  C_12 
REMARK    3  A    between atoms: C_12  and  C_13 
REMARK    4  A    between atoms: C_13  and  O_14 
ROOT
HETATM    1  C   UNL     1      43.117 -14.830   5.372  1.00  0.00     0.070 A 
HETATM    2  N   UNL     1      41.962 -14.097   5.497  1.00  0.00    -0.275 N 
HETATM    3  H   UNL     1      41.099 -14.217   4.975  1.00  0.00     0.189 HD
HETATM    4  N   UNL     1      42.021 -13.123   6.420  1.00  0.00    -0.156 NA
HETATM    5  C   UNL     1      43.270 -13.192   6.883  1.00  0.00     0.152 A 
HETATM    6  C   UNL     1      43.986 -14.244   6.274  1.00  0.00     0.084 A 
ENDROOT
BRANCH   5   7
HETATM    7  N   UNL     1      43.674 -12.291   7.831  1.00  0.00    -0.308 N 
HETATM    8  C   UNL     1      43.958 -10.959   7.614  1.00  0.00     0.258 C 
HETATM    9  O   UNL     1      43.900 -10.384   6.532  1.00  0.00    -0.270 OA
HETATM   10  H   UNL     1      43.635 -12.631   8.786  1.00  0.00     0.170 HD
BRANCH   8  11
HETATM   11  C   UNL     1      44.397 -10.239   8.919  1.00  0.00     0.140 C 
HETATM   12  C   UNL     1      44.755  -8.776   8.622  1.00  0.00     0.058 C 
HETATM   13  C   UNL     1      43.555  -7.901   8.289  1.00  0.00     0.077 C 
HETATM   14  S   UNL     1      42.405  -7.818   9.686  1.00  0.00    -0.169 SA
HETATM   15  C   UNL     1      42.079  -9.590   9.871  1.00  0.00     0.077 C 
HETATM   16  C   UNL     1      43.363 -10.391  10.044  1.00  0.00     0.058 C 
BRANCH  11  17
HETATM   17  O   UNL     1      45.621 -10.873   9.356  1.00  0.00    -0.380 OA
HETATM   18  H   UNL     1      46.356 -10.266   9.151  1.00  0.00     0.211 HD
ENDBRANCH  11  17
ENDBRANCH   8  11
ENDBRANCH   5   7
BRANCH   1  19
HETATM   19  C   UNL     1      43.275 -15.952   4.442  1.00  0.00     0.069 A 
HETATM   20  C   UNL     1      43.518 -17.255   4.899  1.00  0.00     0.132 A 
HETATM   21  C   UNL     1      43.651 -18.335   4.024  1.00  0.00     0.043 A 
HETATM   22  F   UNL     1      43.629 -17.499   6.216  1.00  0.00    -0.205 F 
HETATM   23  C   UNL     1      43.552 -18.131   2.651  1.00  0.00     0.006 A 
HETATM   24  C   UNL     1      43.322 -16.846   2.166  1.00  0.00     0.043 A 
HETATM   25  C   UNL     1      43.184 -15.776   3.055  1.00  0.00     0.132 A 
HETATM   26  F   UNL     1      42.977 -14.559   2.530  1.00  0.00    -0.205 F 
ENDBRANCH   1  19
TORSDOF 4
ENDMDL
