MODEL 1
REMARK VINA RESULT:      -8.9      0.000      0.000
REMARK  2 active torsions:
REMARK  status: ('A' for Active; 'I' for Inactive)
REMARK    1  A    between atoms: N_20  and  C_21 
REMARK    2  A    between atoms: C_22  and  O_23 
ROOT
HETATM    1  C   UNL     1      40.178 -14.478  -1.108  1.00  0.00     0.048 C 
HETATM    2  C   UNL     1      40.555 -13.257  -0.316  1.00  0.00    -0.061 A 
HETATM    3  C   UNL     1      40.920 -13.363   1.037  1.00  0.00     0.019 A 
HETATM    4  C   UNL     1      41.305 -12.215   1.716  1.00  0.00     0.016 A 
HETATM    5  C   UNL     1      41.312 -10.985   1.049  1.00  0.00     0.044 A 
HETATM    6  N   UNL     1      41.699  -9.967   1.904  1.00  0.00    -0.324 N 
HETATM    7  C   UNL     1      41.973 -10.455   3.167  1.00  0.00     0.264 A 
HETATM    8  O   UNL     1      42.292  -9.800   4.145  1.00  0.00    -0.270 OA
HETATM    9  C   UNL     1      41.684 -12.002   3.157  1.00  0.00     0.250 A 
HETATM   10  N   UNL     1      40.527 -12.364   4.086  1.00  0.00    -0.043 N 
HETATM   11  H   UNL     1      40.185 -13.290   3.795  1.00  0.00     0.282 HD
HETATM   12  C   UNL     1      41.129 -12.445   5.459  1.00  0.00     0.204 C 
HETATM   13  C   UNL     1      39.927 -12.874   6.266  1.00  0.00     0.036 C 
HETATM   14  C   UNL     1      38.791 -12.028   5.646  1.00  0.00     0.030 C 
HETATM   15  C   UNL     1      39.295 -11.540   4.275  1.00  0.00     0.237 C 
HETATM   16  C   UNL     1      42.414 -13.191   5.220  1.00  0.00     0.126 C 
HETATM   17  C   UNL     1      42.890 -12.717   3.830  1.00  0.00     0.145 C 
HETATM   18  C   UNL     1      43.327 -13.983   3.154  1.00  0.00     0.239 C 
HETATM   19  O   UNL     1      43.830 -13.971   2.041  1.00  0.00    -0.272 OA
HETATM   20  N   UNL     1      42.911 -15.053   3.917  1.00  0.00    -0.249 N 
HETATM   21  C   UNL     1      42.237 -14.667   5.046  1.00  0.00     0.238 C 
HETATM   22  O   UNL     1      41.572 -15.346   5.811  1.00  0.00    -0.272 OA
HETATM   23  C   UNL     1      40.957 -10.846  -0.275  1.00  0.00     0.031 A 
HETATM   24  C   UNL     1      40.576 -12.001  -0.959  1.00  0.00     0.009 A 
HETATM   25  H   UNL     1      41.793  -8.991   1.645  1.00  0.00     0.169 HD
ENDROOT
BRANCH  20  26
HETATM   26  C   UNL     1      42.995 -16.399   3.477  1.00  0.00     0.078 A 
HETATM   27  C   UNL     1      43.813 -17.332   4.146  1.00  0.00     0.095 A 
HETATM   28  C   UNL     1      43.927 -18.634   3.646  1.00  0.00     0.039 A 
HETATM   29  C   UNL     1      43.199 -19.027   2.521  1.00  0.00     0.003 A 
HETATM   30  C   UNL     1      42.341 -18.128   1.896  1.00  0.00     0.002 A 
HETATM   31  C   UNL     1      42.234 -16.823   2.375  1.00  0.00     0.033 A 
BRANCH  27  32
HETATM   32  O   UNL     1      44.401 -16.910   5.313  1.00  0.00    -0.354 OA
HETATM   33  C   UNL     1      43.949 -17.536   6.511  1.00  0.00     0.210 C 
ENDBRANCH  27  32
ENDBRANCH  20  26
TORSDOF 2
ENDMDL
MODEL 2
REMARK VINA RESULT:      -8.6      4.267      8.373
REMARK  2 active torsions:
REMARK  status: ('A' for Active; 'I' for Inactive)
REMARK    1  A    between atoms: N_20  and  C_21 
REMARK    2  A    between atoms: C_22  and  O_23 
ROOT
HETATM    1  C   UNL     1      45.149 -10.133  10.223  1.00  0.00     0.048 C 
HETATM    2  C   UNL     1      45.025 -10.508   8.772  1.00  0.00    -0.061 A 
HETATM    3  C   UNL     1      43.761 -10.650   8.174  1.00  0.00     0.019 A 
HETATM    4  C   UNL     1      43.695 -10.952   6.820  1.00  0.00     0.016 A 
HETATM    5  C   UNL     1      44.877 -11.119   6.089  1.00  0.00     0.044 A 
HETATM    6  N   UNL     1      44.595 -11.441   4.772  1.00  0.00    -0.324 N 
HETATM    7  C   UNL     1      43.232 -11.499   4.554  1.00  0.00     0.264 A 
HETATM    8  O   UNL     1      42.676 -11.802   3.511  1.00  0.00    -0.270 OA
HETATM    9  C   UNL     1      42.514 -11.222   5.927  1.00  0.00     0.250 A 
HETATM   10  N   UNL     1      41.732 -12.442   6.408  1.00  0.00    -0.043 N 
HETATM   11  H   UNL     1      41.572 -12.319   7.417  1.00  0.00     0.282 HD
HETATM   12  C   UNL     1      40.425 -12.395   5.669  1.00  0.00     0.204 C 
HETATM   13  C   UNL     1      39.720 -13.586   6.272  1.00  0.00     0.036 C 
HETATM   14  C   UNL     1      40.856 -14.631   6.367  1.00  0.00     0.030 C 
HETATM   15  C   UNL     1      42.184 -13.859   6.259  1.00  0.00     0.237 C 
HETATM   16  C   UNL     1      40.047 -10.940   5.750  1.00  0.00     0.126 C 
HETATM   17  C   UNL     1      41.388 -10.180   5.674  1.00  0.00     0.145 C 
HETATM   18  C   UNL     1      41.259  -9.126   6.734  1.00  0.00     0.239 C 
HETATM   19  O   UNL     1      42.129  -8.287   6.909  1.00  0.00    -0.272 OA
HETATM   20  N   UNL     1      40.143  -9.403   7.494  1.00  0.00    -0.249 N 
HETATM   21  C   UNL     1      39.485 -10.530   7.076  1.00  0.00     0.238 C 
HETATM   22  O   UNL     1      38.603 -11.157   7.640  1.00  0.00    -0.272 OA
HETATM   23  C   UNL     1      46.131 -10.991   6.646  1.00  0.00     0.031 A 
HETATM   24  C   UNL     1      46.197 -10.680   8.005  1.00  0.00     0.009 A 
HETATM   25  H   UNL     1      45.288 -11.595   4.048  1.00  0.00     0.169 HD
ENDROOT
BRANCH  20  26
HETATM   26  C   UNL     1      39.830  -8.713   8.693  1.00  0.00     0.078 A 
HETATM   27  C   UNL     1      38.947  -7.615   8.690  1.00  0.00     0.095 A 
HETATM   28  C   UNL     1      38.713  -6.914   9.879  1.00  0.00     0.039 A 
HETATM   29  C   UNL     1      39.308  -7.326  11.073  1.00  0.00     0.003 A 
HETATM   30  C   UNL     1      40.129  -8.449  11.092  1.00  0.00     0.002 A 
HETATM   31  C   UNL     1      40.383  -9.143   9.911  1.00  0.00     0.033 A 
BRANCH  27  32
HETATM   32  O   UNL     1      38.306  -7.343   7.507  1.00  0.00    -0.354 OA
HETATM   33  C   UNL     1      38.679  -6.135   6.849  1.00  0.00     0.210 C 
ENDBRANCH  27  32
ENDBRANCH  20  26
TORSDOF 2
ENDMDL
MODEL 3
REMARK VINA RESULT:      -8.4      2.477      3.521
REMARK  2 active torsions:
REMARK  status: ('A' for Active; 'I' for Inactive)
REMARK    1  A    between atoms: N_20  and  C_21 
REMARK    2  A    between atoms: C_22  and  O_23 
ROOT
HETATM    1  C   UNL     1      39.692 -16.070   1.291  1.00  0.00     0.048 C 
HETATM    2  C   UNL     1      40.086 -14.728   0.741  1.00  0.00    -0.061 A 
HETATM    3  C   UNL     1      40.434 -13.673   1.601  1.00  0.00     0.019 A 
HETATM    4  C   UNL     1      40.835 -12.465   1.047  1.00  0.00     0.016 A 
HETATM    5  C   UNL     1      40.875 -12.320  -0.345  1.00  0.00     0.044 A 
HETATM    6  N   UNL     1      41.273 -11.040  -0.692  1.00  0.00    -0.324 N 
HETATM    7  C   UNL     1      41.524 -10.275   0.431  1.00  0.00     0.264 A 
HETATM    8  O   UNL     1      41.846  -9.098   0.450  1.00  0.00    -0.270 OA
HETATM    9  C   UNL     1      41.204 -11.157   1.694  1.00  0.00     0.250 A 
HETATM   10  N   UNL     1      40.030 -10.592   2.491  1.00  0.00    -0.043 N 
HETATM   11  H   UNL     1      39.672 -11.354   3.083  1.00  0.00     0.282 HD
HETATM   12  C   UNL     1      40.616  -9.506   3.348  1.00  0.00     0.204 C 
HETATM   13  C   UNL     1      39.397  -9.080   4.130  1.00  0.00     0.036 C 
HETATM   14  C   UNL     1      38.285  -9.110   3.057  1.00  0.00     0.030 C 
HETATM   15  C   UNL     1      38.813  -9.967   1.891  1.00  0.00     0.237 C 
HETATM   16  C   UNL     1      41.888 -10.129   3.857  1.00  0.00     0.126 C 
HETATM   17  C   UNL     1      42.388 -11.009   2.691  1.00  0.00     0.145 C 
HETATM   18  C   UNL     1      42.806 -12.284   3.363  1.00  0.00     0.239 C 
HETATM   19  O   UNL     1      43.321 -13.197   2.736  1.00  0.00    -0.272 OA
HETATM   20  N   UNL     1      42.360 -12.258   4.667  1.00  0.00    -0.249 N 
HETATM   21  C   UNL     1      41.683 -11.107   4.972  1.00  0.00     0.238 C 
HETATM   22  O   UNL     1      40.996 -10.857   5.949  1.00  0.00    -0.272 OA
HETATM   23  C   UNL     1      40.536 -13.333  -1.216  1.00  0.00     0.031 A 
HETATM   24  C   UNL     1      40.139 -14.549  -0.658  1.00  0.00     0.009 A 
HETATM   25  H   UNL     1      41.390 -10.703  -1.641  1.00  0.00     0.169 HD
ENDROOT
BRANCH  20  26
HETATM   26  C   UNL     1      42.422 -13.382   5.531  1.00  0.00     0.078 A 
HETATM   27  C   UNL     1      43.523 -13.580   6.388  1.00  0.00     0.095 A 
HETATM   28  C   UNL     1      43.586 -14.734   7.177  1.00  0.00     0.039 A 
HETATM   29  C   UNL     1      42.543 -15.662   7.157  1.00  0.00     0.003 A 
HETATM   30  C   UNL     1      41.424 -15.439   6.361  1.00  0.00     0.002 A 
HETATM   31  C   UNL     1      41.360 -14.302   5.558  1.00  0.00     0.033 A 
BRANCH  27  32
HETATM   32  O   UNL     1      44.449 -12.567   6.445  1.00  0.00    -0.354 OA
HETATM   33  C   UNL     1      44.356 -11.688   7.563  1.00  0.00     0.210 C 
ENDBRANCH  27  32
ENDBRANCH  20  26
TORSDOF 2
ENDMDL
MODEL 4
REMARK VINA RESULT:      -8.3      2.399      6.102
REMARK  2 active torsions:
REMARK  status: ('A' for Active; 'I' for Inactive)
REMARK    1  A    between atoms: N_20  and  C_21 
REMARK    2  A    between atoms: C_22  and  O_23 
ROOT
HETATM    1  C   UNL     1      43.574 -16.083   1.521  1.00  0.00     0.048 C 
HETATM    2  C   UNL     1      42.861 -15.746   2.802  1.00  0.00    -0.061 A 
HETATM    3  C   UNL     1      42.109 -14.564   2.915  1.00  0.00     0.019 A 
HETATM    4  C   UNL     1      41.431 -14.317   4.101  1.00  0.00     0.016 A 
HETATM    5  C   UNL     1      41.517 -15.236   5.153  1.00  0.00     0.044 A 
HETATM    6  N   UNL     1      40.795 -14.794   6.249  1.00  0.00    -0.324 N 
HETATM    7  C   UNL     1      40.191 -13.579   5.990  1.00  0.00     0.264 A 
HETATM    8  O   UNL     1      39.528 -12.917   6.771  1.00  0.00    -0.270 OA
HETATM    9  C   UNL     1      40.608 -13.135   4.539  1.00  0.00     0.250 A 
HETATM   10  N   UNL     1      41.451 -11.861   4.562  1.00  0.00    -0.043 N 
HETATM   11  H   UNL     1      41.950 -11.813   3.662  1.00  0.00     0.282 HD
HETATM   12  C   UNL     1      40.466 -10.733   4.666  1.00  0.00     0.204 C 
HETATM   13  C   UNL     1      41.396  -9.545   4.606  1.00  0.00     0.036 C 
HETATM   14  C   UNL     1      42.585 -10.008   5.478  1.00  0.00     0.030 C 
HETATM   15  C   UNL     1      42.485 -11.540   5.592  1.00  0.00     0.237 C 
HETATM   16  C   UNL     1      39.391 -11.134   3.693  1.00  0.00     0.126 C 
HETATM   17  C   UNL     1      39.324 -12.673   3.793  1.00  0.00     0.145 C 
HETATM   18  C   UNL     1      39.234 -13.118   2.363  1.00  0.00     0.239 C 
HETATM   19  O   UNL     1      39.099 -14.296   2.069  1.00  0.00    -0.272 OA
HETATM   20  N   UNL     1      39.491 -12.035   1.550  1.00  0.00    -0.249 N 
HETATM   21  C   UNL     1      39.747 -10.891   2.259  1.00  0.00     0.238 C 
HETATM   22  O   UNL     1      40.203  -9.830   1.864  1.00  0.00    -0.272 OA
HETATM   23  C   UNL     1      42.249 -16.402   5.076  1.00  0.00     0.031 A 
HETATM   24  C   UNL     1      42.925 -16.653   3.881  1.00  0.00     0.009 A 
HETATM   25  H   UNL     1      40.696 -15.296   7.124  1.00  0.00     0.169 HD
ENDROOT
BRANCH  20  26
HETATM   26  C   UNL     1      39.669 -12.143   0.147  1.00  0.00     0.078 A 
HETATM   27  C   UNL     1      38.584 -11.982  -0.737  1.00  0.00     0.095 A 
HETATM   28  C   UNL     1      38.779 -12.163  -2.111  1.00  0.00     0.039 A 
HETATM   29  C   UNL     1      40.050 -12.451  -2.613  1.00  0.00     0.003 A 
HETATM   30  C   UNL     1      41.137 -12.546  -1.750  1.00  0.00     0.002 A 
HETATM   31  C   UNL     1      40.949 -12.387  -0.378  1.00  0.00     0.033 A 
BRANCH  27  32
HETATM   32  O   UNL     1      37.393 -11.580  -0.184  1.00  0.00    -0.354 OA
HETATM   33  C   UNL     1      37.019 -10.223  -0.409  1.00  0.00     0.210 C 
ENDBRANCH  27  32
ENDBRANCH  20  26
TORSDOF 2
ENDMDL
MODEL 5
REMARK VINA RESULT:      -8.3     15.632     18.209
REMARK  2 active torsions:
REMARK  status: ('A' for Active; 'I' for Inactive)
REMARK    1  A    between atoms: N_20  and  C_21 
REMARK    2  A    between atoms: C_22  and  O_23 
ROOT
HETATM    1  C   UNL     1      41.970 -32.986   0.515  1.00  0.00     0.048 C 
HETATM    2  C   UNL     1      42.762 -31.890   1.173  1.00  0.00    -0.061 A 
HETATM    3  C   UNL     1      43.908 -31.362   0.555  1.00  0.00     0.019 A 
HETATM    4  C   UNL     1      44.580 -30.320   1.178  1.00  0.00     0.016 A 
HETATM    5  C   UNL     1      44.115 -29.829   2.403  1.00  0.00     0.044 A 
HETATM    6  N   UNL     1      44.936 -28.815   2.868  1.00  0.00    -0.324 N 
HETATM    7  C   UNL     1      45.975 -28.573   1.989  1.00  0.00     0.264 A 
HETATM    8  O   UNL     1      46.884 -27.775   2.142  1.00  0.00    -0.270 OA
HETATM    9  C   UNL     1      45.848 -29.599   0.802  1.00  0.00     0.250 A 
HETATM   10  N   UNL     1      47.033 -30.562   0.763  1.00  0.00    -0.043 N 
HETATM   11  H   UNL     1      46.741 -31.377   0.205  1.00  0.00     0.282 HD
HETATM   12  C   UNL     1      48.128 -29.818   0.054  1.00  0.00     0.204 C 
HETATM   13  C   UNL     1      49.202 -30.878   0.010  1.00  0.00     0.036 C 
HETATM   14  C   UNL     1      49.084 -31.529   1.407  1.00  0.00     0.030 C 
HETATM   15  C   UNL     1      47.703 -31.140   1.966  1.00  0.00     0.237 C 
HETATM   16  C   UNL     1      47.403 -29.166  -1.093  1.00  0.00     0.126 C 
HETATM   17  C   UNL     1      46.011 -28.811  -0.529  1.00  0.00     0.145 C 
HETATM   18  C   UNL     1      45.070 -29.224  -1.622  1.00  0.00     0.239 C 
HETATM   19  O   UNL     1      43.868 -29.024  -1.538  1.00  0.00    -0.272 OA
HETATM   20  N   UNL     1      45.774 -29.957  -2.552  1.00  0.00    -0.249 N 
HETATM   21  C   UNL     1      47.097 -30.096  -2.226  1.00  0.00     0.238 C 
HETATM   22  O   UNL     1      47.933 -30.840  -2.712  1.00  0.00    -0.272 OA
HETATM   23  C   UNL     1      42.998 -30.327   3.038  1.00  0.00     0.031 A 
HETATM   24  C   UNL     1      42.318 -31.370   2.408  1.00  0.00     0.009 A 
HETATM   25  H   UNL     1      44.794 -28.296   3.727  1.00  0.00     0.169 HD
ENDROOT
BRANCH  20  26
HETATM   26  C   UNL     1      45.153 -30.656  -3.619  1.00  0.00     0.078 A 
HETATM   27  C   UNL     1      44.838 -32.025  -3.506  1.00  0.00     0.095 A 
HETATM   28  C   UNL     1      44.289 -32.701  -4.601  1.00  0.00     0.039 A 
HETATM   29  C   UNL     1      44.005 -32.017  -5.785  1.00  0.00     0.003 A 
HETATM   30  C   UNL     1      44.255 -30.652  -5.880  1.00  0.00     0.002 A 
HETATM   31  C   UNL     1      44.819 -29.974  -4.801  1.00  0.00     0.033 A 
BRANCH  27  32
HETATM   32  O   UNL     1      45.030 -32.601  -2.274  1.00  0.00    -0.354 OA
HETATM   33  C   UNL     1      45.840 -33.774  -2.245  1.00  0.00     0.210 C 
ENDBRANCH  27  32
ENDBRANCH  20  26
TORSDOF 2
ENDMDL
MODEL 6
REMARK VINA RESULT:      -8.3      2.757      5.125
REMARK  2 active torsions:
REMARK  status: ('A' for Active; 'I' for Inactive)
REMARK    1  A    between atoms: N_20  and  C_21 
REMARK    2  A    between atoms: C_22  and  O_23 
ROOT
HETATM    1  C   UNL     1      45.943 -11.407   5.820  1.00  0.00     0.048 C 
HETATM    2  C   UNL     1      44.689 -10.905   6.480  1.00  0.00    -0.061 A 
HETATM    3  C   UNL     1      43.434 -11.099   5.878  1.00  0.00     0.019 A 
HETATM    4  C   UNL     1      42.299 -10.659   6.546  1.00  0.00     0.016 A 
HETATM    5  C   UNL     1      42.428 -10.027   7.788  1.00  0.00     0.044 A 
HETATM    6  N   UNL     1      41.188  -9.643   8.272  1.00  0.00    -0.324 N 
HETATM    7  C   UNL     1      40.180  -9.997   7.396  1.00  0.00     0.264 A 
HETATM    8  O   UNL     1      38.991  -9.755   7.522  1.00  0.00    -0.270 OA
HETATM    9  C   UNL     1      40.850 -10.668   6.139  1.00  0.00     0.250 A 
HETATM   10  N   UNL     1      40.631  -9.837   4.876  1.00  0.00    -0.043 N 
HETATM   11  H   UNL     1      41.340 -10.137   4.192  1.00  0.00     0.282 HD
HETATM   12  C   UNL     1      39.259 -10.205   4.390  1.00  0.00     0.204 C 
HETATM   13  C   UNL     1      39.186  -9.392   3.120  1.00  0.00     0.036 C 
HETATM   14  C   UNL     1      39.850  -8.060   3.538  1.00  0.00     0.030 C 
HETATM   15  C   UNL     1      40.651  -8.344   4.822  1.00  0.00     0.237 C 
HETATM   16  C   UNL     1      39.235 -11.701   4.551  1.00  0.00     0.126 C 
HETATM   17  C   UNL     1      40.067 -11.974   5.822  1.00  0.00     0.145 C 
HETATM   18  C   UNL     1      40.926 -13.142   5.440  1.00  0.00     0.239 C 
HETATM   19  O   UNL     1      41.677 -13.673   6.244  1.00  0.00    -0.272 OA
HETATM   20  N   UNL     1      40.816 -13.341   4.080  1.00  0.00    -0.249 N 
HETATM   21  C   UNL     1      39.976 -12.440   3.480  1.00  0.00     0.238 C 
HETATM   22  O   UNL     1      39.820 -12.209   2.292  1.00  0.00    -0.272 OA
HETATM   23  C   UNL     1      43.643  -9.818   8.404  1.00  0.00     0.031 A 
HETATM   24  C   UNL     1      44.783 -10.267   7.735  1.00  0.00     0.009 A 
HETATM   25  H   UNL     1      41.026  -9.181   9.160  1.00  0.00     0.169 HD
ENDROOT
BRANCH  20  26
HETATM   26  C   UNL     1      41.637 -14.245   3.359  1.00  0.00     0.078 A 
HETATM   27  C   UNL     1      41.374 -15.630   3.367  1.00  0.00     0.095 A 
HETATM   28  C   UNL     1      42.242 -16.502   2.702  1.00  0.00     0.039 A 
HETATM   29  C   UNL     1      43.336 -16.006   1.990  1.00  0.00     0.003 A 
HETATM   30  C   UNL     1      43.563 -14.635   1.925  1.00  0.00     0.002 A 
HETATM   31  C   UNL     1      42.714 -13.759   2.600  1.00  0.00     0.033 A 
BRANCH  27  32
HETATM   32  O   UNL     1      40.215 -16.033   3.984  1.00  0.00    -0.354 OA
HETATM   33  C   UNL     1      40.359 -16.638   5.266  1.00  0.00     0.210 C 
ENDBRANCH  27  32
ENDBRANCH  20  26
TORSDOF 2
ENDMDL
MODEL 7
REMARK VINA RESULT:      -8.1      6.476      8.626
REMARK  2 active torsions:
REMARK  status: ('A' for Active; 'I' for Inactive)
REMARK    1  A    between atoms: N_20  and  C_21 
REMARK    2  A    between atoms: C_22  and  O_23 
ROOT
HETATM    1  C   UNL     1      38.713  -8.031   6.474  1.00  0.00     0.048 C 
HETATM    2  C   UNL     1      39.219  -7.261   7.663  1.00  0.00    -0.061 A 
HETATM    3  C   UNL     1      40.254  -7.776   8.463  1.00  0.00     0.019 A 
HETATM    4  C   UNL     1      40.720  -7.009   9.523  1.00  0.00     0.016 A 
HETATM    5  C   UNL     1      40.148  -5.758   9.777  1.00  0.00     0.044 A 
HETATM    6  N   UNL     1      40.732  -5.170  10.887  1.00  0.00    -0.324 N 
HETATM    7  C   UNL     1      41.715  -5.981  11.421  1.00  0.00     0.264 A 
HETATM    8  O   UNL     1      42.374  -5.759  12.423  1.00  0.00    -0.270 OA
HETATM    9  C   UNL     1      41.754  -7.308  10.575  1.00  0.00     0.250 A 
HETATM   10  N   UNL     1      41.349  -8.520  11.412  1.00  0.00    -0.043 N 
HETATM   11  H   UNL     1      41.083  -9.265  10.753  1.00  0.00     0.282 HD
HETATM   12  C   UNL     1      42.587  -8.916  12.164  1.00  0.00     0.204 C 
HETATM   13  C   UNL     1      42.093 -10.147  12.885  1.00  0.00     0.036 C 
HETATM   14  C   UNL     1      40.668  -9.730  13.317  1.00  0.00     0.030 C 
HETATM   15  C   UNL     1      40.275  -8.520  12.450  1.00  0.00     0.237 C 
HETATM   16  C   UNL     1      43.665  -8.809  11.119  1.00  0.00     0.126 C 
HETATM   17  C   UNL     1      43.241  -7.614  10.238  1.00  0.00     0.145 C 
HETATM   18  C   UNL     1      43.480  -8.102   8.840  1.00  0.00     0.239 C 
HETATM   19  O   UNL     1      43.310  -7.376   7.873  1.00  0.00    -0.272 OA
HETATM   20  N   UNL     1      43.733  -9.456   8.885  1.00  0.00    -0.249 N 
HETATM   21  C   UNL     1      43.698  -9.958  10.160  1.00  0.00     0.238 C 
HETATM   22  O   UNL     1      43.673 -11.122  10.525  1.00  0.00    -0.272 OA
HETATM   23  C   UNL     1      39.130  -5.227   9.015  1.00  0.00     0.031 A 
HETATM   24  C   UNL     1      38.667  -5.994   7.946  1.00  0.00     0.009 A 
HETATM   25  H   UNL     1      40.495  -4.256  11.256  1.00  0.00     0.169 HD
ENDROOT
BRANCH  20  26
HETATM   26  C   UNL     1      43.819 -10.269   7.726  1.00  0.00     0.078 A 
HETATM   27  C   UNL     1      45.059 -10.767   7.279  1.00  0.00     0.095 A 
HETATM   28  C   UNL     1      45.119 -11.509   6.093  1.00  0.00     0.039 A 
HETATM   29  C   UNL     1      43.953 -11.800   5.381  1.00  0.00     0.003 A 
HETATM   30  C   UNL     1      42.720 -11.365   5.853  1.00  0.00     0.002 A 
HETATM   31  C   UNL     1      42.652 -10.610   7.023  1.00  0.00     0.033 A 
BRANCH  27  32
HETATM   32  O   UNL     1      46.142 -10.546   8.093  1.00  0.00    -0.354 OA
HETATM   33  C   UNL     1      46.889  -9.358   7.843  1.00  0.00     0.210 C 
ENDBRANCH  27  32
ENDBRANCH  20  26
TORSDOF 2
ENDMDL
MODEL 8
REMARK VINA RESULT:      -7.9      7.042     10.167
REMARK  2 active torsions:
REMARK  status: ('A' for Active; 'I' for Inactive)
REMARK    1  A    between atoms: N_20  and  C_21 
REMARK    2  A    between atoms: C_22  and  O_23 
ROOT
HETATM    1  C   UNL     1      45.321  -8.555   8.570  1.00  0.00     0.048 C 
HETATM    2  C   UNL     1      44.369  -9.081   9.610  1.00  0.00    -0.061 A 
HETATM    3  C   UNL     1      43.040  -8.628   9.661  1.00  0.00     0.019 A 
HETATM    4  C   UNL     1      42.186  -9.176  10.608  1.00  0.00     0.016 A 
HETATM    5  C   UNL     1      42.663 -10.151  11.491  1.00  0.00     0.044 A 
HETATM    6  N   UNL     1      41.667 -10.547  12.368  1.00  0.00    -0.324 N 
HETATM    7  C   UNL     1      40.488  -9.872  12.119  1.00  0.00     0.264 A 
HETATM    8  O   UNL     1      39.449  -9.969  12.751  1.00  0.00    -0.270 OA
HETATM    9  C   UNL     1      40.753  -8.859  10.944  1.00  0.00     0.250 A 
HETATM   10  N   UNL     1      40.608  -7.411  11.408  1.00  0.00    -0.043 N 
HETATM   11  H   UNL     1      41.097  -6.823  10.719  1.00  0.00     0.282 HD
HETATM   12  C   UNL     1      39.134  -7.127  11.373  1.00  0.00     0.204 C 
HETATM   13  C   UNL     1      39.121  -5.671  11.772  1.00  0.00     0.036 C 
HETATM   14  C   UNL     1      40.191  -5.621  12.886  1.00  0.00     0.030 C 
HETATM   15  C   UNL     1      41.048  -6.892  12.738  1.00  0.00     0.237 C 
HETATM   16  C   UNL     1      38.703  -7.748  10.072  1.00  0.00     0.126 C 
HETATM   17  C   UNL     1      39.591  -9.001   9.920  1.00  0.00     0.145 C 
HETATM   18  C   UNL     1      40.015  -8.964   8.482  1.00  0.00     0.239 C 
HETATM   19  O   UNL     1      40.686  -9.859   7.991  1.00  0.00    -0.272 OA
HETATM   20  N   UNL     1      39.663  -7.741   7.953  1.00  0.00    -0.249 N 
HETATM   21  C   UNL     1      39.042  -6.929   8.865  1.00  0.00     0.238 C 
HETATM   22  O   UNL     1      38.795  -5.736   8.787  1.00  0.00    -0.272 OA
HETATM   23  C   UNL     1      43.961 -10.615  11.469  1.00  0.00     0.031 A 
HETATM   24  C   UNL     1      44.818 -10.069  10.513  1.00  0.00     0.009 A 
HETATM   25  H   UNL     1      41.771 -11.252  13.089  1.00  0.00     0.169 HD
ENDROOT
BRANCH  20  26
HETATM   26  C   UNL     1      40.079  -7.302   6.670  1.00  0.00     0.078 A 
HETATM   27  C   UNL     1      39.357  -7.654   5.512  1.00  0.00     0.095 A 
HETATM   28  C   UNL     1      39.833  -7.262   4.255  1.00  0.00     0.039 A 
HETATM   29  C   UNL     1      40.987  -6.484   4.146  1.00  0.00     0.003 A 
HETATM   30  C   UNL     1      41.667  -6.080   5.290  1.00  0.00     0.002 A 
HETATM   31  C   UNL     1      41.212  -6.480   6.545  1.00  0.00     0.033 A 
BRANCH  27  32
HETATM   32  O   UNL     1      38.169  -8.314   5.704  1.00  0.00    -0.354 OA
HETATM   33  C   UNL     1      38.124  -9.673   5.275  1.00  0.00     0.210 C 
ENDBRANCH  27  32
ENDBRANCH  20  26
TORSDOF 2
ENDMDL
MODEL 9
REMARK VINA RESULT:      -7.6      2.257      4.945
REMARK  2 active torsions:
REMARK  status: ('A' for Active; 'I' for Inactive)
REMARK    1  A    between atoms: N_20  and  C_21 
REMARK    2  A    between atoms: C_22  and  O_23 
ROOT
HETATM    1  C   UNL     1      42.319  -9.793   7.549  1.00  0.00     0.048 C 
HETATM    2  C   UNL     1      41.171  -9.647   6.589  1.00  0.00    -0.061 A 
HETATM    3  C   UNL     1      41.070 -10.477   5.459  1.00  0.00     0.019 A 
HETATM    4  C   UNL     1      39.968 -10.337   4.626  1.00  0.00     0.016 A 
HETATM    5  C   UNL     1      38.995  -9.375   4.919  1.00  0.00     0.044 A 
HETATM    6  N   UNL     1      37.999  -9.378   3.957  1.00  0.00    -0.324 N 
HETATM    7  C   UNL     1      38.245 -10.332   2.988  1.00  0.00     0.264 A 
HETATM    8  O   UNL     1      37.576 -10.543   1.991  1.00  0.00    -0.270 OA
HETATM    9  C   UNL     1      39.617 -11.023   3.333  1.00  0.00     0.250 A 
HETATM   10  N   UNL     1      40.670 -10.746   2.263  1.00  0.00    -0.043 N 
HETATM   11  H   UNL     1      41.589 -10.932   2.689  1.00  0.00     0.282 HD
HETATM   12  C   UNL     1      40.399 -11.740   1.170  1.00  0.00     0.204 C 
HETATM   13  C   UNL     1      41.529 -11.424   0.219  1.00  0.00     0.036 C 
HETATM   14  C   UNL     1      41.585  -9.880   0.269  1.00  0.00     0.030 C 
HETATM   15  C   UNL     1      40.836  -9.447   1.543  1.00  0.00     0.237 C 
HETATM   16  C   UNL     1      40.138 -13.012   1.929  1.00  0.00     0.126 C 
HETATM   17  C   UNL     1      39.417 -12.561   3.217  1.00  0.00     0.145 C 
HETATM   18  C   UNL     1      40.083 -13.363   4.296  1.00  0.00     0.239 C 
HETATM   19  O   UNL     1      39.709 -13.304   5.458  1.00  0.00    -0.272 OA
HETATM   20  N   UNL     1      41.199 -13.973   3.764  1.00  0.00    -0.249 N 
HETATM   21  C   UNL     1      41.377 -13.683   2.437  1.00  0.00     0.238 C 
HETATM   22  O   UNL     1      42.353 -13.885   1.733  1.00  0.00    -0.272 OA
HETATM   23  C   UNL     1      39.066  -8.543   6.016  1.00  0.00     0.031 A 
HETATM   24  C   UNL     1      40.170  -8.689   6.857  1.00  0.00     0.009 A 
HETATM   25  H   UNL     1      37.181  -8.779   3.962  1.00  0.00     0.169 HD
ENDROOT
BRANCH  20  26
HETATM   26  C   UNL     1      42.159 -14.656   4.552  1.00  0.00     0.078 A 
HETATM   27  C   UNL     1      42.299 -16.056   4.476  1.00  0.00     0.095 A 
HETATM   28  C   UNL     1      43.209 -16.707   5.317  1.00  0.00     0.039 A 
HETATM   29  C   UNL     1      44.013 -15.974   6.192  1.00  0.00     0.003 A 
HETATM   30  C   UNL     1      43.925 -14.586   6.224  1.00  0.00     0.002 A 
HETATM   31  C   UNL     1      43.009 -13.930   5.404  1.00  0.00     0.033 A 
BRANCH  27  32
HETATM   32  O   UNL     1      41.564 -16.697   3.509  1.00  0.00    -0.354 OA
HETATM   33  C   UNL     1      42.306 -17.391   2.509  1.00  0.00     0.210 C 
ENDBRANCH  27  32
ENDBRANCH  20  26
TORSDOF 2
ENDMDL
MODEL 10
REMARK VINA RESULT:      -7.5     16.205     18.511
REMARK  2 active torsions:
REMARK  status: ('A' for Active; 'I' for Inactive)
REMARK    1  A    between atoms: N_20  and  C_21 
REMARK    2  A    between atoms: C_22  and  O_23 
ROOT
HETATM    1  C   UNL     1      43.631 -32.788   1.782  1.00  0.00     0.048 C 
HETATM    2  C   UNL     1      44.789 -32.139   2.490  1.00  0.00    -0.061 A 
HETATM    3  C   UNL     1      45.820 -31.522   1.762  1.00  0.00     0.019 A 
HETATM    4  C   UNL     1      46.845 -30.896   2.459  1.00  0.00     0.016 A 
HETATM    5  C   UNL     1      46.836 -30.902   3.858  1.00  0.00     0.044 A 
HETATM    6  N   UNL     1      47.952 -30.251   4.357  1.00  0.00    -0.324 N 
HETATM    7  C   UNL     1      48.751 -29.777   3.334  1.00  0.00     0.264 A 
HETATM    8  O   UNL     1      49.822 -29.205   3.455  1.00  0.00    -0.270 OA
HETATM    9  C   UNL     1      48.096 -30.214   1.971  1.00  0.00     0.250 A 
HETATM   10  N   UNL     1      48.987 -31.190   1.206  1.00  0.00    -0.043 N 
HETATM   11  H   UNL     1      48.388 -31.674   0.523  1.00  0.00     0.282 HD
HETATM   12  C   UNL     1      49.995 -30.335   0.493  1.00  0.00     0.204 C 
HETATM   13  C   UNL     1      50.760 -31.386  -0.274  1.00  0.00     0.036 C 
HETATM   14  C   UNL     1      50.871 -32.534   0.755  1.00  0.00     0.030 C 
HETATM   15  C   UNL     1      49.805 -32.271   1.835  1.00  0.00     0.237 C 
HETATM   16  C   UNL     1      49.157 -29.205  -0.042  1.00  0.00     0.126 C 
HETATM   17  C   UNL     1      48.074 -28.974   1.033  1.00  0.00     0.145 C 
HETATM   18  C   UNL     1      46.813 -28.811   0.238  1.00  0.00     0.239 C 
HETATM   19  O   UNL     1      45.749 -28.544   0.775  1.00  0.00    -0.272 OA
HETATM   20  N   UNL     1      47.069 -29.168  -1.068  1.00  0.00    -0.249 N 
HETATM   21  C   UNL     1      48.368 -29.559  -1.265  1.00  0.00     0.238 C 
HETATM   22  O   UNL     1      48.862 -30.120  -2.229  1.00  0.00    -0.272 OA
HETATM   23  C   UNL     1      45.843 -31.501   4.602  1.00  0.00     0.031 A 
HETATM   24  C   UNL     1      44.809 -32.124   3.901  1.00  0.00     0.009 A 
HETATM   25  H   UNL     1      48.158 -30.115   5.340  1.00  0.00     0.169 HD
ENDROOT
BRANCH  20  26
HETATM   26  C   UNL     1      46.053 -29.308  -2.048  1.00  0.00     0.078 A 
HETATM   27  C   UNL     1      45.407 -30.543  -2.254  1.00  0.00     0.095 A 
HETATM   28  C   UNL     1      44.457 -30.664  -3.275  1.00  0.00     0.039 A 
HETATM   29  C   UNL     1      44.111 -29.558  -4.055  1.00  0.00     0.003 A 
HETATM   30  C   UNL     1      44.699 -28.322  -3.812  1.00  0.00     0.002 A 
HETATM   31  C   UNL     1      45.660 -28.195  -2.810  1.00  0.00     0.033 A 
BRANCH  27  32
HETATM   32  O   UNL     1      45.709 -31.551  -1.372  1.00  0.00    -0.354 OA
HETATM   33  C   UNL     1      46.368 -32.691  -1.917  1.00  0.00     0.210 C 
ENDBRANCH  27  32
ENDBRANCH  20  26
TORSDOF 2
ENDMDL
