MODEL 1
REMARK VINA RESULT:      -7.6      0.000      0.000
REMARK  4 active torsions:
REMARK  status: ('A' for Active; 'I' for Inactive)
REMARK    1  A    between atoms: C_3  and  N_4 
REMARK       I    between atoms: N_4  and  C_5 
REMARK    2  A    between atoms: C_5  and  C_6 
REMARK    3  A    between atoms: C_7  and  C_8 
REMARK    4  A    between atoms: C_15  and  C_16 
ROOT
HETATM    1  C   UNL     1      44.605 -16.378   6.292  1.00  0.00     0.003 A 
HETATM    2  C   UNL     1      43.629 -15.386   6.183  1.00  0.00     0.029 A 
HETATM    3  C   UNL     1      42.626 -15.488   5.223  1.00  0.00     0.035 A 
HETATM    4  C   UNL     1      42.606 -16.610   4.378  1.00  0.00     0.043 A 
HETATM    5  C   UNL     1      43.586 -17.613   4.468  1.00  0.00    -0.006 A 
HETATM    6  C   UNL     1      44.588 -17.481   5.436  1.00  0.00     0.014 A 
ENDROOT
BRANCH   3   7
HETATM    7  N   UNL     1      41.627 -14.511   5.025  1.00  0.00    -0.324 N 
HETATM    8  C   UNL     1      41.774 -13.280   4.420  1.00  0.00     0.245 C 
HETATM    9  O   UNL     1      42.787 -12.775   3.957  1.00  0.00    -0.268 OA
HETATM   10  H   UNL     1      40.699 -14.748   5.349  1.00  0.00     0.169 HD
BRANCH   8  11
HETATM   11  C   UNL     1      40.463 -12.601   4.258  1.00  0.00     0.077 C 
HETATM   12  C   UNL     1      39.535 -12.930   3.349  1.00  0.00     0.042 C 
BRANCH  12  13
HETATM   13  C   UNL     1      39.727 -13.900   2.329  1.00  0.00     0.075 A 
HETATM   14  O   UNL     1      39.734 -15.260   2.545  1.00  0.00    -0.323 OA
HETATM   15  C   UNL     1      39.963 -15.880   1.362  1.00  0.00     0.142 A 
HETATM   16  C   UNL     1      40.127 -14.958   0.361  1.00  0.00     0.027 A 
HETATM   17  C   UNL     1      39.987 -13.692   0.979  1.00  0.00     0.039 A 
ENDBRANCH  12  13
ENDBRANCH   8  11
ENDBRANCH   3   7
BRANCH   5  18
HETATM   18  C   UNL     1      43.562 -18.753   3.547  1.00  0.00     0.061 A 
HETATM   19  N   UNL     1      43.961 -20.024   3.885  1.00  0.00    -0.278 N 
HETATM   20  H   UNL     1      44.297 -20.350   4.784  1.00  0.00     0.189 HD
HETATM   21  N   UNL     1      43.869 -20.917   2.885  1.00  0.00    -0.187 NA
HETATM   22  C   UNL     1      43.385 -20.201   1.871  1.00  0.00     0.141 A 
HETATM   23  C   UNL     1      43.169 -18.858   2.224  1.00  0.00     0.053 A 
ENDBRANCH   5  18
TORSDOF 4
ENDMDL
MODEL 2
REMARK VINA RESULT:      -7.1      2.165      3.942
REMARK  4 active torsions:
REMARK  status: ('A' for Active; 'I' for Inactive)
REMARK    1  A    between atoms: C_3  and  N_4 
REMARK       I    between atoms: N_4  and  C_5 
REMARK    2  A    between atoms: C_5  and  C_6 
REMARK    3  A    between atoms: C_7  and  C_8 
REMARK    4  A    between atoms: C_15  and  C_16 
ROOT
HETATM    1  C   UNL     1      43.943 -16.854   6.695  1.00  0.00     0.003 A 
HETATM    2  C   UNL     1      43.609 -15.575   6.245  1.00  0.00     0.029 A 
HETATM    3  C   UNL     1      43.257 -15.367   4.913  1.00  0.00     0.035 A 
HETATM    4  C   UNL     1      43.230 -16.466   4.039  1.00  0.00     0.043 A 
HETATM    5  C   UNL     1      43.570 -17.758   4.473  1.00  0.00    -0.006 A 
HETATM    6  C   UNL     1      43.929 -17.937   5.814  1.00  0.00     0.014 A 
ENDROOT
BRANCH   3   7
HETATM    7  N   UNL     1      42.944 -14.101   4.373  1.00  0.00    -0.324 N 
HETATM    8  C   UNL     1      41.798 -13.365   4.587  1.00  0.00     0.245 C 
HETATM    9  O   UNL     1      40.819 -13.658   5.258  1.00  0.00    -0.268 OA
HETATM   10  H   UNL     1      43.646 -13.684   3.777  1.00  0.00     0.169 HD
BRANCH   8  11
HETATM   11  C   UNL     1      41.904 -12.017   3.974  1.00  0.00     0.077 C 
HETATM   12  C   UNL     1      42.697 -11.031   4.418  1.00  0.00     0.042 C 
BRANCH  12  13
HETATM   13  C   UNL     1      43.458 -11.100   5.614  1.00  0.00     0.075 A 
HETATM   14  O   UNL     1      44.692 -11.703   5.713  1.00  0.00    -0.323 OA
HETATM   15  C   UNL     1      45.117 -11.601   6.996  1.00  0.00     0.142 A 
HETATM   16  C   UNL     1      44.182 -10.954   7.760  1.00  0.00     0.027 A 
HETATM   17  C   UNL     1      43.117 -10.643   6.882  1.00  0.00     0.039 A 
ENDBRANCH  12  13
ENDBRANCH   8  11
ENDBRANCH   3   7
BRANCH   5  18
HETATM   18  C   UNL     1      43.570 -18.879   3.529  1.00  0.00     0.061 A 
HETATM   19  N   UNL     1      43.953 -20.159   3.853  1.00  0.00    -0.278 N 
HETATM   20  H   UNL     1      44.260 -20.504   4.754  1.00  0.00     0.189 HD
HETATM   21  N   UNL     1      43.888 -21.031   2.833  1.00  0.00    -0.187 NA
HETATM   22  C   UNL     1      43.438 -20.292   1.819  1.00  0.00     0.141 A 
HETATM   23  C   UNL     1      43.216 -18.955   2.193  1.00  0.00     0.053 A 
ENDBRANCH   5  18
TORSDOF 4
ENDMDL
MODEL 3
REMARK VINA RESULT:      -6.9      3.039      6.764
REMARK  4 active torsions:
REMARK  status: ('A' for Active; 'I' for Inactive)
REMARK    1  A    between atoms: C_3  and  N_4 
REMARK       I    between atoms: N_4  and  C_5 
REMARK    2  A    between atoms: C_5  and  C_6 
REMARK    3  A    between atoms: C_7  and  C_8 
REMARK    4  A    between atoms: C_15  and  C_16 
ROOT
HETATM    1  C   UNL     1      39.917 -16.047   1.122  1.00  0.00     0.003 A 
HETATM    2  C   UNL     1      40.827 -16.337   2.140  1.00  0.00     0.029 A 
HETATM    3  C   UNL     1      41.813 -15.417   2.486  1.00  0.00     0.035 A 
HETATM    4  C   UNL     1      41.867 -14.190   1.803  1.00  0.00     0.043 A 
HETATM    5  C   UNL     1      40.964 -13.885   0.770  1.00  0.00    -0.006 A 
HETATM    6  C   UNL     1      39.988 -14.832   0.437  1.00  0.00     0.014 A 
ENDROOT
BRANCH   3   7
HETATM    7  N   UNL     1      42.792 -15.650   3.476  1.00  0.00    -0.324 N 
HETATM    8  C   UNL     1      42.586 -16.131   4.752  1.00  0.00     0.245 C 
HETATM    9  O   UNL     1      41.532 -16.431   5.292  1.00  0.00    -0.268 OA
HETATM   10  H   UNL     1      43.748 -15.456   3.213  1.00  0.00     0.169 HD
BRANCH   8  11
HETATM   11  C   UNL     1      43.876 -16.390   5.442  1.00  0.00     0.077 C 
HETATM   12  C   UNL     1      44.659 -17.457   5.233  1.00  0.00     0.042 C 
BRANCH  12  13
HETATM   13  C   UNL     1      44.302 -18.557   4.408  1.00  0.00     0.075 A 
HETATM   14  O   UNL     1      44.010 -18.456   3.066  1.00  0.00    -0.323 OA
HETATM   15  C   UNL     1      43.695 -19.689   2.602  1.00  0.00     0.142 A 
HETATM   16  C   UNL     1      43.754 -20.611   3.614  1.00  0.00     0.027 A 
HETATM   17  C   UNL     1      44.131 -19.888   4.771  1.00  0.00     0.039 A 
ENDBRANCH  12  13
ENDBRANCH   8  11
ENDBRANCH   3   7
BRANCH   5  18
HETATM   18  C   UNL     1      41.068 -12.614   0.049  1.00  0.00     0.061 A 
HETATM   19  N   UNL     1      41.242 -12.512  -1.310  1.00  0.00    -0.278 N 
HETATM   20  H   UNL     1      41.304 -13.265  -1.985  1.00  0.00     0.189 HD
HETATM   21  N   UNL     1      41.325 -11.250  -1.765  1.00  0.00    -0.187 NA
HETATM   22  C   UNL     1      41.188 -10.512  -0.663  1.00  0.00     0.141 A 
HETATM   23  C   UNL     1      41.018 -11.302   0.488  1.00  0.00     0.053 A 
ENDBRANCH   5  18
TORSDOF 4
ENDMDL
MODEL 4
REMARK VINA RESULT:      -6.8      1.861      2.684
REMARK  4 active torsions:
REMARK  status: ('A' for Active; 'I' for Inactive)
REMARK    1  A    between atoms: C_3  and  N_4 
REMARK       I    between atoms: N_4  and  C_5 
REMARK    2  A    between atoms: C_5  and  C_6 
REMARK    3  A    between atoms: C_7  and  C_8 
REMARK    4  A    between atoms: C_15  and  C_16 
ROOT
HETATM    1  C   UNL     1      43.149 -15.667   1.527  1.00  0.00     0.003 A 
HETATM    2  C   UNL     1      42.377 -14.908   2.409  1.00  0.00     0.029 A 
HETATM    3  C   UNL     1      41.996 -15.433   3.642  1.00  0.00     0.035 A 
HETATM    4  C   UNL     1      42.414 -16.729   3.986  1.00  0.00     0.043 A 
HETATM    5  C   UNL     1      43.184 -17.510   3.107  1.00  0.00    -0.006 A 
HETATM    6  C   UNL     1      43.545 -16.961   1.871  1.00  0.00     0.014 A 
ENDROOT
BRANCH   3   7
HETATM    7  N   UNL     1      41.187 -14.745   4.571  1.00  0.00    -0.324 N 
HETATM    8  C   UNL     1      41.557 -13.687   5.375  1.00  0.00     0.245 C 
HETATM    9  O   UNL     1      42.649 -13.146   5.466  1.00  0.00    -0.268 OA
HETATM   10  H   UNL     1      40.227 -15.054   4.643  1.00  0.00     0.169 HD
BRANCH   8  11
HETATM   11  C   UNL     1      40.388 -13.130   6.102  1.00  0.00     0.077 C 
HETATM   12  C   UNL     1      39.372 -12.468   5.532  1.00  0.00     0.042 C 
BRANCH  12  13
HETATM   13  C   UNL     1      39.333 -12.096   4.162  1.00  0.00     0.075 A 
HETATM   14  O   UNL     1      39.038 -12.962   3.132  1.00  0.00    -0.323 OA
HETATM   15  C   UNL     1      39.111 -12.280   1.964  1.00  0.00     0.142 A 
HETATM   16  C   UNL     1      39.467 -10.976   2.192  1.00  0.00     0.027 A 
HETATM   17  C   UNL     1      39.619 -10.859   3.594  1.00  0.00     0.039 A 
ENDBRANCH  12  13
ENDBRANCH   8  11
ENDBRANCH   3   7
BRANCH   5  18
HETATM   18  C   UNL     1      43.572 -18.873   3.477  1.00  0.00     0.061 A 
HETATM   19  N   UNL     1      43.488 -19.954   2.632  1.00  0.00    -0.278 N 
HETATM   20  H   UNL     1      43.176 -19.964   1.668  1.00  0.00     0.189 HD
HETATM   21  N   UNL     1      43.885 -21.116   3.178  1.00  0.00    -0.187 NA
HETATM   22  C   UNL     1      44.249 -20.772   4.413  1.00  0.00     0.141 A 
HETATM   23  C   UNL     1      44.084 -19.396   4.652  1.00  0.00     0.053 A 
ENDBRANCH   5  18
TORSDOF 4
ENDMDL
MODEL 5
REMARK VINA RESULT:      -6.8      2.146      3.330
REMARK  4 active torsions:
REMARK  status: ('A' for Active; 'I' for Inactive)
REMARK    1  A    between atoms: C_3  and  N_4 
REMARK       I    between atoms: N_4  and  C_5 
REMARK    2  A    between atoms: C_5  and  C_6 
REMARK    3  A    between atoms: C_7  and  C_8 
REMARK    4  A    between atoms: C_15  and  C_16 
ROOT
HETATM    1  C   UNL     1      43.207 -15.258   4.346  1.00  0.00     0.003 A 
HETATM    2  C   UNL     1      42.638 -14.638   3.231  1.00  0.00     0.029 A 
HETATM    3  C   UNL     1      42.355 -15.376   2.084  1.00  0.00     0.035 A 
HETATM    4  C   UNL     1      42.638 -16.752   2.075  1.00  0.00     0.043 A 
HETATM    5  C   UNL     1      43.218 -17.389   3.185  1.00  0.00    -0.006 A 
HETATM    6  C   UNL     1      43.501 -16.622   4.321  1.00  0.00     0.014 A 
ENDROOT
BRANCH   3   7
HETATM    7  N   UNL     1      41.816 -14.818   0.905  1.00  0.00    -0.324 N 
HETATM    8  C   UNL     1      40.523 -14.943   0.440  1.00  0.00     0.245 C 
HETATM    9  O   UNL     1      39.596 -15.571   0.930  1.00  0.00    -0.268 OA
HETATM   10  H   UNL     1      42.444 -14.251   0.351  1.00  0.00     0.169 HD
BRANCH   8  11
HETATM   11  C   UNL     1      40.295 -14.083  -0.749  1.00  0.00     0.077 C 
HETATM   12  C   UNL     1      40.009 -12.775  -0.708  1.00  0.00     0.042 C 
BRANCH  12  13
HETATM   13  C   UNL     1      39.764 -12.051   0.489  1.00  0.00     0.075 A 
HETATM   14  O   UNL     1      38.536 -11.969   1.107  1.00  0.00    -0.323 OA
HETATM   15  C   UNL     1      38.660 -11.186   2.206  1.00  0.00     0.142 A 
HETATM   16  C   UNL     1      39.946 -10.729   2.325  1.00  0.00     0.027 A 
HETATM   17  C   UNL     1      40.650 -11.271   1.223  1.00  0.00     0.039 A 
ENDBRANCH  12  13
ENDBRANCH   8  11
ENDBRANCH   3   7
BRANCH   5  18
HETATM   18  C   UNL     1      43.538 -18.818   3.132  1.00  0.00     0.061 A 
HETATM   19  N   UNL     1      43.426 -19.591   2.002  1.00  0.00    -0.278 N 
HETATM   20  H   UNL     1      43.135 -19.298   1.076  1.00  0.00     0.189 HD
HETATM   21  N   UNL     1      43.760 -20.881   2.177  1.00  0.00    -0.187 NA
HETATM   22  C   UNL     1      44.111 -20.940   3.462  1.00  0.00     0.141 A 
HETATM   23  C   UNL     1      44.000 -19.692   4.100  1.00  0.00     0.053 A 
ENDBRANCH   5  18
TORSDOF 4
ENDMDL
MODEL 6
REMARK VINA RESULT:      -6.7      2.980      6.706
REMARK  4 active torsions:
REMARK  status: ('A' for Active; 'I' for Inactive)
REMARK    1  A    between atoms: C_3  and  N_4 
REMARK       I    between atoms: N_4  and  C_5 
REMARK    2  A    between atoms: C_5  and  C_6 
REMARK    3  A    between atoms: C_7  and  C_8 
REMARK    4  A    between atoms: C_15  and  C_16 
ROOT
HETATM    1  C   UNL     1      40.791 -11.447   4.829  1.00  0.00     0.003 A 
HETATM    2  C   UNL     1      40.884 -12.674   4.170  1.00  0.00     0.029 A 
HETATM    3  C   UNL     1      41.969 -13.516   4.400  1.00  0.00     0.035 A 
HETATM    4  C   UNL     1      42.956 -13.116   5.316  1.00  0.00     0.043 A 
HETATM    5  C   UNL     1      42.882 -11.881   5.982  1.00  0.00    -0.006 A 
HETATM    6  C   UNL     1      41.786 -11.050   5.725  1.00  0.00     0.014 A 
ENDROOT
BRANCH   3   7
HETATM    7  N   UNL     1      42.155 -14.753   3.747  1.00  0.00    -0.324 N 
HETATM    8  C   UNL     1      42.952 -15.003   2.649  1.00  0.00     0.245 C 
HETATM    9  O   UNL     1      43.634 -14.217   2.008  1.00  0.00    -0.268 OA
HETATM   10  H   UNL     1      41.662 -15.544   4.138  1.00  0.00     0.169 HD
BRANCH   8  11
HETATM   11  C   UNL     1      43.011 -16.456   2.348  1.00  0.00     0.077 C 
HETATM   12  C   UNL     1      43.108 -17.428   3.267  1.00  0.00     0.042 C 
BRANCH  12  13
HETATM   13  C   UNL     1      43.292 -17.195   4.656  1.00  0.00     0.075 A 
HETATM   14  O   UNL     1      42.263 -17.036   5.557  1.00  0.00    -0.323 OA
HETATM   15  C   UNL     1      42.798 -16.812   6.782  1.00  0.00     0.142 A 
HETATM   16  C   UNL     1      44.166 -16.801   6.713  1.00  0.00     0.027 A 
HETATM   17  C   UNL     1      44.484 -17.035   5.353  1.00  0.00     0.039 A 
ENDBRANCH  12  13
ENDBRANCH   8  11
ENDBRANCH   3   7
BRANCH   5  18
HETATM   18  C   UNL     1      43.946 -11.474   6.903  1.00  0.00     0.061 A 
HETATM   19  N   UNL     1      43.772 -11.308   8.256  1.00  0.00    -0.278 N 
HETATM   20  H   UNL     1      42.926 -11.453   8.794  1.00  0.00     0.189 HD
HETATM   21  N   UNL     1      44.878 -10.917   8.913  1.00  0.00    -0.187 NA
HETATM   22  C   UNL     1      45.799 -10.840   7.953  1.00  0.00     0.141 A 
HETATM   23  C   UNL     1      45.282 -11.180   6.691  1.00  0.00     0.053 A 
ENDBRANCH   5  18
TORSDOF 4
ENDMDL
MODEL 7
REMARK VINA RESULT:      -6.7      4.902      7.891
REMARK  4 active torsions:
REMARK  status: ('A' for Active; 'I' for Inactive)
REMARK    1  A    between atoms: C_3  and  N_4 
REMARK       I    between atoms: N_4  and  C_5 
REMARK    2  A    between atoms: C_5  and  C_6 
REMARK    3  A    between atoms: C_7  and  C_8 
REMARK    4  A    between atoms: C_15  and  C_16 
ROOT
HETATM    1  C   UNL     1      46.236 -10.838   7.209  1.00  0.00     0.003 A 
HETATM    2  C   UNL     1      45.390 -11.584   6.386  1.00  0.00     0.029 A 
HETATM    3  C   UNL     1      44.082 -11.853   6.782  1.00  0.00     0.035 A 
HETATM    4  C   UNL     1      43.627 -11.349   8.011  1.00  0.00     0.043 A 
HETATM    5  C   UNL     1      44.467 -10.603   8.855  1.00  0.00    -0.006 A 
HETATM    6  C   UNL     1      45.780 -10.356   8.437  1.00  0.00     0.014 A 
ENDROOT
BRANCH   3   7
HETATM    7  N   UNL     1      43.177 -12.630   6.026  1.00  0.00    -0.324 N 
HETATM    8  C   UNL     1      42.687 -13.880   6.343  1.00  0.00     0.245 C 
HETATM    9  O   UNL     1      42.944 -14.575   7.315  1.00  0.00    -0.268 OA
HETATM   10  H   UNL     1      42.842 -12.217   5.167  1.00  0.00     0.169 HD
BRANCH   8  11
HETATM   11  C   UNL     1      41.638 -14.304   5.381  1.00  0.00     0.077 C 
HETATM   12  C   UNL     1      41.542 -15.526   4.838  1.00  0.00     0.042 C 
BRANCH  12  13
HETATM   13  C   UNL     1      42.507 -16.553   5.013  1.00  0.00     0.075 A 
HETATM   14  O   UNL     1      42.524 -17.426   6.078  1.00  0.00    -0.323 OA
HETATM   15  C   UNL     1      43.587 -18.255   5.935  1.00  0.00     0.142 A 
HETATM   16  C   UNL     1      44.292 -17.940   4.803  1.00  0.00     0.027 A 
HETATM   17  C   UNL     1      43.610 -16.846   4.218  1.00  0.00     0.039 A 
ENDBRANCH  12  13
ENDBRANCH   8  11
ENDBRANCH   3   7
BRANCH   5  18
HETATM   18  C   UNL     1      43.977 -10.123  10.149  1.00  0.00     0.061 A 
HETATM   19  N   UNL     1      43.250 -10.888  11.030  1.00  0.00    -0.278 N 
HETATM   20  H   UNL     1      42.973 -11.857  10.925  1.00  0.00     0.189 HD
HETATM   21  N   UNL     1      42.891 -10.247  12.155  1.00  0.00    -0.187 NA
HETATM   22  C   UNL     1      43.413  -9.031  12.001  1.00  0.00     0.141 A 
HETATM   23  C   UNL     1      44.103  -8.899  10.783  1.00  0.00     0.053 A 
ENDBRANCH   5  18
TORSDOF 4
ENDMDL
MODEL 8
REMARK VINA RESULT:      -6.7      2.661      5.778
REMARK  4 active torsions:
REMARK  status: ('A' for Active; 'I' for Inactive)
REMARK    1  A    between atoms: C_3  and  N_4 
REMARK       I    between atoms: N_4  and  C_5 
REMARK    2  A    between atoms: C_5  and  C_6 
REMARK    3  A    between atoms: C_7  and  C_8 
REMARK    4  A    between atoms: C_15  and  C_16 
ROOT
HETATM    1  C   UNL     1      39.408 -12.386   4.783  1.00  0.00     0.003 A 
HETATM    2  C   UNL     1      40.443 -12.936   5.542  1.00  0.00     0.029 A 
HETATM    3  C   UNL     1      41.416 -13.727   4.936  1.00  0.00     0.035 A 
HETATM    4  C   UNL     1      41.346 -13.949   3.551  1.00  0.00     0.043 A 
HETATM    5  C   UNL     1      40.307 -13.410   2.774  1.00  0.00    -0.006 A 
HETATM    6  C   UNL     1      39.337 -12.627   3.409  1.00  0.00     0.014 A 
ENDROOT
BRANCH   3   7
HETATM    7  N   UNL     1      42.471 -14.348   5.639  1.00  0.00    -0.324 N 
HETATM    8  C   UNL     1      42.390 -15.461   6.450  1.00  0.00     0.245 C 
HETATM    9  O   UNL     1      41.402 -16.118   6.744  1.00  0.00    -0.268 OA
HETATM   10  H   UNL     1      43.389 -13.941   5.520  1.00  0.00     0.169 HD
BRANCH   8  11
HETATM   11  C   UNL     1      43.738 -15.908   6.885  1.00  0.00     0.077 C 
HETATM   12  C   UNL     1      44.563 -16.677   6.162  1.00  0.00     0.042 C 
BRANCH  12  13
HETATM   13  C   UNL     1      44.212 -17.276   4.923  1.00  0.00     0.075 A 
HETATM   14  O   UNL     1      43.631 -16.601   3.873  1.00  0.00    -0.323 OA
HETATM   15  C   UNL     1      43.416 -17.480   2.864  1.00  0.00     0.142 A 
HETATM   16  C   UNL     1      43.828 -18.736   3.228  1.00  0.00     0.027 A 
HETATM   17  C   UNL     1      44.327 -18.610   4.546  1.00  0.00     0.039 A 
ENDBRANCH  12  13
ENDBRANCH   8  11
ENDBRANCH   3   7
BRANCH   5  18
HETATM   18  C   UNL     1      40.237 -13.691   1.338  1.00  0.00     0.061 A 
HETATM   19  N   UNL     1      39.602 -14.783   0.796  1.00  0.00    -0.278 N 
HETATM   20  H   UNL     1      39.097 -15.512   1.286  1.00  0.00     0.189 HD
HETATM   21  N   UNL     1      39.668 -14.854  -0.544  1.00  0.00    -0.187 NA
HETATM   22  C   UNL     1      40.360 -13.765  -0.880  1.00  0.00     0.141 A 
HETATM   23  C   UNL     1      40.731 -13.004   0.242  1.00  0.00     0.053 A 
ENDBRANCH   5  18
TORSDOF 4
ENDMDL
MODEL 9
REMARK VINA RESULT:      -6.6      2.273      4.496
REMARK  4 active torsions:
REMARK  status: ('A' for Active; 'I' for Inactive)
REMARK    1  A    between atoms: C_3  and  N_4 
REMARK       I    between atoms: N_4  and  C_5 
REMARK    2  A    between atoms: C_5  and  C_6 
REMARK    3  A    between atoms: C_7  and  C_8 
REMARK    4  A    between atoms: C_15  and  C_16 
ROOT
HETATM    1  C   UNL     1      40.045 -15.461   1.728  1.00  0.00     0.003 A 
HETATM    2  C   UNL     1      39.787 -14.291   2.444  1.00  0.00     0.029 A 
HETATM    3  C   UNL     1      40.499 -14.004   3.605  1.00  0.00     0.035 A 
HETATM    4  C   UNL     1      41.489 -14.904   4.034  1.00  0.00     0.043 A 
HETATM    5  C   UNL     1      41.757 -16.091   3.330  1.00  0.00    -0.006 A 
HETATM    6  C   UNL     1      41.019 -16.358   2.171  1.00  0.00     0.014 A 
ENDROOT
BRANCH   3   7
HETATM    7  N   UNL     1      40.272 -12.863   4.404  1.00  0.00    -0.324 N 
HETATM    8  C   UNL     1      39.925 -12.837   5.739  1.00  0.00     0.245 C 
HETATM    9  O   UNL     1      39.722 -13.778   6.492  1.00  0.00    -0.268 OA
HETATM   10  H   UNL     1      40.393 -11.968   3.950  1.00  0.00     0.169 HD
BRANCH   8  11
HETATM   11  C   UNL     1      39.929 -11.449   6.267  1.00  0.00     0.077 C 
HETATM   12  C   UNL     1      41.006 -10.654   6.331  1.00  0.00     0.042 C 
BRANCH  12  13
HETATM   13  C   UNL     1      42.325 -11.074   6.013  1.00  0.00     0.075 A 
HETATM   14  O   UNL     1      42.836 -11.121   4.735  1.00  0.00    -0.323 OA
HETATM   15  C   UNL     1      44.108 -11.584   4.799  1.00  0.00     0.142 A 
HETATM   16  C   UNL     1      44.451 -11.864   6.096  1.00  0.00     0.027 A 
HETATM   17  C   UNL     1      43.310 -11.549   6.872  1.00  0.00     0.039 A 
ENDBRANCH  12  13
ENDBRANCH   8  11
ENDBRANCH   3   7
BRANCH   5  18
HETATM   18  C   UNL     1      42.767 -17.029   3.823  1.00  0.00     0.061 A 
HETATM   19  N   UNL     1      43.081 -17.198   5.150  1.00  0.00    -0.278 N 
HETATM   20  H   UNL     1      42.666 -16.732   5.949  1.00  0.00     0.189 HD
HETATM   21  N   UNL     1      44.047 -18.103   5.381  1.00  0.00    -0.187 NA
HETATM   22  C   UNL     1      44.360 -18.542   4.162  1.00  0.00     0.141 A 
HETATM   23  C   UNL     1      43.596 -17.919   3.160  1.00  0.00     0.053 A 
ENDBRANCH   5  18
TORSDOF 4
ENDMDL
MODEL 10
REMARK VINA RESULT:      -6.5      2.962      6.335
REMARK  4 active torsions:
REMARK  status: ('A' for Active; 'I' for Inactive)
REMARK    1  A    between atoms: C_3  and  N_4 
REMARK       I    between atoms: N_4  and  C_5 
REMARK    2  A    between atoms: C_5  and  C_6 
REMARK    3  A    between atoms: C_7  and  C_8 
REMARK    4  A    between atoms: C_15  and  C_16 
ROOT
HETATM    1  C   UNL     1      38.822 -10.852   1.900  1.00  0.00     0.003 A 
HETATM    2  C   UNL     1      39.115 -11.671   2.993  1.00  0.00     0.029 A 
HETATM    3  C   UNL     1      39.535 -12.984   2.796  1.00  0.00     0.035 A 
HETATM    4  C   UNL     1      39.672 -13.463   1.483  1.00  0.00     0.043 A 
HETATM    5  C   UNL     1      39.374 -12.656   0.372  1.00  0.00    -0.006 A 
HETATM    6  C   UNL     1      38.944 -11.343   0.599  1.00  0.00     0.014 A 
ENDROOT
BRANCH   3   7
HETATM    7  N   UNL     1      39.814 -13.885   3.846  1.00  0.00    -0.324 N 
HETATM    8  C   UNL     1      40.782 -13.755   4.820  1.00  0.00     0.245 C 
HETATM    9  O   UNL     1      41.603 -12.860   4.963  1.00  0.00    -0.268 OA
HETATM   10  H   UNL     1      39.227 -14.707   3.897  1.00  0.00     0.169 HD
BRANCH   8  11
HETATM   11  C   UNL     1      40.663 -14.826   5.841  1.00  0.00     0.077 C 
HETATM   12  C   UNL     1      41.200 -16.050   5.738  1.00  0.00     0.042 C 
BRANCH  12  13
HETATM   13  C   UNL     1      41.856 -16.535   4.576  1.00  0.00     0.075 A 
HETATM   14  O   UNL     1      41.269 -16.621   3.333  1.00  0.00    -0.323 OA
HETATM   15  C   UNL     1      42.171 -17.144   2.468  1.00  0.00     0.142 A 
HETATM   16  C   UNL     1      43.346 -17.426   3.114  1.00  0.00     0.027 A 
HETATM   17  C   UNL     1      43.144 -17.048   4.463  1.00  0.00     0.039 A 
ENDBRANCH  12  13
ENDBRANCH   8  11
ENDBRANCH   3   7
BRANCH   5  18
HETATM   18  C   UNL     1      39.488 -13.195  -0.985  1.00  0.00     0.061 A 
HETATM   19  N   UNL     1      40.674 -13.309  -1.671  1.00  0.00    -0.278 N 
HETATM   20  H   UNL     1      41.603 -13.064  -1.348  1.00  0.00     0.189 HD
HETATM   21  N   UNL     1      40.551 -13.819  -2.909  1.00  0.00    -0.187 NA
HETATM   22  C   UNL     1      39.244 -14.053  -3.021  1.00  0.00     0.141 A 
HETATM   23  C   UNL     1      38.538 -13.693  -1.859  1.00  0.00     0.053 A 
ENDBRANCH   5  18
TORSDOF 4
ENDMDL
