MODEL 1
REMARK VINA RESULT:      -8.9      0.000      0.000
REMARK  4 active torsions:
REMARK  status: ('A' for Active; 'I' for Inactive)
REMARK    1  A    between atoms: O_2  and  C_3 
REMARK    2  A    between atoms: C_3  and  C_4 
REMARK    3  A    between atoms: C_12  and  N_13 
REMARK       I    between atoms: N_13  and  C_14 
REMARK    4  A    between atoms: C_14  and  C_15 
ROOT
HETATM    1  N   UNL     1      42.040 -15.449   1.599  1.00  0.00    -0.323 N 
HETATM    2  C   UNL     1      40.727 -15.268   1.213  1.00  0.00     0.258 C 
HETATM    3  O   UNL     1      39.774 -15.902   1.658  1.00  0.00    -0.267 OA
HETATM    4  H   UNL     1      42.725 -14.835   1.176  1.00  0.00     0.169 HD
ENDROOT
BRANCH   1   5
HETATM    5  C   UNL     1      42.558 -16.385   2.519  1.00  0.00     0.036 A 
HETATM    6  C   UNL     1      43.257 -17.538   2.154  1.00  0.00     0.032 A 
HETATM    7  C   UNL     1      43.760 -18.430   3.111  1.00  0.00     0.034 A 
HETATM    8  C   UNL     1      43.535 -18.122   4.454  1.00  0.00     0.063 A 
HETATM    9  N   UNL     1      43.889 -18.769   5.603  1.00  0.00    -0.277 N 
HETATM   10  C   UNL     1      42.844 -16.991   4.866  1.00  0.00     0.031 A 
HETATM   11  N   UNL     1      43.485 -18.158   6.728  1.00  0.00    -0.167 NA
HETATM   12  H   UNL     1      44.408 -19.635   5.688  1.00  0.00     0.189 HD
HETATM   13  C   UNL     1      42.834 -17.058   6.295  1.00  0.00     0.164 A 
HETATM   14  C   UNL     1      42.350 -16.107   3.882  1.00  0.00     0.046 A 
BRANCH  13  15
HETATM   15  C   UNL     1      42.212 -16.089   7.212  1.00  0.00     0.314 C 
HETATM   16  O   UNL     1      42.852 -15.402   8.004  1.00  0.00    -0.257 OA
BRANCH  15  17
HETATM   17  O   UNL     1      40.850 -16.032   7.090  1.00  0.00    -0.321 OA
HETATM   18  C   UNL     1      40.357 -14.808   6.551  1.00  0.00     0.213 C 
ENDBRANCH  15  17
ENDBRANCH  13  15
ENDBRANCH   1   5
BRANCH   2  19
HETATM   19  C   UNL     1      40.501 -14.219   0.203  1.00  0.00     0.063 A 
HETATM   20  C   UNL     1      39.781 -14.200  -1.048  1.00  0.00     0.046 A 
HETATM   21  C   UNL     1      39.896 -12.909  -1.581  1.00  0.00     0.046 A 
HETATM   22  C   UNL     1      39.031 -15.129  -1.801  1.00  0.00     0.130 A 
HETATM   23  C   UNL     1      39.310 -12.525  -2.796  1.00  0.00     0.030 A 
HETATM   24  N   UNL     1      40.651 -12.170  -0.705  1.00  0.00    -0.364 N 
HETATM   25  C   UNL     1      38.576 -13.480  -3.503  1.00  0.00     0.005 A 
HETATM   26  C   UNL     1      38.436 -14.772  -3.013  1.00  0.00     0.043 A 
HETATM   27  H   UNL     1      40.897 -11.197  -0.833  1.00  0.00     0.165 HD
HETATM   28  C   UNL     1      41.013 -12.938   0.361  1.00  0.00     0.106 A 
HETATM   29  F   UNL     1      38.874 -16.390  -1.368  1.00  0.00    -0.205 F 
ENDBRANCH   2  19
TORSDOF 4
ENDMDL
MODEL 2
REMARK VINA RESULT:      -8.8      2.349      8.098
REMARK  4 active torsions:
REMARK  status: ('A' for Active; 'I' for Inactive)
REMARK    1  A    between atoms: O_2  and  C_3 
REMARK    2  A    between atoms: C_3  and  C_4 
REMARK    3  A    between atoms: C_12  and  N_13 
REMARK       I    between atoms: N_13  and  C_14 
REMARK    4  A    between atoms: C_14  and  C_15 
ROOT
HETATM    1  N   UNL     1      41.292 -15.105   2.918  1.00  0.00    -0.323 N 
HETATM    2  C   UNL     1      42.558 -14.976   3.452  1.00  0.00     0.258 C 
HETATM    3  O   UNL     1      43.224 -13.945   3.433  1.00  0.00    -0.267 OA
HETATM    4  H   UNL     1      40.840 -16.003   3.033  1.00  0.00     0.169 HD
ENDROOT
BRANCH   1   5
HETATM    5  C   UNL     1      40.534 -14.135   2.227  1.00  0.00     0.036 A 
HETATM    6  C   UNL     1      39.868 -13.075   2.845  1.00  0.00     0.032 A 
HETATM    7  C   UNL     1      39.136 -12.133   2.108  1.00  0.00     0.034 A 
HETATM    8  C   UNL     1      39.096 -12.295   0.723  1.00  0.00     0.063 A 
HETATM    9  N   UNL     1      38.488 -11.565  -0.258  1.00  0.00    -0.277 N 
HETATM   10  C   UNL     1      39.739 -13.333   0.063  1.00  0.00     0.031 A 
HETATM   11  N   UNL     1      38.676 -12.040  -1.498  1.00  0.00    -0.167 NA
HETATM   12  H   UNL     1      37.926 -10.728  -0.144  1.00  0.00     0.189 HD
HETATM   13  C   UNL     1      39.445 -13.136  -1.323  1.00  0.00     0.164 A 
HETATM   14  C   UNL     1      40.472 -14.267   0.827  1.00  0.00     0.046 A 
BRANCH  13  15
HETATM   15  C   UNL     1      39.891 -13.982  -2.442  1.00  0.00     0.314 C 
HETATM   16  O   UNL     1      40.898 -13.748  -3.105  1.00  0.00    -0.257 OA
BRANCH  15  17
HETATM   17  O   UNL     1      39.071 -15.055  -2.665  1.00  0.00    -0.321 OA
HETATM   18  C   UNL     1      38.099 -14.850  -3.688  1.00  0.00     0.213 C 
ENDBRANCH  15  17
ENDBRANCH  13  15
ENDBRANCH   1   5
BRANCH   2  19
HETATM   19  C   UNL     1      43.101 -16.186   4.096  1.00  0.00     0.063 A 
HETATM   20  C   UNL     1      43.300 -17.539   3.634  1.00  0.00     0.046 A 
HETATM   21  C   UNL     1      43.872 -18.264   4.687  1.00  0.00     0.046 A 
HETATM   22  C   UNL     1      43.066 -18.245   2.434  1.00  0.00     0.130 A 
HETATM   23  C   UNL     1      44.210 -19.622   4.590  1.00  0.00     0.030 A 
HETATM   24  N   UNL     1      44.017 -17.403   5.746  1.00  0.00    -0.364 N 
HETATM   25  C   UNL     1      43.961 -20.277   3.381  1.00  0.00     0.005 A 
HETATM   26  C   UNL     1      43.394 -19.597   2.310  1.00  0.00     0.043 A 
HETATM   27  H   UNL     1      44.408 -17.655   6.645  1.00  0.00     0.165 HD
HETATM   28  C   UNL     1      43.565 -16.164   5.405  1.00  0.00     0.106 A 
HETATM   29  F   UNL     1      42.516 -17.629   1.376  1.00  0.00    -0.205 F 
ENDBRANCH   2  19
TORSDOF 4
ENDMDL
MODEL 3
REMARK VINA RESULT:      -8.4      2.614      8.363
REMARK  4 active torsions:
REMARK  status: ('A' for Active; 'I' for Inactive)
REMARK    1  A    between atoms: O_2  and  C_3 
REMARK    2  A    between atoms: C_3  and  C_4 
REMARK    3  A    between atoms: C_12  and  N_13 
REMARK       I    between atoms: N_13  and  C_14 
REMARK    4  A    between atoms: C_14  and  C_15 
ROOT
HETATM    1  N   UNL     1      40.687 -13.654   2.495  1.00  0.00    -0.323 N 
HETATM    2  C   UNL     1      40.622 -14.966   2.915  1.00  0.00     0.258 C 
HETATM    3  O   UNL     1      39.743 -15.760   2.593  1.00  0.00    -0.267 OA
HETATM    4  H   UNL     1      41.485 -13.116   2.809  1.00  0.00     0.169 HD
ENDROOT
BRANCH   1   5
HETATM    5  C   UNL     1      39.778 -12.954   1.673  1.00  0.00     0.036 A 
HETATM    6  C   UNL     1      38.787 -12.095   2.155  1.00  0.00     0.032 A 
HETATM    7  C   UNL     1      37.916 -11.416   1.291  1.00  0.00     0.034 A 
HETATM    8  C   UNL     1      38.075 -11.632  -0.078  1.00  0.00     0.063 A 
HETATM    9  N   UNL     1      37.405 -11.132  -1.158  1.00  0.00    -0.277 N 
HETATM   10  C   UNL     1      39.041 -12.478  -0.605  1.00  0.00     0.031 A 
HETATM   11  N   UNL     1      37.849 -11.582  -2.342  1.00  0.00    -0.167 NA
HETATM   12  H   UNL     1      36.630 -10.478  -1.154  1.00  0.00     0.189 HD
HETATM   13  C   UNL     1      38.859 -12.418  -2.023  1.00  0.00     0.164 A 
HETATM   14  C   UNL     1      39.908 -13.147   0.285  1.00  0.00     0.046 A 
BRANCH  13  15
HETATM   15  C   UNL     1      39.638 -13.149  -3.036  1.00  0.00     0.314 C 
HETATM   16  O   UNL     1      40.826 -12.934  -3.260  1.00  0.00    -0.257 OA
BRANCH  15  17
HETATM   17  O   UNL     1      38.902 -14.093  -3.701  1.00  0.00    -0.321 OA
HETATM   18  C   UNL     1      38.586 -15.247  -2.925  1.00  0.00     0.213 C 
ENDBRANCH  15  17
ENDBRANCH  13  15
ENDBRANCH   1   5
BRANCH   2  19
HETATM   19  C   UNL     1      41.717 -15.405   3.799  1.00  0.00     0.063 A 
HETATM   20  C   UNL     1      42.585 -16.557   3.788  1.00  0.00     0.046 A 
HETATM   21  C   UNL     1      43.456 -16.440   4.880  1.00  0.00     0.046 A 
HETATM   22  C   UNL     1      42.746 -17.698   2.972  1.00  0.00     0.130 A 
HETATM   23  C   UNL     1      44.448 -17.386   5.176  1.00  0.00     0.030 A 
HETATM   24  N   UNL     1      43.139 -15.275   5.533  1.00  0.00    -0.364 N 
HETATM   25  C   UNL     1      44.569 -18.497   4.338  1.00  0.00     0.005 A 
HETATM   26  C   UNL     1      43.726 -18.655   3.244  1.00  0.00     0.043 A 
HETATM   27  H   UNL     1      43.607 -14.931   6.361  1.00  0.00     0.165 HD
HETATM   28  C   UNL     1      42.108 -14.650   4.897  1.00  0.00     0.106 A 
HETATM   29  F   UNL     1      41.951 -17.894   1.908  1.00  0.00    -0.205 F 
ENDBRANCH   2  19
TORSDOF 4
ENDMDL
MODEL 4
REMARK VINA RESULT:      -8.3      5.274      8.223
REMARK  4 active torsions:
REMARK  status: ('A' for Active; 'I' for Inactive)
REMARK    1  A    between atoms: O_2  and  C_3 
REMARK    2  A    between atoms: C_3  and  C_4 
REMARK    3  A    between atoms: C_12  and  N_13 
REMARK       I    between atoms: N_13  and  C_14 
REMARK    4  A    between atoms: C_14  and  C_15 
ROOT
HETATM    1  N   UNL     1      42.672 -12.740   5.372  1.00  0.00    -0.323 N 
HETATM    2  C   UNL     1      43.483 -11.659   5.653  1.00  0.00     0.258 C 
HETATM    3  O   UNL     1      44.478 -11.345   5.005  1.00  0.00    -0.267 OA
HETATM    4  H   UNL     1      41.863 -12.866   5.967  1.00  0.00     0.169 HD
ENDROOT
BRANCH   1   5
HETATM    5  C   UNL     1      42.822 -13.702   4.350  1.00  0.00     0.036 A 
HETATM    6  C   UNL     1      42.713 -13.419   2.987  1.00  0.00     0.032 A 
HETATM    7  C   UNL     1      42.881 -14.412   2.011  1.00  0.00     0.034 A 
HETATM    8  C   UNL     1      43.164 -15.705   2.456  1.00  0.00     0.063 A 
HETATM    9  N   UNL     1      43.380 -16.869   1.777  1.00  0.00    -0.277 N 
HETATM   10  C   UNL     1      43.278 -16.035   3.799  1.00  0.00     0.031 A 
HETATM   11  N   UNL     1      43.623 -17.930   2.562  1.00  0.00    -0.167 NA
HETATM   12  H   UNL     1      43.376 -17.007   0.773  1.00  0.00     0.189 HD
HETATM   13  C   UNL     1      43.562 -17.438   3.817  1.00  0.00     0.164 A 
HETATM   14  C   UNL     1      43.107 -15.017   4.761  1.00  0.00     0.046 A 
BRANCH  13  15
HETATM   15  C   UNL     1      43.765 -18.274   5.011  1.00  0.00     0.314 C 
HETATM   16  O   UNL     1      43.232 -18.046   6.094  1.00  0.00    -0.257 OA
BRANCH  15  17
HETATM   17  O   UNL     1      44.606 -19.331   4.790  1.00  0.00    -0.321 OA
HETATM   18  C   UNL     1      44.049 -20.604   5.112  1.00  0.00     0.213 C 
ENDBRANCH  15  17
ENDBRANCH  13  15
ENDBRANCH   1   5
BRANCH   2  19
HETATM   19  C   UNL     1      43.078 -10.845   6.813  1.00  0.00     0.063 A 
HETATM   20  C   UNL     1      43.786 -10.381   7.981  1.00  0.00     0.046 A 
HETATM   21  C   UNL     1      42.887  -9.625   8.746  1.00  0.00     0.046 A 
HETATM   22  C   UNL     1      45.098 -10.505   8.488  1.00  0.00     0.130 A 
HETATM   23  C   UNL     1      43.238  -9.009   9.956  1.00  0.00     0.030 A 
HETATM   24  N   UNL     1      41.685  -9.625   8.084  1.00  0.00    -0.364 N 
HETATM   25  C   UNL     1      44.549  -9.160  10.416  1.00  0.00     0.005 A 
HETATM   26  C   UNL     1      45.473  -9.901   9.690  1.00  0.00     0.043 A 
HETATM   27  H   UNL     1      40.849  -9.155   8.405  1.00  0.00     0.165 HD
HETATM   28  C   UNL     1      41.787 -10.345   6.932  1.00  0.00     0.106 A 
HETATM   29  F   UNL     1      46.022 -11.216   7.823  1.00  0.00    -0.205 F 
ENDBRANCH   2  19
TORSDOF 4
ENDMDL
MODEL 5
REMARK VINA RESULT:      -8.2      2.550      7.774
REMARK  4 active torsions:
REMARK  status: ('A' for Active; 'I' for Inactive)
REMARK    1  A    between atoms: O_2  and  C_3 
REMARK    2  A    between atoms: C_3  and  C_4 
REMARK    3  A    between atoms: C_12  and  N_13 
REMARK       I    between atoms: N_13  and  C_14 
REMARK    4  A    between atoms: C_14  and  C_15 
ROOT
HETATM    1  N   UNL     1      43.054 -14.768   3.800  1.00  0.00    -0.323 N 
HETATM    2  C   UNL     1      42.352 -15.539   4.704  1.00  0.00     0.258 C 
HETATM    3  O   UNL     1      41.321 -15.187   5.269  1.00  0.00    -0.267 OA
HETATM    4  H   UNL     1      43.872 -15.193   3.381  1.00  0.00     0.169 HD
ENDROOT
BRANCH   1   5
HETATM    5  C   UNL     1      42.777 -13.451   3.375  1.00  0.00     0.036 A 
HETATM    6  C   UNL     1      43.109 -12.307   4.103  1.00  0.00     0.032 A 
HETATM    7  C   UNL     1      42.819 -11.020   3.627  1.00  0.00     0.034 A 
HETATM    8  C   UNL     1      42.180 -10.923   2.391  1.00  0.00     0.063 A 
HETATM    9  N   UNL     1      41.770  -9.842   1.665  1.00  0.00    -0.277 N 
HETATM   10  C   UNL     1      41.826 -12.031   1.632  1.00  0.00     0.031 A 
HETATM   11  N   UNL     1      41.178 -10.150   0.500  1.00  0.00    -0.167 NA
HETATM   12  H   UNL     1      41.865  -8.863   1.910  1.00  0.00     0.189 HD
HETATM   13  C   UNL     1      41.199 -11.499   0.461  1.00  0.00     0.164 A 
HETATM   14  C   UNL     1      42.132 -13.315   2.131  1.00  0.00     0.046 A 
BRANCH  13  15
HETATM   15  C   UNL     1      40.637 -12.272  -0.658  1.00  0.00     0.314 C 
HETATM   16  O   UNL     1      40.989 -12.124  -1.825  1.00  0.00    -0.257 OA
BRANCH  15  17
HETATM   17  O   UNL     1      39.683 -13.171  -0.264  1.00  0.00    -0.321 OA
HETATM   18  C   UNL     1      39.458 -14.234  -1.187  1.00  0.00     0.213 C 
ENDBRANCH  15  17
ENDBRANCH  13  15
ENDBRANCH   1   5
BRANCH   2  19
HETATM   19  C   UNL     1      42.911 -16.878   4.966  1.00  0.00     0.063 A 
HETATM   20  C   UNL     1      43.179 -18.013   4.117  1.00  0.00     0.046 A 
HETATM   21  C   UNL     1      43.732 -19.020   4.920  1.00  0.00     0.046 A 
HETATM   22  C   UNL     1      43.023 -18.313   2.746  1.00  0.00     0.130 A 
HETATM   23  C   UNL     1      44.122 -20.271   4.422  1.00  0.00     0.030 A 
HETATM   24  N   UNL     1      43.799 -18.530   6.201  1.00  0.00    -0.364 N 
HETATM   25  C   UNL     1      43.950 -20.519   3.058  1.00  0.00     0.005 A 
HETATM   26  C   UNL     1      43.405 -19.551   2.224  1.00  0.00     0.043 A 
HETATM   27  H   UNL     1      44.159 -19.042   6.996  1.00  0.00     0.165 HD
HETATM   28  C   UNL     1      43.317 -17.257   6.239  1.00  0.00     0.106 A 
HETATM   29  F   UNL     1      42.496 -17.409   1.905  1.00  0.00    -0.205 F 
ENDBRANCH   2  19
TORSDOF 4
ENDMDL
MODEL 6
REMARK VINA RESULT:      -8.0      5.421      7.608
REMARK  4 active torsions:
REMARK  status: ('A' for Active; 'I' for Inactive)
REMARK    1  A    between atoms: O_2  and  C_3 
REMARK    2  A    between atoms: C_3  and  C_4 
REMARK    3  A    between atoms: C_12  and  N_13 
REMARK       I    between atoms: N_13  and  C_14 
REMARK    4  A    between atoms: C_14  and  C_15 
ROOT
HETATM    1  N   UNL     1      43.612 -12.775   5.544  1.00  0.00    -0.323 N 
HETATM    2  C   UNL     1      43.269 -14.074   5.856  1.00  0.00     0.258 C 
HETATM    3  O   UNL     1      43.327 -14.562   6.981  1.00  0.00    -0.267 OA
HETATM    4  H   UNL     1      43.485 -12.490   4.581  1.00  0.00     0.169 HD
ENDROOT
BRANCH   1   5
HETATM    5  C   UNL     1      44.122 -11.776   6.403  1.00  0.00     0.036 A 
HETATM    6  C   UNL     1      45.482 -11.506   6.569  1.00  0.00     0.032 A 
HETATM    7  C   UNL     1      45.932 -10.494   7.429  1.00  0.00     0.034 A 
HETATM    8  C   UNL     1      44.966  -9.762   8.118  1.00  0.00     0.063 A 
HETATM    9  N   UNL     1      45.073  -8.732   9.009  1.00  0.00    -0.277 N 
HETATM   10  C   UNL     1      43.603  -9.995   7.989  1.00  0.00     0.031 A 
HETATM   11  N   UNL     1      43.898  -8.277   9.472  1.00  0.00    -0.167 NA
HETATM   12  H   UNL     1      45.923  -8.292   9.343  1.00  0.00     0.189 HD
HETATM   13  C   UNL     1      42.976  -9.046   8.857  1.00  0.00     0.164 A 
HETATM   14  C   UNL     1      43.175 -11.017   7.115  1.00  0.00     0.046 A 
BRANCH  13  15
HETATM   15  C   UNL     1      41.530  -8.891   9.084  1.00  0.00     0.314 C 
HETATM   16  O   UNL     1      40.960  -9.287  10.097  1.00  0.00    -0.257 OA
BRANCH  15  17
HETATM   17  O   UNL     1      40.888  -8.260   8.053  1.00  0.00    -0.321 OA
HETATM   18  C   UNL     1      39.819  -9.008   7.478  1.00  0.00     0.213 C 
ENDBRANCH  15  17
ENDBRANCH  13  15
ENDBRANCH   1   5
BRANCH   2  19
HETATM   19  C   UNL     1      42.788 -14.892   4.727  1.00  0.00     0.063 A 
HETATM   20  C   UNL     1      43.159 -16.195   4.232  1.00  0.00     0.046 A 
HETATM   21  C   UNL     1      42.345 -16.474   3.127  1.00  0.00     0.046 A 
HETATM   22  C   UNL     1      44.094 -17.189   4.594  1.00  0.00     0.130 A 
HETATM   23  C   UNL     1      42.426 -17.668   2.395  1.00  0.00     0.030 A 
HETATM   24  N   UNL     1      41.514 -15.396   2.947  1.00  0.00    -0.364 N 
HETATM   25  C   UNL     1      43.366 -18.621   2.792  1.00  0.00     0.005 A 
HETATM   26  C   UNL     1      44.195 -18.386   3.883  1.00  0.00     0.043 A 
HETATM   27  H   UNL     1      40.816 -15.320   2.220  1.00  0.00     0.165 HD
HETATM   28  C   UNL     1      41.767 -14.450   3.895  1.00  0.00     0.106 A 
HETATM   29  F   UNL     1      44.919 -17.003   5.637  1.00  0.00    -0.205 F 
ENDBRANCH   2  19
TORSDOF 4
ENDMDL
MODEL 7
REMARK VINA RESULT:      -7.9      2.919      7.828
REMARK  4 active torsions:
REMARK  status: ('A' for Active; 'I' for Inactive)
REMARK    1  A    between atoms: O_2  and  C_3 
REMARK    2  A    between atoms: C_3  and  C_4 
REMARK    3  A    between atoms: C_12  and  N_13 
REMARK       I    between atoms: N_13  and  C_14 
REMARK    4  A    between atoms: C_14  and  C_15 
ROOT
HETATM    1  N   UNL     1      41.171 -14.405   4.351  1.00  0.00    -0.323 N 
HETATM    2  C   UNL     1      42.545 -14.490   4.272  1.00  0.00     0.258 C 
HETATM    3  O   UNL     1      43.286 -13.562   3.958  1.00  0.00    -0.267 OA
HETATM    4  H   UNL     1      40.682 -15.238   4.656  1.00  0.00     0.169 HD
ENDROOT
BRANCH   1   5
HETATM    5  C   UNL     1      40.346 -13.296   4.064  1.00  0.00     0.036 A 
HETATM    6  C   UNL     1      39.927 -12.365   5.016  1.00  0.00     0.032 A 
HETATM    7  C   UNL     1      39.115 -11.274   4.674  1.00  0.00     0.034 A 
HETATM    8  C   UNL     1      38.737 -11.152   3.336  1.00  0.00     0.063 A 
HETATM    9  N   UNL     1      37.971 -10.224   2.692  1.00  0.00    -0.277 N 
HETATM   10  C   UNL     1      39.125 -12.054   2.355  1.00  0.00     0.031 A 
HETATM   11  N   UNL     1      37.824 -10.445   1.376  1.00  0.00    -0.167 NA
HETATM   12  H   UNL     1      37.517  -9.412   3.095  1.00  0.00     0.189 HD
HETATM   13  C   UNL     1      38.527 -11.574   1.147  1.00  0.00     0.164 A 
HETATM   14  C   UNL     1      39.945 -13.142   2.725  1.00  0.00     0.046 A 
BRANCH  13  15
HETATM   15  C   UNL     1      38.631 -12.189  -0.186  1.00  0.00     0.314 C 
HETATM   16  O   UNL     1      37.697 -12.240  -0.982  1.00  0.00    -0.257 OA
BRANCH  15  17
HETATM   17  O   UNL     1      39.875 -12.698  -0.447  1.00  0.00    -0.321 OA
HETATM   18  C   UNL     1      39.874 -14.042  -0.923  1.00  0.00     0.213 C 
ENDBRANCH  15  17
ENDBRANCH  13  15
ENDBRANCH   1   5
BRANCH   2  19
HETATM   19  C   UNL     1      43.122 -15.803   4.612  1.00  0.00     0.063 A 
HETATM   20  C   UNL     1      43.235 -17.044   3.884  1.00  0.00     0.046 A 
HETATM   21  C   UNL     1      43.897 -17.960   4.712  1.00  0.00     0.046 A 
HETATM   22  C   UNL     1      42.857 -17.506   2.604  1.00  0.00     0.130 A 
HETATM   23  C   UNL     1      44.186 -19.276   4.323  1.00  0.00     0.030 A 
HETATM   24  N   UNL     1      44.176 -17.318   5.893  1.00  0.00    -0.364 N 
HETATM   25  C   UNL     1      43.794 -19.687   3.047  1.00  0.00     0.005 A 
HETATM   26  C   UNL     1      43.134 -18.811   2.192  1.00  0.00     0.043 A 
HETATM   27  H   UNL     1      44.652 -17.739   6.680  1.00  0.00     0.165 HD
HETATM   28  C   UNL     1      43.722 -16.034   5.843  1.00  0.00     0.106 A 
HETATM   29  F   UNL     1      42.214 -16.697   1.748  1.00  0.00    -0.205 F 
ENDBRANCH   2  19
TORSDOF 4
ENDMDL
MODEL 8
REMARK VINA RESULT:      -7.7      2.967      8.152
REMARK  4 active torsions:
REMARK  status: ('A' for Active; 'I' for Inactive)
REMARK    1  A    between atoms: O_2  and  C_3 
REMARK    2  A    between atoms: C_3  and  C_4 
REMARK    3  A    between atoms: C_12  and  N_13 
REMARK       I    between atoms: N_13  and  C_14 
REMARK    4  A    between atoms: C_14  and  C_15 
ROOT
HETATM    1  N   UNL     1      41.200 -14.677   1.727  1.00  0.00    -0.323 N 
HETATM    2  C   UNL     1      42.364 -15.412   1.823  1.00  0.00     0.258 C 
HETATM    3  O   UNL     1      43.143 -15.612   0.896  1.00  0.00    -0.267 OA
HETATM    4  H   UNL     1      40.665 -14.561   2.578  1.00  0.00     0.169 HD
ENDROOT
BRANCH   1   5
HETATM    5  C   UNL     1      40.652 -14.055   0.583  1.00  0.00     0.036 A 
HETATM    6  C   UNL     1      39.864 -14.713  -0.363  1.00  0.00     0.032 A 
HETATM    7  C   UNL     1      39.336 -14.043  -1.477  1.00  0.00     0.034 A 
HETATM    8  C   UNL     1      39.630 -12.685  -1.606  1.00  0.00     0.063 A 
HETATM    9  N   UNL     1      39.275 -11.767  -2.552  1.00  0.00    -0.277 N 
HETATM   10  C   UNL     1      40.411 -11.989  -0.693  1.00  0.00     0.031 A 
HETATM   11  N   UNL     1      39.761 -10.535  -2.336  1.00  0.00    -0.167 NA
HETATM   12  H   UNL     1      38.702 -11.920  -3.374  1.00  0.00     0.189 HD
HETATM   13  C   UNL     1      40.469 -10.650  -1.193  1.00  0.00     0.164 A 
HETATM   14  C   UNL     1      40.928 -12.685   0.420  1.00  0.00     0.046 A 
BRANCH  13  15
HETATM   15  C   UNL     1      41.188  -9.519  -0.585  1.00  0.00     0.314 C 
HETATM   16  O   UNL     1      42.413  -9.448  -0.531  1.00  0.00    -0.257 OA
BRANCH  15  17
HETATM   17  O   UNL     1      40.352  -8.555  -0.089  1.00  0.00    -0.321 OA
HETATM   18  C   UNL     1      39.731  -8.894   1.149  1.00  0.00     0.213 C 
ENDBRANCH  15  17
ENDBRANCH  13  15
ENDBRANCH   1   5
BRANCH   2  19
HETATM   19  C   UNL     1      42.658 -15.962   3.158  1.00  0.00     0.063 A 
HETATM   20  C   UNL     1      43.141 -17.246   3.606  1.00  0.00     0.046 A 
HETATM   21  C   UNL     1      43.246 -17.195   5.002  1.00  0.00     0.046 A 
HETATM   22  C   UNL     1      43.514 -18.461   2.989  1.00  0.00     0.130 A 
HETATM   23  C   UNL     1      43.694 -18.273   5.779  1.00  0.00     0.030 A 
HETATM   24  N   UNL     1      42.845 -15.942   5.397  1.00  0.00    -0.364 N 
HETATM   25  C   UNL     1      44.052 -19.453   5.123  1.00  0.00     0.005 A 
HETATM   26  C   UNL     1      43.964 -19.549   3.740  1.00  0.00     0.043 A 
HETATM   27  H   UNL     1      42.817 -15.620   6.355  1.00  0.00     0.165 HD
HETATM   28  C   UNL     1      42.496 -15.200   4.308  1.00  0.00     0.106 A 
HETATM   29  F   UNL     1      43.440 -18.600   1.656  1.00  0.00    -0.205 F 
ENDBRANCH   2  19
TORSDOF 4
ENDMDL
MODEL 9
REMARK VINA RESULT:      -7.6      2.794      8.565
REMARK  4 active torsions:
REMARK  status: ('A' for Active; 'I' for Inactive)
REMARK    1  A    between atoms: O_2  and  C_3 
REMARK    2  A    between atoms: C_3  and  C_4 
REMARK    3  A    between atoms: C_12  and  N_13 
REMARK       I    between atoms: N_13  and  C_14 
REMARK    4  A    between atoms: C_14  and  C_15 
ROOT
HETATM    1  N   UNL     1      40.757 -14.366   2.221  1.00  0.00    -0.323 N 
HETATM    2  C   UNL     1      40.735 -15.744   2.158  1.00  0.00     0.258 C 
HETATM    3  O   UNL     1      39.926 -16.401   1.509  1.00  0.00    -0.267 OA
HETATM    4  H   UNL     1      41.500 -13.949   2.767  1.00  0.00     0.169 HD
ENDROOT
BRANCH   1   5
HETATM    5  C   UNL     1      39.871 -13.449   1.613  1.00  0.00     0.036 A 
HETATM    6  C   UNL     1      39.062 -12.558   2.320  1.00  0.00     0.032 A 
HETATM    7  C   UNL     1      38.206 -11.661   1.665  1.00  0.00     0.034 A 
HETATM    8  C   UNL     1      38.192 -11.692   0.270  1.00  0.00     0.063 A 
HETATM    9  N   UNL     1      37.488 -10.963  -0.645  1.00  0.00    -0.277 N 
HETATM   10  C   UNL     1      38.975 -12.562  -0.476  1.00  0.00     0.031 A 
HETATM   11  N   UNL     1      37.744 -11.286  -1.923  1.00  0.00    -0.167 NA
HETATM   12  H   UNL     1      36.815 -10.228  -0.462  1.00  0.00     0.189 HD
HETATM   13  C   UNL     1      38.658 -12.274  -1.841  1.00  0.00     0.164 A 
HETATM   14  C   UNL     1      39.830 -13.453   0.207  1.00  0.00     0.046 A 
BRANCH  13  15
HETATM   15  C   UNL     1      39.221 -12.938  -3.028  1.00  0.00     0.314 C 
HETATM   16  O   UNL     1      38.844 -14.034  -3.432  1.00  0.00    -0.257 OA
BRANCH  15  17
HETATM   17  O   UNL     1      40.207 -12.207  -3.636  1.00  0.00    -0.321 OA
HETATM   18  C   UNL     1      41.455 -12.213  -2.947  1.00  0.00     0.213 C 
ENDBRANCH  15  17
ENDBRANCH  13  15
ENDBRANCH   1   5
BRANCH   2  19
HETATM   19  C   UNL     1      41.786 -16.432   2.928  1.00  0.00     0.063 A 
HETATM   20  C   UNL     1      42.070 -16.520   4.340  1.00  0.00     0.046 A 
HETATM   21  C   UNL     1      43.201 -17.333   4.494  1.00  0.00     0.046 A 
HETATM   22  C   UNL     1      41.495 -16.008   5.524  1.00  0.00     0.130 A 
HETATM   23  C   UNL     1      43.760 -17.644   5.742  1.00  0.00     0.030 A 
HETATM   24  N   UNL     1      43.597 -17.725   3.239  1.00  0.00    -0.364 N 
HETATM   25  C   UNL     1      43.154 -17.114   6.884  1.00  0.00     0.005 A 
HETATM   26  C   UNL     1      42.031 -16.302   6.779  1.00  0.00     0.043 A 
HETATM   27  H   UNL     1      44.390 -18.322   3.044  1.00  0.00     0.165 HD
HETATM   28  C   UNL     1      42.761 -17.198   2.301  1.00  0.00     0.106 A 
HETATM   29  F   UNL     1      40.413 -15.215   5.470  1.00  0.00    -0.205 F 
ENDBRANCH   2  19
TORSDOF 4
ENDMDL
MODEL 10
REMARK VINA RESULT:      -7.6     14.267     15.698
REMARK  4 active torsions:
REMARK  status: ('A' for Active; 'I' for Inactive)
REMARK    1  A    between atoms: O_2  and  C_3 
REMARK    2  A    between atoms: C_3  and  C_4 
REMARK    3  A    between atoms: C_12  and  N_13 
REMARK       I    between atoms: N_13  and  C_14 
REMARK    4  A    between atoms: C_14  and  C_15 
ROOT
HETATM    1  N   UNL     1      42.883 -30.648   2.314  1.00  0.00    -0.323 N 
HETATM    2  C   UNL     1      43.108 -29.535   1.529  1.00  0.00     0.258 C 
HETATM    3  O   UNL     1      42.227 -28.868   0.995  1.00  0.00    -0.267 OA
HETATM    4  H   UNL     1      43.699 -31.086   2.723  1.00  0.00     0.169 HD
ENDROOT
BRANCH   1   5
HETATM    5  C   UNL     1      41.651 -31.260   2.629  1.00  0.00     0.036 A 
HETATM    6  C   UNL     1      40.731 -31.704   1.676  1.00  0.00     0.032 A 
HETATM    7  C   UNL     1      39.524 -32.315   2.045  1.00  0.00     0.034 A 
HETATM    8  C   UNL     1      39.273 -32.465   3.409  1.00  0.00     0.063 A 
HETATM    9  N   UNL     1      38.217 -33.009   4.081  1.00  0.00    -0.277 N 
HETATM   10  C   UNL     1      40.154 -32.037   4.393  1.00  0.00     0.031 A 
HETATM   11  N   UNL     1      38.333 -32.970   5.418  1.00  0.00    -0.167 NA
HETATM   12  H   UNL     1      37.382 -33.426   3.684  1.00  0.00     0.189 HD
HETATM   13  C   UNL     1      39.522 -32.370   5.632  1.00  0.00     0.164 A 
HETATM   14  C   UNL     1      41.364 -31.428   3.996  1.00  0.00     0.046 A 
BRANCH  13  15
HETATM   15  C   UNL     1      40.052 -32.114   6.981  1.00  0.00     0.314 C 
HETATM   16  O   UNL     1      39.424 -31.518   7.852  1.00  0.00    -0.257 OA
BRANCH  15  17
HETATM   17  O   UNL     1      41.316 -32.607   7.165  1.00  0.00    -0.321 OA
HETATM   18  C   UNL     1      42.227 -31.688   7.763  1.00  0.00     0.213 C 
ENDBRANCH  15  17
ENDBRANCH  13  15
ENDBRANCH   1   5
BRANCH   2  19
HETATM   19  C   UNL     1      44.521 -29.150   1.362  1.00  0.00     0.063 A 
HETATM   20  C   UNL     1      45.306 -28.772   0.212  1.00  0.00     0.046 A 
HETATM   21  C   UNL     1      46.605 -28.496   0.660  1.00  0.00     0.046 A 
HETATM   22  C   UNL     1      45.070 -28.621  -1.172  1.00  0.00     0.130 A 
HETATM   23  C   UNL     1      47.641 -28.089  -0.193  1.00  0.00     0.030 A 
HETATM   24  N   UNL     1      46.621 -28.697   2.018  1.00  0.00    -0.364 N 
HETATM   25  C   UNL     1      47.357 -27.953  -1.554  1.00  0.00     0.005 A 
HETATM   26  C   UNL     1      46.083 -28.217  -2.043  1.00  0.00     0.043 A 
HETATM   27  H   UNL     1      47.431 -28.571   2.610  1.00  0.00     0.165 HD
HETATM   28  C   UNL     1      45.387 -29.083   2.447  1.00  0.00     0.106 A 
HETATM   29  F   UNL     1      43.856 -28.870  -1.688  1.00  0.00    -0.205 F 
ENDBRANCH   2  19
TORSDOF 4
ENDMDL
