MODEL 1
REMARK VINA RESULT:      -9.2      0.000      0.000
REMARK  9 active torsions:
REMARK  status: ('A' for Active; 'I' for Inactive)
REMARK    1  A    between atoms: C_2  and  C_3 
REMARK    2  A    between atoms: C_3  and  C_4 
REMARK    3  A    between atoms: C_4  and  C_5 
REMARK    4  A    between atoms: C_5  and  N_6 
REMARK    5  A    between atoms: C_15  and  C_16 
REMARK       I    between atoms: C_16  and  N_17 
REMARK    6  A    between atoms: N_17  and  C_18 
REMARK    7  A    between atoms: C_18  and  C_19 
REMARK    8  A    between atoms: C_19  and  N_20 
REMARK    9  A    between atoms: N_24  and  C_25 
ROOT
HETATM    1  C   UNL     1      43.356 -11.482   4.144  1.00  0.00     0.251 C 
HETATM    2  N   UNL     1      42.645 -10.603   3.360  1.00  0.00    -0.355 N 
HETATM    3  O   UNL     1      43.803 -12.540   3.709  1.00  0.00    -0.268 OA
HETATM    4  H   UNL     1      42.334  -9.736   3.787  1.00  0.00     0.162 HD
ENDROOT
BRANCH   1   5
HETATM    5  C   UNL     1      43.581 -11.111   5.562  1.00  0.00     0.034 A 
HETATM    6  C   UNL     1      42.586 -10.475   6.318  1.00  0.00     0.047 A 
HETATM    7  C   UNL     1      42.797 -10.260   7.683  1.00  0.00     0.053 A 
HETATM    8  N   UNL     1      41.806  -9.664   8.456  1.00  0.00    -0.308 N 
HETATM    9  C   UNL     1      43.985 -10.659   8.285  1.00  0.00     0.059 A 
HETATM   10  C   UNL     1      41.900  -9.477   9.809  1.00  0.00     0.329 A 
HETATM   11  H   UNL     1      40.932  -9.349   8.053  1.00  0.00     0.170 HD
HETATM   12  N   UNL     1      43.057  -9.927  10.421  1.00  0.00    -0.266 N 
HETATM   13  O   UNL     1      40.964  -8.936  10.393  1.00  0.00    -0.246 OA
HETATM   14  C   UNL     1      44.147 -10.458   9.737  1.00  0.00     0.264 A 
HETATM   15  O   UNL     1      45.213 -10.770  10.261  1.00  0.00    -0.267 OA
HETATM   16  C   UNL     1      44.987 -11.276   7.529  1.00  0.00     0.020 A 
HETATM   17  C   UNL     1      44.779 -11.512   6.169  1.00  0.00     0.018 A 
BRANCH  12  18
HETATM   18  C   UNL     1      43.170  -9.780  11.869  1.00  0.00     0.137 C 
BRANCH  18  19
HETATM   19  C   UNL     1      43.616  -8.372  12.271  1.00  0.00     0.020 C 
BRANCH  19  20
HETATM   20  C   UNL     1      42.660  -7.770  13.301  1.00  0.00     0.001 C 
BRANCH  20  21
HETATM   21  C   UNL     1      42.156  -8.828  14.283  1.00  0.00    -0.004 C 
HETATM   22  C   UNL     1      41.430  -8.192  15.458  1.00  0.00     0.005 C 
ENDBRANCH  20  21
ENDBRANCH  19  20
ENDBRANCH  18  19
ENDBRANCH  12  18
ENDBRANCH   1   5
BRANCH   2  23
HETATM   23  C   UNL     1      42.056 -10.938   2.064  1.00  0.00     0.150 C 
BRANCH  23  24
HETATM   24  C   UNL     1      40.620 -11.519   2.059  1.00  0.00     0.254 C 
BRANCH  24  25
HETATM   25  N   UNL     1      40.578 -13.023   1.999  1.00  0.00    -0.067 N 
HETATM   26  H   UNL     1      39.719 -13.259   1.458  1.00  0.00     0.280 HD
HETATM   27  C   UNL     1      41.717 -13.685   1.229  1.00  0.00     0.254 C 
HETATM   28  C   UNL     1      41.448 -15.198   1.090  1.00  0.00     0.150 C 
HETATM   29  N   UNL     1      41.235 -15.817   2.409  1.00  0.00    -0.378 N 
HETATM   30  C   UNL     1      40.163 -15.199   3.216  1.00  0.00     0.150 C 
HETATM   31  C   UNL     1      40.397 -13.678   3.364  1.00  0.00     0.254 C 
BRANCH  29  32
HETATM   32  C   UNL     1      42.234 -16.545   3.043  1.00  0.00     0.031 A 
HETATM   33  C   UNL     1      42.848 -16.124   4.232  1.00  0.00     0.053 A 
HETATM   34  C   UNL     1      43.876 -16.865   4.829  1.00  0.00     0.036 A 
HETATM   35 CL   UNL     1      44.583 -16.302   6.294  1.00  0.00    -0.084 Cl
HETATM   36  C   UNL     1      44.327 -18.045   4.253  1.00  0.00     0.024 A 
HETATM   37  C   UNL     1      43.747 -18.482   3.069  1.00  0.00     0.004 A 
HETATM   38  C   UNL     1      42.719 -17.739   2.477  1.00  0.00     0.029 A 
ENDBRANCH  29  32
ENDBRANCH  24  25
ENDBRANCH  23  24
ENDBRANCH   2  23
TORSDOF 9
ENDMDL
MODEL 2
REMARK VINA RESULT:      -9.1      1.452      2.079
REMARK  9 active torsions:
REMARK  status: ('A' for Active; 'I' for Inactive)
REMARK    1  A    between atoms: C_2  and  C_3 
REMARK    2  A    between atoms: C_3  and  C_4 
REMARK    3  A    between atoms: C_4  and  C_5 
REMARK    4  A    between atoms: C_5  and  N_6 
REMARK    5  A    between atoms: C_15  and  C_16 
REMARK       I    between atoms: C_16  and  N_17 
REMARK    6  A    between atoms: N_17  and  C_18 
REMARK    7  A    between atoms: C_18  and  C_19 
REMARK    8  A    between atoms: C_19  and  N_20 
REMARK    9  A    between atoms: N_24  and  C_25 
ROOT
HETATM    1  C   UNL     1      42.461 -11.605   3.773  1.00  0.00     0.251 C 
HETATM    2  N   UNL     1      41.101 -11.522   3.588  1.00  0.00    -0.355 N 
HETATM    3  O   UNL     1      43.222 -12.012   2.900  1.00  0.00    -0.268 OA
HETATM    4  H   UNL     1      40.543 -11.148   4.348  1.00  0.00     0.162 HD
ENDROOT
BRANCH   1   5
HETATM    5  C   UNL     1      43.003 -11.173   5.084  1.00  0.00     0.034 A 
HETATM    6  C   UNL     1      42.345 -10.213   5.867  1.00  0.00     0.047 A 
HETATM    7  C   UNL     1      42.823  -9.932   7.149  1.00  0.00     0.053 A 
HETATM    8  N   UNL     1      42.161  -9.010   7.955  1.00  0.00    -0.308 N 
HETATM    9  C   UNL     1      43.948 -10.585   7.643  1.00  0.00     0.059 A 
HETATM   10  C   UNL     1      42.519  -8.725   9.244  1.00  0.00     0.329 A 
HETATM   11  H   UNL     1      41.346  -8.506   7.628  1.00  0.00     0.170 HD
HETATM   12  N   UNL     1      43.603  -9.416   9.758  1.00  0.00    -0.266 N 
HETATM   13  O   UNL     1      41.865  -7.889   9.864  1.00  0.00    -0.246 OA
HETATM   14  C   UNL     1      44.390 -10.294   9.019  1.00  0.00     0.264 A 
HETATM   15  O   UNL     1      45.409 -10.838   9.439  1.00  0.00    -0.267 OA
HETATM   16  C   UNL     1      44.617 -11.528   6.856  1.00  0.00     0.020 A 
HETATM   17  C   UNL     1      44.137 -11.829   5.581  1.00  0.00     0.018 A 
BRANCH  12  18
HETATM   18  C   UNL     1      43.984  -9.164  11.145  1.00  0.00     0.137 C 
BRANCH  18  19
HETATM   19  C   UNL     1      43.154  -9.993  12.128  1.00  0.00     0.020 C 
BRANCH  19  20
HETATM   20  C   UNL     1      42.429  -9.090  13.126  1.00  0.00     0.001 C 
BRANCH  20  21
HETATM   21  C   UNL     1      43.118  -7.732  13.256  1.00  0.00    -0.004 C 
HETATM   22  C   UNL     1      42.929  -7.145  14.645  1.00  0.00     0.005 C 
ENDBRANCH  20  21
ENDBRANCH  19  20
ENDBRANCH  18  19
ENDBRANCH  12  18
ENDBRANCH   1   5
BRANCH   2  23
HETATM   23  C   UNL     1      40.368 -12.192   2.512  1.00  0.00     0.150 C 
BRANCH  23  24
HETATM   24  C   UNL     1      40.233 -13.733   2.590  1.00  0.00     0.254 C 
BRANCH  24  25
HETATM   25  N   UNL     1      41.547 -14.444   2.782  1.00  0.00    -0.067 N 
HETATM   26  H   UNL     1      42.268 -13.694   2.839  1.00  0.00     0.280 HD
HETATM   27  C   UNL     1      41.692 -15.223   4.086  1.00  0.00     0.254 C 
HETATM   28  C   UNL     1      43.139 -15.738   4.233  1.00  0.00     0.150 C 
HETATM   29  N   UNL     1      43.532 -16.539   3.061  1.00  0.00    -0.378 N 
HETATM   30  C   UNL     1      43.385 -15.849   1.764  1.00  0.00     0.150 C 
HETATM   31  C   UNL     1      41.947 -15.308   1.591  1.00  0.00     0.254 C 
BRANCH  29  32
HETATM   32  C   UNL     1      43.548 -17.928   3.099  1.00  0.00     0.031 A 
HETATM   33  C   UNL     1      43.959 -18.656   4.226  1.00  0.00     0.053 A 
HETATM   34  C   UNL     1      43.995 -20.056   4.220  1.00  0.00     0.036 A 
HETATM   35 CL   UNL     1      44.498 -20.894   5.637  1.00  0.00    -0.084 Cl
HETATM   36  C   UNL     1      43.630 -20.772   3.088  1.00  0.00     0.024 A 
HETATM   37  C   UNL     1      43.229 -20.079   1.952  1.00  0.00     0.004 A 
HETATM   38  C   UNL     1      43.194 -18.679   1.963  1.00  0.00     0.029 A 
ENDBRANCH  29  32
ENDBRANCH  24  25
ENDBRANCH  23  24
ENDBRANCH   2  23
TORSDOF 9
ENDMDL
MODEL 3
REMARK VINA RESULT:      -8.7      3.068      3.862
REMARK  9 active torsions:
REMARK  status: ('A' for Active; 'I' for Inactive)
REMARK    1  A    between atoms: C_2  and  C_3 
REMARK    2  A    between atoms: C_3  and  C_4 
REMARK    3  A    between atoms: C_4  and  C_5 
REMARK    4  A    between atoms: C_5  and  N_6 
REMARK    5  A    between atoms: C_15  and  C_16 
REMARK       I    between atoms: C_16  and  N_17 
REMARK    6  A    between atoms: N_17  and  C_18 
REMARK    7  A    between atoms: C_18  and  C_19 
REMARK    8  A    between atoms: C_19  and  N_20 
REMARK    9  A    between atoms: N_24  and  C_25 
ROOT
HETATM    1  C   UNL     1      39.062 -10.202   6.404  1.00  0.00     0.251 C 
HETATM    2  N   UNL     1      40.115 -10.942   5.918  1.00  0.00    -0.355 N 
HETATM    3  O   UNL     1      38.048  -9.989   5.746  1.00  0.00    -0.268 OA
HETATM    4  H   UNL     1      40.906 -11.098   6.534  1.00  0.00     0.162 HD
ENDROOT
BRANCH   1   5
HETATM    5  C   UNL     1      39.181  -9.658   7.779  1.00  0.00     0.034 A 
HETATM    6  C   UNL     1      39.069 -10.487   8.904  1.00  0.00     0.047 A 
HETATM    7  C   UNL     1      39.315  -9.954  10.172  1.00  0.00     0.053 A 
HETATM    8  N   UNL     1      39.245 -10.770  11.298  1.00  0.00    -0.308 N 
HETATM    9  C   UNL     1      39.655  -8.614  10.322  1.00  0.00     0.059 A 
HETATM   10  C   UNL     1      39.537 -10.349  12.567  1.00  0.00     0.329 A 
HETATM   11  H   UNL     1      38.990 -11.747  11.232  1.00  0.00     0.170 HD
HETATM   12  N   UNL     1      39.932  -9.030  12.711  1.00  0.00    -0.266 N 
HETATM   13  O   UNL     1      39.438 -11.154  13.490  1.00  0.00    -0.246 OA
HETATM   14  C   UNL     1      39.954  -8.104  11.673  1.00  0.00     0.264 A 
HETATM   15  O   UNL     1      40.211  -6.910  11.809  1.00  0.00    -0.267 OA
HETATM   16  C   UNL     1      39.748  -7.781   9.202  1.00  0.00     0.020 A 
HETATM   17  C   UNL     1      39.522  -8.307   7.929  1.00  0.00     0.018 A 
BRANCH  12  18
HETATM   18  C   UNL     1      40.290  -8.562  14.047  1.00  0.00     0.137 C 
BRANCH  18  19
HETATM   19  C   UNL     1      41.747  -8.873  14.393  1.00  0.00     0.020 C 
BRANCH  19  20
HETATM   20  C   UNL     1      42.542  -7.587  14.619  1.00  0.00     0.001 C 
BRANCH  20  21
HETATM   21  C   UNL     1      43.328  -7.187  13.371  1.00  0.00    -0.004 C 
HETATM   22  C   UNL     1      43.553  -8.378  12.453  1.00  0.00     0.005 C 
ENDBRANCH  20  21
ENDBRANCH  19  20
ENDBRANCH  18  19
ENDBRANCH  12  18
ENDBRANCH   1   5
BRANCH   2  23
HETATM   23  C   UNL     1      40.315 -11.273   4.507  1.00  0.00     0.150 C 
BRANCH  23  24
HETATM   24  C   UNL     1      39.555 -12.500   3.944  1.00  0.00     0.254 C 
BRANCH  24  25
HETATM   25  N   UNL     1      40.400 -13.380   3.061  1.00  0.00    -0.067 N 
HETATM   26  H   UNL     1      40.286 -13.003   2.097  1.00  0.00     0.280 HD
HETATM   27  C   UNL     1      41.902 -13.329   3.324  1.00  0.00     0.254 C 
HETATM   28  C   UNL     1      42.653 -14.125   2.236  1.00  0.00     0.150 C 
HETATM   29  N   UNL     1      42.150 -15.507   2.155  1.00  0.00    -0.378 N 
HETATM   30  C   UNL     1      40.695 -15.621   1.931  1.00  0.00     0.150 C 
HETATM   31  C   UNL     1      39.912 -14.823   3.000  1.00  0.00     0.254 C 
BRANCH  29  32
HETATM   32  C   UNL     1      42.840 -16.570   2.724  1.00  0.00     0.031 A 
HETATM   33  C   UNL     1      42.978 -17.815   2.093  1.00  0.00     0.053 A 
HETATM   34  C   UNL     1      43.652 -18.877   2.709  1.00  0.00     0.036 A 
HETATM   35 CL   UNL     1      43.798 -20.379   1.880  1.00  0.00    -0.084 Cl
HETATM   36  C   UNL     1      44.202 -18.731   3.975  1.00  0.00     0.024 A 
HETATM   37  C   UNL     1      44.072 -17.513   4.630  1.00  0.00     0.004 A 
HETATM   38  C   UNL     1      43.399 -16.454   4.010  1.00  0.00     0.029 A 
ENDBRANCH  29  32
ENDBRANCH  24  25
ENDBRANCH  23  24
ENDBRANCH   2  23
TORSDOF 9
ENDMDL
MODEL 4
REMARK VINA RESULT:      -8.5      2.204      3.734
REMARK  9 active torsions:
REMARK  status: ('A' for Active; 'I' for Inactive)
REMARK    1  A    between atoms: C_2  and  C_3 
REMARK    2  A    between atoms: C_3  and  C_4 
REMARK    3  A    between atoms: C_4  and  C_5 
REMARK    4  A    between atoms: C_5  and  N_6 
REMARK    5  A    between atoms: C_15  and  C_16 
REMARK       I    between atoms: C_16  and  N_17 
REMARK    6  A    between atoms: N_17  and  C_18 
REMARK    7  A    between atoms: C_18  and  C_19 
REMARK    8  A    between atoms: C_19  and  N_20 
REMARK    9  A    between atoms: N_24  and  C_25 
ROOT
HETATM    1  C   UNL     1      43.752 -10.707   8.451  1.00  0.00     0.251 C 
HETATM    2  N   UNL     1      42.796 -10.857   7.474  1.00  0.00    -0.355 N 
HETATM    3  O   UNL     1      44.850 -11.252   8.387  1.00  0.00    -0.268 OA
HETATM    4  H   UNL     1      41.923 -10.351   7.587  1.00  0.00     0.162 HD
ENDROOT
BRANCH   1   5
HETATM    5  C   UNL     1      43.421  -9.844   9.611  1.00  0.00     0.034 A 
HETATM    6  C   UNL     1      42.092  -9.545   9.943  1.00  0.00     0.047 A 
HETATM    7  C   UNL     1      41.824  -8.835  11.117  1.00  0.00     0.053 A 
HETATM    8  N   UNL     1      40.509  -8.562  11.482  1.00  0.00    -0.308 N 
HETATM    9  C   UNL     1      42.862  -8.417  11.942  1.00  0.00     0.059 A 
HETATM   10  C   UNL     1      40.152  -7.934  12.644  1.00  0.00     0.329 A 
HETATM   11  H   UNL     1      39.726  -8.840  10.902  1.00  0.00     0.170 HD
HETATM   12  N   UNL     1      41.181  -7.568  13.495  1.00  0.00    -0.266 N 
HETATM   13  O   UNL     1      38.959  -7.740  12.865  1.00  0.00    -0.246 OA
HETATM   14  C   UNL     1      42.532  -7.713  13.195  1.00  0.00     0.264 A 
HETATM   15  O   UNL     1      43.450  -7.304  13.901  1.00  0.00    -0.267 OA
HETATM   16  C   UNL     1      44.189  -8.697  11.602  1.00  0.00     0.020 A 
HETATM   17  C   UNL     1      44.467  -9.421  10.442  1.00  0.00     0.018 A 
BRANCH  12  18
HETATM   18  C   UNL     1      40.831  -6.933  14.763  1.00  0.00     0.137 C 
BRANCH  18  19
HETATM   19  C   UNL     1      41.004  -7.886  15.949  1.00  0.00     0.020 C 
BRANCH  19  20
HETATM   20  C   UNL     1      41.910  -7.269  17.016  1.00  0.00     0.001 C 
BRANCH  20  21
HETATM   21  C   UNL     1      41.396  -7.563  18.425  1.00  0.00    -0.004 C 
HETATM   22  C   UNL     1      39.920  -7.927  18.412  1.00  0.00     0.005 C 
ENDBRANCH  20  21
ENDBRANCH  19  20
ENDBRANCH  18  19
ENDBRANCH  12  18
ENDBRANCH   1   5
BRANCH   2  23
HETATM   23  C   UNL     1      42.814 -11.900   6.448  1.00  0.00     0.150 C 
BRANCH  23  24
HETATM   24  C   UNL     1      42.290 -11.528   5.039  1.00  0.00     0.254 C 
BRANCH  24  25
HETATM   25  N   UNL     1      42.071 -12.718   4.143  1.00  0.00    -0.067 N 
HETATM   26  H   UNL     1      41.371 -12.412   3.434  1.00  0.00     0.280 HD
HETATM   27  C   UNL     1      43.282 -13.162   3.328  1.00  0.00     0.254 C 
HETATM   28  C   UNL     1      42.867 -14.260   2.326  1.00  0.00     0.150 C 
HETATM   29  N   UNL     1      42.222 -15.387   3.019  1.00  0.00    -0.378 N 
HETATM   30  C   UNL     1      41.058 -15.016   3.850  1.00  0.00     0.150 C 
HETATM   31  C   UNL     1      41.438 -13.906   4.859  1.00  0.00     0.254 C 
BRANCH  29  32
HETATM   32  C   UNL     1      42.904 -16.567   3.287  1.00  0.00     0.031 A 
HETATM   33  C   UNL     1      42.838 -17.693   2.451  1.00  0.00     0.053 A 
HETATM   34  C   UNL     1      43.512 -18.879   2.766  1.00  0.00     0.036 A 
HETATM   35 CL   UNL     1      43.402 -20.224   1.697  1.00  0.00    -0.084 Cl
HETATM   36  C   UNL     1      44.266 -18.981   3.927  1.00  0.00     0.024 A 
HETATM   37  C   UNL     1      44.342 -17.887   4.781  1.00  0.00     0.004 A 
HETATM   38  C   UNL     1      43.667 -16.703   4.461  1.00  0.00     0.029 A 
ENDBRANCH  29  32
ENDBRANCH  24  25
ENDBRANCH  23  24
ENDBRANCH   2  23
TORSDOF 9
ENDMDL
MODEL 5
REMARK VINA RESULT:      -8.4      2.456      3.594
REMARK  9 active torsions:
REMARK  status: ('A' for Active; 'I' for Inactive)
REMARK    1  A    between atoms: C_2  and  C_3 
REMARK    2  A    between atoms: C_3  and  C_4 
REMARK    3  A    between atoms: C_4  and  C_5 
REMARK    4  A    between atoms: C_5  and  N_6 
REMARK    5  A    between atoms: C_15  and  C_16 
REMARK       I    between atoms: C_16  and  N_17 
REMARK    6  A    between atoms: N_17  and  C_18 
REMARK    7  A    between atoms: C_18  and  C_19 
REMARK    8  A    between atoms: C_19  and  N_20 
REMARK    9  A    between atoms: N_24  and  C_25 
ROOT
HETATM    1  C   UNL     1      43.984 -11.005   8.078  1.00  0.00     0.251 C 
HETATM    2  N   UNL     1      42.929 -11.151   7.207  1.00  0.00    -0.355 N 
HETATM    3  O   UNL     1      45.057 -11.579   7.915  1.00  0.00    -0.268 OA
HETATM    4  H   UNL     1      42.084 -10.620   7.396  1.00  0.00     0.162 HD
ENDROOT
BRANCH   1   5
HETATM    5  C   UNL     1      43.792 -10.110   9.245  1.00  0.00     0.034 A 
HETATM    6  C   UNL     1      43.452  -8.759   9.082  1.00  0.00     0.047 A 
HETATM    7  C   UNL     1      43.157  -7.988  10.209  1.00  0.00     0.053 A 
HETATM    8  N   UNL     1      42.781  -6.656  10.064  1.00  0.00    -0.308 N 
HETATM    9  C   UNL     1      43.212  -8.546  11.481  1.00  0.00     0.059 A 
HETATM   10  C   UNL     1      42.410  -5.848  11.104  1.00  0.00     0.329 A 
HETATM   11  H   UNL     1      42.741  -6.209   9.156  1.00  0.00     0.170 HD
HETATM   12  N   UNL     1      42.408  -6.418  12.366  1.00  0.00    -0.266 N 
HETATM   13  O   UNL     1      42.100  -4.684  10.862  1.00  0.00    -0.246 OA
HETATM   14  C   UNL     1      42.846  -7.710  12.640  1.00  0.00     0.264 A 
HETATM   15  O   UNL     1      42.938  -8.190  13.767  1.00  0.00    -0.267 OA
HETATM   16  C   UNL     1      43.571  -9.887  11.648  1.00  0.00     0.020 A 
HETATM   17  C   UNL     1      43.849 -10.672  10.527  1.00  0.00     0.018 A 
BRANCH  12  18
HETATM   18  C   UNL     1      41.977  -5.594  13.492  1.00  0.00     0.137 C 
BRANCH  18  19
HETATM   19  C   UNL     1      40.454  -5.457  13.554  1.00  0.00     0.020 C 
BRANCH  19  20
HETATM   20  C   UNL     1      39.807  -6.767  14.003  1.00  0.00     0.001 C 
BRANCH  20  21
HETATM   21  C   UNL     1      39.084  -7.460  12.848  1.00  0.00    -0.004 C 
HETATM   22  C   UNL     1      39.449  -8.934  12.771  1.00  0.00     0.005 C 
ENDBRANCH  20  21
ENDBRANCH  19  20
ENDBRANCH  18  19
ENDBRANCH  12  18
ENDBRANCH   1   5
BRANCH   2  23
HETATM   23  C   UNL     1      42.818 -12.216   6.210  1.00  0.00     0.150 C 
BRANCH  23  24
HETATM   24  C   UNL     1      41.544 -12.242   5.329  1.00  0.00     0.254 C 
BRANCH  24  25
HETATM   25  N   UNL     1      41.537 -13.352   4.312  1.00  0.00    -0.067 N 
HETATM   26  H   UNL     1      40.895 -13.036   3.555  1.00  0.00     0.280 HD
HETATM   27  C   UNL     1      42.867 -13.613   3.610  1.00  0.00     0.254 C 
HETATM   28  C   UNL     1      42.670 -14.637   2.473  1.00  0.00     0.150 C 
HETATM   29  N   UNL     1      42.059 -15.876   2.982  1.00  0.00    -0.378 N 
HETATM   30  C   UNL     1      40.781 -15.685   3.699  1.00  0.00     0.150 C 
HETATM   31  C   UNL     1      40.942 -14.653   4.839  1.00  0.00     0.254 C 
BRANCH  29  32
HETATM   32  C   UNL     1      42.814 -17.017   3.224  1.00  0.00     0.031 A 
HETATM   33  C   UNL     1      42.834 -18.117   2.353  1.00  0.00     0.053 A 
HETATM   34  C   UNL     1      43.581 -19.266   2.642  1.00  0.00     0.036 A 
HETATM   35 CL   UNL     1      43.574 -20.580   1.530  1.00  0.00    -0.084 Cl
HETATM   36  C   UNL     1      44.324 -19.355   3.811  1.00  0.00     0.024 A 
HETATM   37  C   UNL     1      44.315 -18.286   4.699  1.00  0.00     0.004 A 
HETATM   38  C   UNL     1      43.568 -17.139   4.405  1.00  0.00     0.029 A 
ENDBRANCH  29  32
ENDBRANCH  24  25
ENDBRANCH  23  24
ENDBRANCH   2  23
TORSDOF 9
ENDMDL
MODEL 6
REMARK VINA RESULT:      -8.3      2.740      4.359
REMARK  9 active torsions:
REMARK  status: ('A' for Active; 'I' for Inactive)
REMARK    1  A    between atoms: C_2  and  C_3 
REMARK    2  A    between atoms: C_3  and  C_4 
REMARK    3  A    between atoms: C_4  and  C_5 
REMARK    4  A    between atoms: C_5  and  N_6 
REMARK    5  A    between atoms: C_15  and  C_16 
REMARK       I    between atoms: C_16  and  N_17 
REMARK    6  A    between atoms: N_17  and  C_18 
REMARK    7  A    between atoms: C_18  and  C_19 
REMARK    8  A    between atoms: C_19  and  N_20 
REMARK    9  A    between atoms: N_24  and  C_25 
ROOT
HETATM    1  C   UNL     1      43.886 -10.516   8.519  1.00  0.00     0.251 C 
HETATM    2  N   UNL     1      43.090 -10.188   7.445  1.00  0.00    -0.355 N 
HETATM    3  O   UNL     1      44.807 -11.322   8.434  1.00  0.00    -0.268 OA
HETATM    4  H   UNL     1      42.367  -9.491   7.589  1.00  0.00     0.162 HD
ENDROOT
BRANCH   1   5
HETATM    5  C   UNL     1      43.602  -9.849   9.812  1.00  0.00     0.034 A 
HETATM    6  C   UNL     1      43.313  -8.478   9.880  1.00  0.00     0.047 A 
HETATM    7  C   UNL     1      42.927  -7.921  11.103  1.00  0.00     0.053 A 
HETATM    8  N   UNL     1      42.600  -6.571  11.181  1.00  0.00    -0.308 N 
HETATM    9  C   UNL     1      42.842  -8.711  12.244  1.00  0.00     0.059 A 
HETATM   10  C   UNL     1      42.148  -5.958  12.318  1.00  0.00     0.329 A 
HETATM   11  H   UNL     1      42.661  -5.960  10.376  1.00  0.00     0.170 HD
HETATM   12  N   UNL     1      42.007  -6.755  13.441  1.00  0.00    -0.266 N 
HETATM   13  O   UNL     1      41.892  -4.757  12.276  1.00  0.00    -0.246 OA
HETATM   14  C   UNL     1      42.383  -8.093  13.502  1.00  0.00     0.264 A 
HETATM   15  O   UNL     1      42.350  -8.781  14.519  1.00  0.00    -0.267 OA
HETATM   16  C   UNL     1      43.148 -10.074  12.182  1.00  0.00     0.020 A 
HETATM   17  C   UNL     1      43.517 -10.645  10.963  1.00  0.00     0.018 A 
BRANCH  12  18
HETATM   18  C   UNL     1      41.487  -6.140  14.659  1.00  0.00     0.137 C 
BRANCH  18  19
HETATM   19  C   UNL     1      39.972  -6.319  14.792  1.00  0.00     0.020 C 
BRANCH  19  20
HETATM   20  C   UNL     1      39.267  -4.965  14.868  1.00  0.00     0.001 C 
BRANCH  20  21
HETATM   21  C   UNL     1      37.813  -5.063  14.407  1.00  0.00    -0.004 C 
HETATM   22  C   UNL     1      37.661  -6.048  13.259  1.00  0.00     0.005 C 
ENDBRANCH  20  21
ENDBRANCH  19  20
ENDBRANCH  18  19
ENDBRANCH  12  18
ENDBRANCH   1   5
BRANCH   2  23
HETATM   23  C   UNL     1      43.009 -10.963   6.207  1.00  0.00     0.150 C 
BRANCH  23  24
HETATM   24  C   UNL     1      41.779 -11.887   6.020  1.00  0.00     0.254 C 
BRANCH  24  25
HETATM   25  N   UNL     1      42.026 -13.311   6.443  1.00  0.00    -0.067 N 
HETATM   26  H   UNL     1      41.872 -13.330   7.473  1.00  0.00     0.280 HD
HETATM   27  C   UNL     1      41.050 -14.343   5.885  1.00  0.00     0.254 C 
HETATM   28  C   UNL     1      41.303 -15.716   6.543  1.00  0.00     0.150 C 
HETATM   29  N   UNL     1      42.706 -16.129   6.371  1.00  0.00    -0.378 N 
HETATM   30  C   UNL     1      43.701 -15.156   6.866  1.00  0.00     0.150 C 
HETATM   31  C   UNL     1      43.467 -13.764   6.234  1.00  0.00     0.254 C 
BRANCH  29  32
HETATM   32  C   UNL     1      43.080 -17.062   5.412  1.00  0.00     0.031 A 
HETATM   33  C   UNL     1      43.584 -18.331   5.738  1.00  0.00     0.053 A 
HETATM   34  C   UNL     1      43.984 -19.236   4.748  1.00  0.00     0.036 A 
HETATM   35 CL   UNL     1      44.584 -20.782   5.208  1.00  0.00    -0.084 Cl
HETATM   36  C   UNL     1      43.899 -18.902   3.403  1.00  0.00     0.024 A 
HETATM   37  C   UNL     1      43.415 -17.648   3.049  1.00  0.00     0.004 A 
HETATM   38  C   UNL     1      43.016 -16.747   4.043  1.00  0.00     0.029 A 
ENDBRANCH  29  32
ENDBRANCH  24  25
ENDBRANCH  23  24
ENDBRANCH   2  23
TORSDOF 9
ENDMDL
MODEL 7
REMARK VINA RESULT:      -8.3      2.763      9.233
REMARK  9 active torsions:
REMARK  status: ('A' for Active; 'I' for Inactive)
REMARK    1  A    between atoms: C_2  and  C_3 
REMARK    2  A    between atoms: C_3  and  C_4 
REMARK    3  A    between atoms: C_4  and  C_5 
REMARK    4  A    between atoms: C_5  and  N_6 
REMARK    5  A    between atoms: C_15  and  C_16 
REMARK       I    between atoms: C_16  and  N_17 
REMARK    6  A    between atoms: N_17  and  C_18 
REMARK    7  A    between atoms: C_18  and  C_19 
REMARK    8  A    between atoms: C_19  and  N_20 
REMARK    9  A    between atoms: N_24  and  C_25 
ROOT
HETATM    1  C   UNL     1      39.106 -10.029   7.185  1.00  0.00     0.251 C 
HETATM    2  N   UNL     1      39.431 -10.374   8.476  1.00  0.00    -0.355 N 
HETATM    3  O   UNL     1      38.522  -8.985   6.909  1.00  0.00    -0.268 OA
HETATM    4  H   UNL     1      39.939 -11.241   8.619  1.00  0.00     0.162 HD
ENDROOT
BRANCH   1   5
HETATM    5  C   UNL     1      39.494 -10.968   6.104  1.00  0.00     0.034 A 
HETATM    6  C   UNL     1      40.172 -12.164   6.384  1.00  0.00     0.047 A 
HETATM    7  C   UNL     1      40.403 -13.075   5.350  1.00  0.00     0.053 A 
HETATM    8  N   UNL     1      41.041 -14.283   5.616  1.00  0.00    -0.308 N 
HETATM    9  C   UNL     1      39.978 -12.799   4.056  1.00  0.00     0.059 A 
HETATM   10  C   UNL     1      41.247 -15.261   4.681  1.00  0.00     0.329 A 
HETATM   11  H   UNL     1      41.375 -14.517   6.543  1.00  0.00     0.170 HD
HETATM   12  N   UNL     1      40.773 -15.013   3.404  1.00  0.00    -0.266 N 
HETATM   13  O   UNL     1      41.826 -16.289   5.025  1.00  0.00    -0.246 OA
HETATM   14  C   UNL     1      40.199 -13.810   3.005  1.00  0.00     0.264 A 
HETATM   15  O   UNL     1      39.864 -13.546   1.853  1.00  0.00    -0.267 OA
HETATM   16  C   UNL     1      39.320 -11.598   3.771  1.00  0.00     0.020 A 
HETATM   17  C   UNL     1      39.067 -10.688   4.799  1.00  0.00     0.018 A 
BRANCH  12  18
HETATM   18  C   UNL     1      40.940 -16.054   2.394  1.00  0.00     0.137 C 
BRANCH  18  19
HETATM   19  C   UNL     1      42.161 -15.801   1.506  1.00  0.00     0.020 C 
BRANCH  19  20
HETATM   20  C   UNL     1      43.326 -16.705   1.910  1.00  0.00     0.001 C 
BRANCH  20  21
HETATM   21  C   UNL     1      42.847 -18.112   2.266  1.00  0.00    -0.004 C 
HETATM   22  C   UNL     1      43.920 -18.890   3.011  1.00  0.00     0.005 C 
ENDBRANCH  20  21
ENDBRANCH  19  20
ENDBRANCH  18  19
ENDBRANCH  12  18
ENDBRANCH   1   5
BRANCH   2  23
HETATM   23  C   UNL     1      38.857  -9.753   9.670  1.00  0.00     0.150 C 
BRANCH  23  24
HETATM   24  C   UNL     1      39.312  -8.313  10.018  1.00  0.00     0.254 C 
BRANCH  24  25
HETATM   25  N   UNL     1      40.808  -8.158  10.100  1.00  0.00    -0.067 N 
HETATM   26  H   UNL     1      40.974  -7.402  10.798  1.00  0.00     0.280 HD
HETATM   27  C   UNL     1      41.568  -9.364  10.643  1.00  0.00     0.254 C 
HETATM   28  C   UNL     1      43.054  -9.001  10.847  1.00  0.00     0.150 C 
HETATM   29  N   UNL     1      43.645  -8.488   9.600  1.00  0.00    -0.378 N 
HETATM   30  C   UNL     1      42.935  -7.336   9.009  1.00  0.00     0.150 C 
HETATM   31  C   UNL     1      41.437  -7.663   8.802  1.00  0.00     0.254 C 
BRANCH  29  32
HETATM   32  C   UNL     1      44.451  -9.281   8.794  1.00  0.00     0.031 A 
HETATM   33  C   UNL     1      44.011 -10.487   8.227  1.00  0.00     0.053 A 
HETATM   34  C   UNL     1      44.860 -11.281   7.445  1.00  0.00     0.036 A 
HETATM   35 CL   UNL     1      44.260 -12.745   6.766  1.00  0.00    -0.084 Cl
HETATM   36  C   UNL     1      46.174 -10.900   7.211  1.00  0.00     0.024 A 
HETATM   37  C   UNL     1      46.642  -9.716   7.769  1.00  0.00     0.004 A 
HETATM   38  C   UNL     1      45.790  -8.925   8.549  1.00  0.00     0.029 A 
ENDBRANCH  29  32
ENDBRANCH  24  25
ENDBRANCH  23  24
ENDBRANCH   2  23
TORSDOF 9
ENDMDL
MODEL 8
REMARK VINA RESULT:      -8.2      1.655      2.609
REMARK  9 active torsions:
REMARK  status: ('A' for Active; 'I' for Inactive)
REMARK    1  A    between atoms: C_2  and  C_3 
REMARK    2  A    between atoms: C_3  and  C_4 
REMARK    3  A    between atoms: C_4  and  C_5 
REMARK    4  A    between atoms: C_5  and  N_6 
REMARK    5  A    between atoms: C_15  and  C_16 
REMARK       I    between atoms: C_16  and  N_17 
REMARK    6  A    between atoms: N_17  and  C_18 
REMARK    7  A    between atoms: C_18  and  C_19 
REMARK    8  A    between atoms: C_19  and  N_20 
REMARK    9  A    between atoms: N_24  and  C_25 
ROOT
HETATM    1  C   UNL     1      41.913 -11.130   3.896  1.00  0.00     0.251 C 
HETATM    2  N   UNL     1      40.664 -11.277   3.340  1.00  0.00    -0.355 N 
HETATM    3  O   UNL     1      42.934 -11.515   3.335  1.00  0.00    -0.268 OA
HETATM    4  H   UNL     1      39.871 -10.907   3.855  1.00  0.00     0.162 HD
ENDROOT
BRANCH   1   5
HETATM    5  C   UNL     1      42.001 -10.472   5.223  1.00  0.00     0.034 A 
HETATM    6  C   UNL     1      42.622 -11.101   6.311  1.00  0.00     0.047 A 
HETATM    7  C   UNL     1      42.794 -10.392   7.503  1.00  0.00     0.053 A 
HETATM    8  N   UNL     1      43.442 -10.987   8.581  1.00  0.00    -0.308 N 
HETATM    9  C   UNL     1      42.344  -9.081   7.617  1.00  0.00     0.059 A 
HETATM   10  C   UNL     1      43.713 -10.346   9.759  1.00  0.00     0.329 A 
HETATM   11  H   UNL     1      43.774 -11.943   8.542  1.00  0.00     0.170 HD
HETATM   12  N   UNL     1      43.317  -9.023   9.854  1.00  0.00    -0.266 N 
HETATM   13  O   UNL     1      44.288 -10.969  10.649  1.00  0.00    -0.246 OA
HETATM   14  C   UNL     1      42.589  -8.353   8.876  1.00  0.00     0.264 A 
HETATM   15  O   UNL     1      42.152  -7.211   8.992  1.00  0.00    -0.267 OA
HETATM   16  C   UNL     1      41.706  -8.459   6.539  1.00  0.00     0.020 A 
HETATM   17  C   UNL     1      41.546  -9.151   5.338  1.00  0.00     0.018 A 
BRANCH  12  18
HETATM   18  C   UNL     1      43.630  -8.298  11.083  1.00  0.00     0.137 C 
BRANCH  18  19
HETATM   19  C   UNL     1      42.474  -8.344  12.086  1.00  0.00     0.020 C 
BRANCH  19  20
HETATM   20  C   UNL     1      42.959  -7.993  13.493  1.00  0.00     0.001 C 
BRANCH  20  21
HETATM   21  C   UNL     1      41.916  -7.181  14.260  1.00  0.00    -0.004 C 
HETATM   22  C   UNL     1      42.423  -6.786  15.637  1.00  0.00     0.005 C 
ENDBRANCH  20  21
ENDBRANCH  19  20
ENDBRANCH  18  19
ENDBRANCH  12  18
ENDBRANCH   1   5
BRANCH   2  23
HETATM   23  C   UNL     1      40.354 -12.170   2.223  1.00  0.00     0.150 C 
BRANCH  23  24
HETATM   24  C   UNL     1      40.206 -13.681   2.534  1.00  0.00     0.254 C 
BRANCH  24  25
HETATM   25  N   UNL     1      41.522 -14.386   2.734  1.00  0.00    -0.067 N 
HETATM   26  H   UNL     1      42.240 -13.633   2.781  1.00  0.00     0.280 HD
HETATM   27  C   UNL     1      41.669 -15.148   4.047  1.00  0.00     0.254 C 
HETATM   28  C   UNL     1      43.117 -15.658   4.199  1.00  0.00     0.150 C 
HETATM   29  N   UNL     1      43.512 -16.473   3.038  1.00  0.00    -0.378 N 
HETATM   30  C   UNL     1      43.363 -15.799   1.732  1.00  0.00     0.150 C 
HETATM   31  C   UNL     1      41.923 -15.264   1.553  1.00  0.00     0.254 C 
BRANCH  29  32
HETATM   32  C   UNL     1      43.531 -17.861   3.093  1.00  0.00     0.031 A 
HETATM   33  C   UNL     1      43.897 -18.574   4.245  1.00  0.00     0.053 A 
HETATM   34  C   UNL     1      43.938 -19.974   4.258  1.00  0.00     0.036 A 
HETATM   35 CL   UNL     1      44.384 -20.793   5.704  1.00  0.00    -0.084 Cl
HETATM   36  C   UNL     1      43.623 -20.704   3.120  1.00  0.00     0.024 A 
HETATM   37  C   UNL     1      43.269 -20.026   1.960  1.00  0.00     0.004 A 
HETATM   38  C   UNL     1      43.227 -18.627   1.952  1.00  0.00     0.029 A 
ENDBRANCH  29  32
ENDBRANCH  24  25
ENDBRANCH  23  24
ENDBRANCH   2  23
TORSDOF 9
ENDMDL
MODEL 9
REMARK VINA RESULT:      -8.1      3.590     10.898
REMARK  9 active torsions:
REMARK  status: ('A' for Active; 'I' for Inactive)
REMARK    1  A    between atoms: C_2  and  C_3 
REMARK    2  A    between atoms: C_3  and  C_4 
REMARK    3  A    between atoms: C_4  and  C_5 
REMARK    4  A    between atoms: C_5  and  N_6 
REMARK    5  A    between atoms: C_15  and  C_16 
REMARK       I    between atoms: C_16  and  N_17 
REMARK    6  A    between atoms: N_17  and  C_18 
REMARK    7  A    between atoms: C_18  and  C_19 
REMARK    8  A    between atoms: C_19  and  N_20 
REMARK    9  A    between atoms: N_24  and  C_25 
ROOT
HETATM    1  C   UNL     1      43.609 -10.449   7.579  1.00  0.00     0.251 C 
HETATM    2  N   UNL     1      44.348 -10.752   8.700  1.00  0.00    -0.355 N 
HETATM    3  O   UNL     1      43.092  -9.349   7.409  1.00  0.00    -0.268 OA
HETATM    4  H   UNL     1      44.767 -11.674   8.753  1.00  0.00     0.162 HD
ENDROOT
BRANCH   1   5
HETATM    5  C   UNL     1      43.454 -11.507   6.552  1.00  0.00     0.034 A 
HETATM    6  C   UNL     1      43.343 -12.859   6.907  1.00  0.00     0.047 A 
HETATM    7  C   UNL     1      43.071 -13.805   5.915  1.00  0.00     0.053 A 
HETATM    8  N   UNL     1      42.920 -15.147   6.254  1.00  0.00    -0.308 N 
HETATM    9  C   UNL     1      42.924 -13.416   4.588  1.00  0.00     0.059 A 
HETATM   10  C   UNL     1      42.586 -16.128   5.361  1.00  0.00     0.329 A 
HETATM   11  H   UNL     1      43.030 -15.471   7.206  1.00  0.00     0.170 HD
HETATM   12  N   UNL     1      42.382 -15.735   4.049  1.00  0.00    -0.266 N 
HETATM   13  O   UNL     1      42.483 -17.283   5.768  1.00  0.00    -0.246 OA
HETATM   14  C   UNL     1      42.589 -14.440   3.581  1.00  0.00     0.264 A 
HETATM   15  O   UNL     1      42.503 -14.103   2.403  1.00  0.00    -0.267 OA
HETATM   16  C   UNL     1      43.054 -12.071   4.230  1.00  0.00     0.020 A 
HETATM   17  C   UNL     1      43.308 -11.115   5.214  1.00  0.00     0.018 A 
BRANCH  12  18
HETATM   18  C   UNL     1      41.984 -16.751   3.080  1.00  0.00     0.137 C 
BRANCH  18  19
HETATM   19  C   UNL     1      43.163 -17.223   2.225  1.00  0.00     0.020 C 
BRANCH  19  20
HETATM   20  C   UNL     1      43.883 -18.397   2.889  1.00  0.00     0.001 C 
BRANCH  20  21
HETATM   21  C   UNL     1      43.425 -19.735   2.311  1.00  0.00    -0.004 C 
HETATM   22  C   UNL     1      43.790 -20.890   3.229  1.00  0.00     0.005 C 
ENDBRANCH  20  21
ENDBRANCH  19  20
ENDBRANCH  18  19
ENDBRANCH  12  18
ENDBRANCH   1   5
BRANCH   2  23
HETATM   23  C   UNL     1      44.336  -9.970   9.937  1.00  0.00     0.150 C 
BRANCH  23  24
HETATM   24  C   UNL     1      43.598 -10.574  11.158  1.00  0.00     0.254 C 
BRANCH  24  25
HETATM   25  N   UNL     1      42.149 -10.172  11.245  1.00  0.00    -0.067 N 
HETATM   26  H   UNL     1      41.628 -10.872  10.676  1.00  0.00     0.280 HD
HETATM   27  C   UNL     1      41.524 -10.256  12.635  1.00  0.00     0.254 C 
HETATM   28  C   UNL     1      40.005 -10.000  12.544  1.00  0.00     0.150 C 
HETATM   29  N   UNL     1      39.728  -8.712  11.888  1.00  0.00    -0.378 N 
HETATM   30  C   UNL     1      40.333  -8.558  10.549  1.00  0.00     0.150 C 
HETATM   31  C   UNL     1      41.856  -8.820  10.603  1.00  0.00     0.254 C 
BRANCH  29  32
HETATM   32  C   UNL     1      39.384  -7.580  12.617  1.00  0.00     0.031 A 
HETATM   33  C   UNL     1      40.310  -6.859  13.387  1.00  0.00     0.053 A 
HETATM   34  C   UNL     1      39.925  -5.741  14.138  1.00  0.00     0.036 A 
HETATM   35 CL   UNL     1      41.108  -4.891  15.055  1.00  0.00    -0.084 Cl
HETATM   36  C   UNL     1      38.604  -5.313  14.148  1.00  0.00     0.024 A 
HETATM   37  C   UNL     1      37.662  -6.013  13.405  1.00  0.00     0.004 A 
HETATM   38  C   UNL     1      38.052  -7.129  12.655  1.00  0.00     0.029 A 
ENDBRANCH  29  32
ENDBRANCH  24  25
ENDBRANCH  23  24
ENDBRANCH   2  23
TORSDOF 9
ENDMDL
MODEL 10
REMARK VINA RESULT:      -8.1      3.445     11.372
REMARK  9 active torsions:
REMARK  status: ('A' for Active; 'I' for Inactive)
REMARK    1  A    between atoms: C_2  and  C_3 
REMARK    2  A    between atoms: C_3  and  C_4 
REMARK    3  A    between atoms: C_4  and  C_5 
REMARK    4  A    between atoms: C_5  and  N_6 
REMARK    5  A    between atoms: C_15  and  C_16 
REMARK       I    between atoms: C_16  and  N_17 
REMARK    6  A    between atoms: N_17  and  C_18 
REMARK    7  A    between atoms: C_18  and  C_19 
REMARK    8  A    between atoms: C_19  and  N_20 
REMARK    9  A    between atoms: N_24  and  C_25 
ROOT
HETATM    1  C   UNL     1      43.991 -11.445   7.158  1.00  0.00     0.251 C 
HETATM    2  N   UNL     1      43.126 -10.845   8.043  1.00  0.00    -0.355 N 
HETATM    3  O   UNL     1      45.103 -10.988   6.911  1.00  0.00    -0.268 OA
HETATM    4  H   UNL     1      42.235 -11.300   8.215  1.00  0.00     0.162 HD
ENDROOT
BRANCH   1   5
HETATM    5  C   UNL     1      43.540 -12.693   6.497  1.00  0.00     0.034 A 
HETATM    6  C   UNL     1      43.241 -12.728   5.127  1.00  0.00     0.047 A 
HETATM    7  C   UNL     1      42.944 -13.953   4.523  1.00  0.00     0.053 A 
HETATM    8  N   UNL     1      42.682 -14.012   3.158  1.00  0.00    -0.308 N 
HETATM    9  C   UNL     1      42.931 -15.125   5.272  1.00  0.00     0.059 A 
HETATM   10  C   UNL     1      42.449 -15.174   2.473  1.00  0.00     0.329 A 
HETATM   11  H   UNL     1      42.670 -13.180   2.581  1.00  0.00     0.170 HD
HETATM   12  N   UNL     1      42.493 -16.348   3.205  1.00  0.00    -0.266 N 
HETATM   13  O   UNL     1      42.224 -15.110   1.267  1.00  0.00    -0.246 OA
HETATM   14  C   UNL     1      42.660 -16.402   4.586  1.00  0.00     0.264 A 
HETATM   15  O   UNL     1      42.605 -17.431   5.254  1.00  0.00    -0.267 OA
HETATM   16  C   UNL     1      43.209 -15.089   6.642  1.00  0.00     0.020 A 
HETATM   17  C   UNL     1      43.525 -13.874   7.251  1.00  0.00     0.018 A 
BRANCH  12  18
HETATM   18  C   UNL     1      42.290 -17.608   2.496  1.00  0.00     0.137 C 
BRANCH  18  19
HETATM   19  C   UNL     1      43.557 -18.466   2.476  1.00  0.00     0.020 C 
BRANCH  19  20
HETATM   20  C   UNL     1      43.228 -19.918   2.127  1.00  0.00     0.001 C 
BRANCH  20  21
HETATM   21  C   UNL     1      44.071 -20.896   2.945  1.00  0.00    -0.004 C 
HETATM   22  C   UNL     1      43.893 -20.669   4.437  1.00  0.00     0.005 C 
ENDBRANCH  20  21
ENDBRANCH  19  20
ENDBRANCH  18  19
ENDBRANCH  12  18
ENDBRANCH   1   5
BRANCH   2  23
HETATM   23  C   UNL     1      43.258  -9.470   8.529  1.00  0.00     0.150 C 
BRANCH  23  24
HETATM   24  C   UNL     1      42.086  -8.888   9.358  1.00  0.00     0.254 C 
BRANCH  24  25
HETATM   25  N   UNL     1      42.278  -9.015  10.846  1.00  0.00    -0.067 N 
HETATM   26  H   UNL     1      43.000  -9.756  10.974  1.00  0.00     0.280 HD
HETATM   27  C   UNL     1      42.853  -7.786  11.544  1.00  0.00     0.254 C 
HETATM   28  C   UNL     1      43.170  -8.118  13.017  1.00  0.00     0.150 C 
HETATM   29  N   UNL     1      41.979  -8.641  13.706  1.00  0.00    -0.378 N 
HETATM   30  C   UNL     1      41.358  -9.816  13.060  1.00  0.00     0.150 C 
HETATM   31  C   UNL     1      41.038  -9.519  11.576  1.00  0.00     0.254 C 
BRANCH  29  32
HETATM   32  C   UNL     1      41.219  -7.846  14.555  1.00  0.00     0.031 A 
HETATM   33  C   UNL     1      41.261  -7.965  15.952  1.00  0.00     0.053 A 
HETATM   34  C   UNL     1      40.457  -7.171  16.779  1.00  0.00     0.036 A 
HETATM   35 CL   UNL     1      40.560  -7.355  18.488  1.00  0.00    -0.084 Cl
HETATM   36  C   UNL     1      39.582  -6.239  16.237  1.00  0.00     0.024 A 
HETATM   37  C   UNL     1      39.509  -6.107  14.856  1.00  0.00     0.004 A 
HETATM   38  C   UNL     1      40.316  -6.902  14.033  1.00  0.00     0.029 A 
ENDBRANCH  29  32
ENDBRANCH  24  25
ENDBRANCH  23  24
ENDBRANCH   2  23
TORSDOF 9
ENDMDL
