MODEL 1
REMARK VINA RESULT:      -8.5      0.000      0.000
REMARK  5 active torsions:
REMARK  status: ('A' for Active; 'I' for Inactive)
REMARK    1  A    between atoms: C_2  and  C_3 
REMARK    2  A    between atoms: C_2  and  C_18 
REMARK       I    between atoms: C_3  and  N_4 
REMARK    3  A    between atoms: N_4  and  C_5 
REMARK    4  A    between atoms: C_7  and  C_8 
REMARK    5  A    between atoms: C_18  and  C_19 
ROOT
HETATM    1  C   UNL     1      42.578 -15.276   3.038  1.00  0.00     0.226 C 
HETATM    2  N   UNL     1      41.285 -14.914   2.713  1.00  0.00    -0.327 N 
HETATM    3  O   UNL     1      43.565 -15.104   2.323  1.00  0.00    -0.273 OA
HETATM    4  H   UNL     1      40.539 -15.334   3.249  1.00  0.00     0.169 HD
ENDROOT
BRANCH   2   5
HETATM    5  C   UNL     1      40.873 -14.125   1.617  1.00  0.00     0.035 A 
HETATM    6  C   UNL     1      40.217 -14.639   0.494  1.00  0.00     0.042 A 
HETATM    7  C   UNL     1      39.889 -13.812  -0.595  1.00  0.00    -0.021 A 
HETATM    8  C   UNL     1      40.219 -12.452  -0.537  1.00  0.00     0.012 A 
HETATM    9  C   UNL     1      40.868 -11.930   0.581  1.00  0.00     0.003 A 
HETATM   10  C   UNL     1      41.201 -12.764   1.648  1.00  0.00     0.029 A 
BRANCH   7  11
HETATM   11  C   UNL     1      39.247 -14.352  -1.782  1.00  0.00     0.010 A 
HETATM   12  C   UNL     1      38.931 -13.746  -3.021  1.00  0.00     0.152 A 
HETATM   13  N   UNL     1      38.329 -14.583  -3.871  1.00  0.00    -0.187 NA
HETATM   14  N   UNL     1      38.260 -15.732  -3.178  1.00  0.00    -0.289 N 
HETATM   15  H   UNL     1      37.833 -16.537  -3.624  1.00  0.00     0.188 HD
HETATM   16  C   UNL     1      38.791 -15.645  -1.925  1.00  0.00     0.123 A 
ENDBRANCH   7  11
ENDBRANCH   2   5
BRANCH   1  17
HETATM   17  C   UNL     1      42.765 -15.832   4.452  1.00  0.00     0.078 C 
HETATM   18  C   UNL     1      41.474 -16.549   4.855  1.00  0.00     0.020 C 
BRANCH  17  19
HETATM   19  C   UNL     1      43.969 -16.765   4.663  1.00  0.00     0.052 C 
BRANCH  19  20
HETATM   20  C   UNL     1      43.857 -18.199   4.200  1.00  0.00    -0.057 A 
HETATM   21  C   UNL     1      43.684 -18.563   2.860  1.00  0.00     0.007 A 
HETATM   22  C   UNL     1      43.642 -19.910   2.487  1.00  0.00     0.001 A 
HETATM   23  C   UNL     1      43.787 -20.909   3.446  1.00  0.00     0.000 A 
HETATM   24  C   UNL     1      43.975 -20.564   4.781  1.00  0.00     0.001 A 
HETATM   25  C   UNL     1      44.013 -19.220   5.154  1.00  0.00     0.007 A 
ENDBRANCH  19  20
ENDBRANCH  17  19
ENDBRANCH   1  17
TORSDOF 5
ENDMDL
MODEL 2
REMARK VINA RESULT:      -8.2      2.482      7.771
REMARK  5 active torsions:
REMARK  status: ('A' for Active; 'I' for Inactive)
REMARK    1  A    between atoms: C_2  and  C_3 
REMARK    2  A    between atoms: C_2  and  C_18 
REMARK       I    between atoms: C_3  and  N_4 
REMARK    3  A    between atoms: N_4  and  C_5 
REMARK    4  A    between atoms: C_7  and  C_8 
REMARK    5  A    between atoms: C_18  and  C_19 
ROOT
HETATM    1  C   UNL     1      41.241 -14.273   2.199  1.00  0.00     0.226 C 
HETATM    2  N   UNL     1      41.283 -14.828   3.463  1.00  0.00    -0.327 N 
HETATM    3  O   UNL     1      42.164 -14.290   1.384  1.00  0.00    -0.273 OA
HETATM    4  H   UNL     1      40.579 -14.528   4.123  1.00  0.00     0.169 HD
ENDROOT
BRANCH   2   5
HETATM    5  C   UNL     1      42.286 -15.669   3.990  1.00  0.00     0.035 A 
HETATM    6  C   UNL     1      42.524 -16.971   3.537  1.00  0.00     0.042 A 
HETATM    7  C   UNL     1      43.497 -17.784   4.147  1.00  0.00    -0.021 A 
HETATM    8  C   UNL     1      44.241 -17.265   5.214  1.00  0.00     0.012 A 
HETATM    9  C   UNL     1      44.014 -15.967   5.668  1.00  0.00     0.003 A 
HETATM   10  C   UNL     1      43.036 -15.176   5.065  1.00  0.00     0.029 A 
BRANCH   7  11
HETATM   11  C   UNL     1      43.715 -19.151   3.707  1.00  0.00     0.010 A 
HETATM   12  C   UNL     1      43.622 -19.737   2.422  1.00  0.00     0.152 A 
HETATM   13  N   UNL     1      43.897 -21.044   2.425  1.00  0.00    -0.187 NA
HETATM   14  N   UNL     1      44.169 -21.301   3.715  1.00  0.00    -0.289 N 
HETATM   15  H   UNL     1      44.413 -22.251   3.974  1.00  0.00     0.188 HD
HETATM   16  C   UNL     1      44.072 -20.205   4.521  1.00  0.00     0.123 A 
ENDBRANCH   7  11
ENDBRANCH   2   5
BRANCH   1  17
HETATM   17  C   UNL     1      39.885 -13.697   1.781  1.00  0.00     0.078 C 
HETATM   18  C   UNL     1      39.285 -12.974   2.989  1.00  0.00     0.020 C 
BRANCH  17  19
HETATM   19  C   UNL     1      39.889 -12.763   0.560  1.00  0.00     0.052 C 
BRANCH  19  20
HETATM   20  C   UNL     1      39.260 -13.255  -0.723  1.00  0.00    -0.057 A 
HETATM   21  C   UNL     1      39.591 -14.475  -1.324  1.00  0.00     0.007 A 
HETATM   22  C   UNL     1      38.935 -14.901  -2.482  1.00  0.00     0.001 A 
HETATM   23  C   UNL     1      37.930 -14.120  -3.047  1.00  0.00     0.000 A 
HETATM   24  C   UNL     1      37.578 -12.911  -2.455  1.00  0.00     0.001 A 
HETATM   25  C   UNL     1      38.235 -12.484  -1.301  1.00  0.00     0.007 A 
ENDBRANCH  19  20
ENDBRANCH  17  19
ENDBRANCH   1  17
TORSDOF 5
ENDMDL
MODEL 3
REMARK VINA RESULT:      -8.2      4.019      6.957
REMARK  5 active torsions:
REMARK  status: ('A' for Active; 'I' for Inactive)
REMARK    1  A    between atoms: C_2  and  C_3 
REMARK    2  A    between atoms: C_2  and  C_18 
REMARK       I    between atoms: C_3  and  N_4 
REMARK    3  A    between atoms: N_4  and  C_5 
REMARK    4  A    between atoms: C_7  and  C_8 
REMARK    5  A    between atoms: C_18  and  C_19 
ROOT
HETATM    1  C   UNL     1      41.813 -15.591   3.924  1.00  0.00     0.226 C 
HETATM    2  N   UNL     1      42.334 -14.333   3.696  1.00  0.00    -0.327 N 
HETATM    3  O   UNL     1      41.382 -15.997   5.003  1.00  0.00    -0.273 OA
HETATM    4  H   UNL     1      42.887 -14.206   2.859  1.00  0.00     0.169 HD
ENDROOT
BRANCH   2   5
HETATM    5  C   UNL     1      42.302 -13.227   4.572  1.00  0.00     0.035 A 
HETATM    6  C   UNL     1      43.432 -12.717   5.222  1.00  0.00     0.042 A 
HETATM    7  C   UNL     1      43.324 -11.653   6.134  1.00  0.00    -0.021 A 
HETATM    8  C   UNL     1      42.063 -11.095   6.379  1.00  0.00     0.012 A 
HETATM    9  C   UNL     1      40.933 -11.593   5.733  1.00  0.00     0.003 A 
HETATM   10  C   UNL     1      41.050 -12.659   4.842  1.00  0.00     0.029 A 
BRANCH   7  11
HETATM   11  C   UNL     1      44.490 -11.151   6.843  1.00  0.00     0.010 A 
HETATM   12  C   UNL     1      44.610 -10.547   8.116  1.00  0.00     0.152 A 
HETATM   13  N   UNL     1      45.868 -10.213   8.417  1.00  0.00    -0.187 NA
HETATM   14  N   UNL     1      46.560 -10.606   7.335  1.00  0.00    -0.289 N 
HETATM   15  H   UNL     1      47.564 -10.456   7.326  1.00  0.00     0.188 HD
HETATM   16  C   UNL     1      45.783 -11.170   6.366  1.00  0.00     0.123 A 
ENDBRANCH   7  11
ENDBRANCH   2   5
BRANCH   1  17
HETATM   17  C   UNL     1      41.681 -16.479   2.684  1.00  0.00     0.078 C 
HETATM   18  C   UNL     1      41.057 -15.642   1.565  1.00  0.00     0.020 C 
BRANCH  17  19
HETATM   19  C   UNL     1      42.974 -17.144   2.181  1.00  0.00     0.052 C 
BRANCH  19  20
HETATM   20  C   UNL     1      43.430 -18.422   2.846  1.00  0.00    -0.057 A 
HETATM   21  C   UNL     1      43.899 -18.478   4.164  1.00  0.00     0.007 A 
HETATM   22  C   UNL     1      44.256 -19.700   4.742  1.00  0.00     0.001 A 
HETATM   23  C   UNL     1      44.134 -20.883   4.016  1.00  0.00     0.000 A 
HETATM   24  C   UNL     1      43.656 -20.846   2.710  1.00  0.00     0.001 A 
HETATM   25  C   UNL     1      43.303 -19.626   2.132  1.00  0.00     0.007 A 
ENDBRANCH  19  20
ENDBRANCH  17  19
ENDBRANCH   1  17
TORSDOF 5
ENDMDL
MODEL 4
REMARK VINA RESULT:      -8.2      2.589      7.454
REMARK  5 active torsions:
REMARK  status: ('A' for Active; 'I' for Inactive)
REMARK    1  A    between atoms: C_2  and  C_3 
REMARK    2  A    between atoms: C_2  and  C_18 
REMARK       I    between atoms: C_3  and  N_4 
REMARK    3  A    between atoms: N_4  and  C_5 
REMARK    4  A    between atoms: C_7  and  C_8 
REMARK    5  A    between atoms: C_18  and  C_19 
ROOT
HETATM    1  C   UNL     1      40.788 -14.963   0.791  1.00  0.00     0.226 C 
HETATM    2  N   UNL     1      42.109 -14.982   1.192  1.00  0.00    -0.327 N 
HETATM    3  O   UNL     1      39.901 -15.693   1.232  1.00  0.00    -0.273 OA
HETATM    4  H   UNL     1      42.783 -14.533   0.587  1.00  0.00     0.169 HD
ENDROOT
BRANCH   2   5
HETATM    5  C   UNL     1      42.655 -15.682   2.290  1.00  0.00     0.035 A 
HETATM    6  C   UNL     1      42.966 -17.046   2.264  1.00  0.00     0.042 A 
HETATM    7  C   UNL     1      43.447 -17.701   3.411  1.00  0.00    -0.021 A 
HETATM    8  C   UNL     1      43.626 -16.963   4.588  1.00  0.00     0.012 A 
HETATM    9  C   UNL     1      43.323 -15.602   4.622  1.00  0.00     0.003 A 
HETATM   10  C   UNL     1      42.832 -14.968   3.481  1.00  0.00     0.029 A 
BRANCH   7  11
HETATM   11  C   UNL     1      43.729 -19.126   3.399  1.00  0.00     0.010 A 
HETATM   12  C   UNL     1      43.622 -20.082   2.361  1.00  0.00     0.152 A 
HETATM   13  N   UNL     1      43.974 -21.312   2.747  1.00  0.00    -0.187 NA
HETATM   14  N   UNL     1      44.310 -21.147   4.038  1.00  0.00    -0.289 N 
HETATM   15  H   UNL     1      44.619 -21.959   4.561  1.00  0.00     0.188 HD
HETATM   16  C   UNL     1      44.178 -19.861   4.475  1.00  0.00     0.123 A 
ENDBRANCH   7  11
ENDBRANCH   2   5
BRANCH   1  17
HETATM   17  C   UNL     1      40.422 -13.859  -0.205  1.00  0.00     0.078 C 
HETATM   18  C   UNL     1      39.427 -14.440  -1.212  1.00  0.00     0.020 C 
BRANCH  17  19
HETATM   19  C   UNL     1      39.860 -12.559   0.395  1.00  0.00     0.052 C 
BRANCH  19  20
HETATM   20  C   UNL     1      40.436 -12.063   1.701  1.00  0.00    -0.057 A 
HETATM   21  C   UNL     1      39.819 -12.268   2.941  1.00  0.00     0.007 A 
HETATM   22  C   UNL     1      40.428 -11.833   4.121  1.00  0.00     0.001 A 
HETATM   23  C   UNL     1      41.668 -11.200   4.080  1.00  0.00     0.000 A 
HETATM   24  C   UNL     1      42.302 -11.002   2.857  1.00  0.00     0.001 A 
HETATM   25  C   UNL     1      41.692 -11.433   1.678  1.00  0.00     0.007 A 
ENDBRANCH  19  20
ENDBRANCH  17  19
ENDBRANCH   1  17
TORSDOF 5
ENDMDL
MODEL 5
REMARK VINA RESULT:      -8.0      5.625      8.677
REMARK  5 active torsions:
REMARK  status: ('A' for Active; 'I' for Inactive)
REMARK    1  A    between atoms: C_2  and  C_3 
REMARK    2  A    between atoms: C_2  and  C_18 
REMARK       I    between atoms: C_3  and  N_4 
REMARK    3  A    between atoms: N_4  and  C_5 
REMARK    4  A    between atoms: C_7  and  C_8 
REMARK    5  A    between atoms: C_18  and  C_19 
ROOT
HETATM    1  C   UNL     1      43.511 -14.284   5.915  1.00  0.00     0.226 C 
HETATM    2  N   UNL     1      43.702 -12.920   5.808  1.00  0.00    -0.327 N 
HETATM    3  O   UNL     1      43.994 -15.003   6.790  1.00  0.00    -0.273 OA
HETATM    4  H   UNL     1      43.480 -12.491   4.921  1.00  0.00     0.169 HD
ENDROOT
BRANCH   2   5
HETATM    5  C   UNL     1      44.306 -12.069   6.759  1.00  0.00     0.035 A 
HETATM    6  C   UNL     1      43.679 -11.655   7.939  1.00  0.00     0.042 A 
HETATM    7  C   UNL     1      44.309 -10.753   8.815  1.00  0.00    -0.021 A 
HETATM    8  C   UNL     1      45.588 -10.280   8.497  1.00  0.00     0.012 A 
HETATM    9  C   UNL     1      46.222 -10.692   7.326  1.00  0.00     0.003 A 
HETATM   10  C   UNL     1      45.580 -11.575   6.457  1.00  0.00     0.029 A 
BRANCH   7  11
HETATM   11  C   UNL     1      43.642 -10.287  10.019  1.00  0.00     0.010 A 
HETATM   12  C   UNL     1      43.803 -10.666  11.373  1.00  0.00     0.152 A 
HETATM   13  N   UNL     1      42.990 -10.002  12.200  1.00  0.00    -0.187 NA
HETATM   14  N   UNL     1      42.305  -9.192  11.376  1.00  0.00    -0.289 N 
HETATM   15  H   UNL     1      41.610  -8.573  11.780  1.00  0.00     0.188 HD
HETATM   16  C   UNL     1      42.655  -9.325  10.064  1.00  0.00     0.123 A 
ENDBRANCH   7  11
ENDBRANCH   2   5
BRANCH   1  17
HETATM   17  C   UNL     1      42.530 -14.889   4.907  1.00  0.00     0.078 C 
HETATM   18  C   UNL     1      41.459 -13.839   4.600  1.00  0.00     0.020 C 
BRANCH  17  19
HETATM   19  C   UNL     1      43.137 -15.415   3.596  1.00  0.00     0.052 C 
BRANCH  19  20
HETATM   20  C   UNL     1      43.325 -16.906   3.438  1.00  0.00    -0.057 A 
HETATM   21  C   UNL     1      42.909 -17.618   2.307  1.00  0.00     0.007 A 
HETATM   22  C   UNL     1      43.160 -18.989   2.196  1.00  0.00     0.001 A 
HETATM   23  C   UNL     1      43.841 -19.663   3.206  1.00  0.00     0.000 A 
HETATM   24  C   UNL     1      44.274 -18.967   4.331  1.00  0.00     0.001 A 
HETATM   25  C   UNL     1      44.021 -17.600   4.444  1.00  0.00     0.007 A 
ENDBRANCH  19  20
ENDBRANCH  17  19
ENDBRANCH   1  17
TORSDOF 5
ENDMDL
MODEL 6
REMARK VINA RESULT:      -7.9      2.001      2.544
REMARK  5 active torsions:
REMARK  status: ('A' for Active; 'I' for Inactive)
REMARK    1  A    between atoms: C_2  and  C_3 
REMARK    2  A    between atoms: C_2  and  C_18 
REMARK       I    between atoms: C_3  and  N_4 
REMARK    3  A    between atoms: N_4  and  C_5 
REMARK    4  A    between atoms: C_7  and  C_8 
REMARK    5  A    between atoms: C_18  and  C_19 
ROOT
HETATM    1  C   UNL     1      41.303 -15.351   2.395  1.00  0.00     0.226 C 
HETATM    2  N   UNL     1      41.348 -14.047   1.943  1.00  0.00    -0.327 N 
HETATM    3  O   UNL     1      40.300 -15.921   2.822  1.00  0.00    -0.273 OA
HETATM    4  H   UNL     1      42.259 -13.615   1.867  1.00  0.00     0.169 HD
ENDROOT
BRANCH   2   5
HETATM    5  C   UNL     1      40.252 -13.191   1.703  1.00  0.00     0.035 A 
HETATM    6  C   UNL     1      39.614 -13.076   0.463  1.00  0.00     0.042 A 
HETATM    7  C   UNL     1      38.567 -12.158   0.270  1.00  0.00    -0.021 A 
HETATM    8  C   UNL     1      38.157 -11.361   1.346  1.00  0.00     0.012 A 
HETATM    9  C   UNL     1      38.784 -11.472   2.586  1.00  0.00     0.003 A 
HETATM   10  C   UNL     1      39.832 -12.376   2.761  1.00  0.00     0.029 A 
BRANCH   7  11
HETATM   11  C   UNL     1      37.932 -12.006  -1.028  1.00  0.00     0.010 A 
HETATM   12  C   UNL     1      37.267 -10.900  -1.610  1.00  0.00     0.152 A 
HETATM   13  N   UNL     1      36.808 -11.157  -2.838  1.00  0.00    -0.187 NA
HETATM   14  N   UNL     1      37.180 -12.430  -3.049  1.00  0.00    -0.289 N 
HETATM   15  H   UNL     1      36.940 -12.860  -3.936  1.00  0.00     0.188 HD
HETATM   16  C   UNL     1      37.852 -12.982  -1.998  1.00  0.00     0.123 A 
ENDBRANCH   7  11
ENDBRANCH   2   5
BRANCH   1  17
HETATM   17  C   UNL     1      42.603 -16.145   2.232  1.00  0.00     0.078 C 
HETATM   18  C   UNL     1      43.624 -15.246   1.532  1.00  0.00     0.020 C 
BRANCH  17  19
HETATM   19  C   UNL     1      43.211 -16.726   3.519  1.00  0.00     0.052 C 
BRANCH  19  20
HETATM   20  C   UNL     1      43.523 -18.204   3.563  1.00  0.00    -0.057 A 
HETATM   21  C   UNL     1      43.974 -18.862   4.714  1.00  0.00     0.007 A 
HETATM   22  C   UNL     1      44.192 -20.242   4.707  1.00  0.00     0.001 A 
HETATM   23  C   UNL     1      43.949 -20.986   3.555  1.00  0.00     0.000 A 
HETATM   24  C   UNL     1      43.487 -20.351   2.407  1.00  0.00     0.001 A 
HETATM   25  C   UNL     1      43.272 -18.972   2.412  1.00  0.00     0.007 A 
ENDBRANCH  19  20
ENDBRANCH  17  19
ENDBRANCH   1  17
TORSDOF 5
ENDMDL
MODEL 7
REMARK VINA RESULT:      -7.7      6.580      9.541
REMARK  5 active torsions:
REMARK  status: ('A' for Active; 'I' for Inactive)
REMARK    1  A    between atoms: C_2  and  C_3 
REMARK    2  A    between atoms: C_2  and  C_18 
REMARK       I    between atoms: C_3  and  N_4 
REMARK    3  A    between atoms: N_4  and  C_5 
REMARK    4  A    between atoms: C_7  and  C_8 
REMARK    5  A    between atoms: C_18  and  C_19 
ROOT
HETATM    1  C   UNL     1      45.015 -11.252   7.463  1.00  0.00     0.226 C 
HETATM    2  N   UNL     1      43.919 -12.072   7.646  1.00  0.00    -0.327 N 
HETATM    3  O   UNL     1      45.767 -11.276   6.488  1.00  0.00    -0.273 OA
HETATM    4  H   UNL     1      43.544 -12.140   8.582  1.00  0.00     0.169 HD
ENDROOT
BRANCH   2   5
HETATM    5  C   UNL     1      43.341 -12.943   6.697  1.00  0.00     0.035 A 
HETATM    6  C   UNL     1      43.613 -14.314   6.635  1.00  0.00     0.042 A 
HETATM    7  C   UNL     1      43.055 -15.118   5.626  1.00  0.00    -0.021 A 
HETATM    8  C   UNL     1      42.206 -14.528   4.682  1.00  0.00     0.012 A 
HETATM    9  C   UNL     1      41.925 -13.164   4.739  1.00  0.00     0.003 A 
HETATM   10  C   UNL     1      42.497 -12.374   5.736  1.00  0.00     0.029 A 
BRANCH   7  11
HETATM   11  C   UNL     1      43.372 -16.533   5.533  1.00  0.00     0.010 A 
HETATM   12  C   UNL     1      43.256 -17.572   6.488  1.00  0.00     0.152 A 
HETATM   13  N   UNL     1      43.659 -18.756   6.019  1.00  0.00    -0.187 NA
HETATM   14  N   UNL     1      44.034 -18.480   4.759  1.00  0.00    -0.289 N 
HETATM   15  H   UNL     1      44.386 -19.239   4.185  1.00  0.00     0.188 HD
HETATM   16  C   UNL     1      43.884 -17.166   4.422  1.00  0.00     0.123 A 
ENDBRANCH   7  11
ENDBRANCH   2   5
BRANCH   1  17
HETATM   17  C   UNL     1      45.209 -10.170   8.529  1.00  0.00     0.078 C 
HETATM   18  C   UNL     1      46.343  -9.250   8.071  1.00  0.00     0.020 C 
BRANCH  17  19
HETATM   19  C   UNL     1      43.968  -9.334   8.885  1.00  0.00     0.052 C 
BRANCH  19  20
HETATM   20  C   UNL     1      43.560  -9.236  10.337  1.00  0.00    -0.057 A 
HETATM   21  C   UNL     1      43.277  -8.023  10.976  1.00  0.00     0.007 A 
HETATM   22  C   UNL     1      42.851  -8.002  12.307  1.00  0.00     0.001 A 
HETATM   23  C   UNL     1      42.687  -9.192  13.012  1.00  0.00     0.000 A 
HETATM   24  C   UNL     1      42.950 -10.407  12.387  1.00  0.00     0.001 A 
HETATM   25  C   UNL     1      43.379 -10.429  11.059  1.00  0.00     0.007 A 
ENDBRANCH  19  20
ENDBRANCH  17  19
ENDBRANCH   1  17
TORSDOF 5
ENDMDL
MODEL 8
REMARK VINA RESULT:      -7.6      2.854      8.174
REMARK  5 active torsions:
REMARK  status: ('A' for Active; 'I' for Inactive)
REMARK    1  A    between atoms: C_2  and  C_3 
REMARK    2  A    between atoms: C_2  and  C_18 
REMARK       I    between atoms: C_3  and  N_4 
REMARK    3  A    between atoms: N_4  and  C_5 
REMARK    4  A    between atoms: C_7  and  C_8 
REMARK    5  A    between atoms: C_18  and  C_19 
ROOT
HETATM    1  C   UNL     1      39.707 -12.838   2.263  1.00  0.00     0.226 C 
HETATM    2  N   UNL     1      39.465 -14.164   2.561  1.00  0.00    -0.327 N 
HETATM    3  O   UNL     1      40.756 -12.237   2.492  1.00  0.00    -0.273 OA
HETATM    4  H   UNL     1      38.501 -14.468   2.569  1.00  0.00     0.169 HD
ENDROOT
BRANCH   2   5
HETATM    5  C   UNL     1      40.405 -15.123   2.996  1.00  0.00     0.035 A 
HETATM    6  C   UNL     1      40.891 -15.195   4.306  1.00  0.00     0.042 A 
HETATM    7  C   UNL     1      41.876 -16.132   4.662  1.00  0.00    -0.021 A 
HETATM    8  C   UNL     1      42.361 -17.011   3.686  1.00  0.00     0.012 A 
HETATM    9  C   UNL     1      41.880 -16.950   2.379  1.00  0.00     0.003 A 
HETATM   10  C   UNL     1      40.913 -16.004   2.034  1.00  0.00     0.029 A 
BRANCH   7  11
HETATM   11  C   UNL     1      42.413 -16.180   6.012  1.00  0.00     0.010 A 
HETATM   12  C   UNL     1      42.418 -15.209   7.041  1.00  0.00     0.152 A 
HETATM   13  N   UNL     1      43.022 -15.633   8.155  1.00  0.00    -0.187 NA
HETATM   14  N   UNL     1      43.407 -16.882   7.842  1.00  0.00    -0.289 N 
HETATM   15  H   UNL     1      43.898 -17.423   8.545  1.00  0.00     0.188 HD
HETATM   16  C   UNL     1      43.069 -17.254   6.574  1.00  0.00     0.123 A 
ENDBRANCH   7  11
ENDBRANCH   2   5
BRANCH   1  17
HETATM   17  C   UNL     1      38.592 -12.127   1.489  1.00  0.00     0.078 C 
HETATM   18  C   UNL     1      38.183 -10.884   2.283  1.00  0.00     0.020 C 
BRANCH  17  19
HETATM   19  C   UNL     1      38.912 -11.739   0.036  1.00  0.00     0.052 C 
BRANCH  19  20
HETATM   20  C   UNL     1      38.607 -12.736  -1.058  1.00  0.00    -0.057 A 
HETATM   21  C   UNL     1      37.549 -12.586  -1.962  1.00  0.00     0.007 A 
HETATM   22  C   UNL     1      37.351 -13.516  -2.987  1.00  0.00     0.001 A 
HETATM   23  C   UNL     1      38.216 -14.598  -3.131  1.00  0.00     0.000 A 
HETATM   24  C   UNL     1      39.281 -14.753  -2.250  1.00  0.00     0.001 A 
HETATM   25  C   UNL     1      39.477 -13.828  -1.224  1.00  0.00     0.007 A 
ENDBRANCH  19  20
ENDBRANCH  17  19
ENDBRANCH   1  17
TORSDOF 5
ENDMDL
MODEL 9
REMARK VINA RESULT:      -7.6      4.364      7.899
REMARK  5 active torsions:
REMARK  status: ('A' for Active; 'I' for Inactive)
REMARK    1  A    between atoms: C_2  and  C_3 
REMARK    2  A    between atoms: C_2  and  C_18 
REMARK       I    between atoms: C_3  and  N_4 
REMARK    3  A    between atoms: N_4  and  C_5 
REMARK    4  A    between atoms: C_7  and  C_8 
REMARK    5  A    between atoms: C_18  and  C_19 
ROOT
HETATM    1  C   UNL     1      41.732 -12.522   4.156  1.00  0.00     0.226 C 
HETATM    2  N   UNL     1      42.878 -13.143   3.701  1.00  0.00    -0.327 N 
HETATM    3  O   UNL     1      40.599 -13.001   4.113  1.00  0.00    -0.273 OA
HETATM    4  H   UNL     1      43.690 -12.561   3.548  1.00  0.00     0.169 HD
ENDROOT
BRANCH   2   5
HETATM    5  C   UNL     1      43.010 -14.486   3.286  1.00  0.00     0.035 A 
HETATM    6  C   UNL     1      43.144 -15.562   4.171  1.00  0.00     0.042 A 
HETATM    7  C   UNL     1      43.338 -16.871   3.695  1.00  0.00    -0.021 A 
HETATM    8  C   UNL     1      43.383 -17.090   2.313  1.00  0.00     0.012 A 
HETATM    9  C   UNL     1      43.245 -16.025   1.424  1.00  0.00     0.003 A 
HETATM   10  C   UNL     1      43.069 -14.729   1.909  1.00  0.00     0.029 A 
BRANCH   7  11
HETATM   11  C   UNL     1      43.520 -17.983   4.613  1.00  0.00     0.010 A 
HETATM   12  C   UNL     1      44.035 -19.284   4.400  1.00  0.00     0.152 A 
HETATM   13  N   UNL     1      44.037 -20.031   5.508  1.00  0.00    -0.187 NA
HETATM   14  N   UNL     1      43.525 -19.207   6.437  1.00  0.00    -0.289 N 
HETATM   15  H   UNL     1      43.425 -19.556   7.385  1.00  0.00     0.188 HD
HETATM   16  C   UNL     1      43.198 -17.974   5.953  1.00  0.00     0.123 A 
ENDBRANCH   7  11
ENDBRANCH   2   5
BRANCH   1  17
HETATM   17  C   UNL     1      41.951 -11.179   4.859  1.00  0.00     0.078 C 
HETATM   18  C   UNL     1      40.736 -10.293   4.576  1.00  0.00     0.020 C 
BRANCH  17  19
HETATM   19  C   UNL     1      42.216 -11.237   6.373  1.00  0.00     0.052 C 
BRANCH  19  20
HETATM   20  C   UNL     1      43.566 -10.791   6.884  1.00  0.00    -0.057 A 
HETATM   21  C   UNL     1      43.728  -9.829   7.888  1.00  0.00     0.007 A 
HETATM   22  C   UNL     1      45.003  -9.497   8.357  1.00  0.00     0.001 A 
HETATM   23  C   UNL     1      46.129 -10.132   7.840  1.00  0.00     0.000 A 
HETATM   24  C   UNL     1      45.984 -11.101   6.852  1.00  0.00     0.001 A 
HETATM   25  C   UNL     1      44.713 -11.430   6.381  1.00  0.00     0.007 A 
ENDBRANCH  19  20
ENDBRANCH  17  19
ENDBRANCH   1  17
TORSDOF 5
ENDMDL
MODEL 10
REMARK VINA RESULT:      -7.6      6.713      9.851
REMARK  5 active torsions:
REMARK  status: ('A' for Active; 'I' for Inactive)
REMARK    1  A    between atoms: C_2  and  C_3 
REMARK    2  A    between atoms: C_2  and  C_18 
REMARK       I    between atoms: C_3  and  N_4 
REMARK    3  A    between atoms: N_4  and  C_5 
REMARK    4  A    between atoms: C_7  and  C_8 
REMARK    5  A    between atoms: C_18  and  C_19 
ROOT
HETATM    1  C   UNL     1      43.376 -12.650   6.357  1.00  0.00     0.226 C 
HETATM    2  N   UNL     1      43.482 -11.300   6.628  1.00  0.00    -0.327 N 
HETATM    3  O   UNL     1      43.995 -13.542   6.936  1.00  0.00    -0.273 OA
HETATM    4  H   UNL     1      43.135 -10.659   5.928  1.00  0.00     0.169 HD
ENDROOT
BRANCH   2   5
HETATM    5  C   UNL     1      44.149 -10.701   7.718  1.00  0.00     0.035 A 
HETATM    6  C   UNL     1      43.549 -10.462   8.960  1.00  0.00     0.042 A 
HETATM    7  C   UNL     1      44.247  -9.803   9.986  1.00  0.00    -0.021 A 
HETATM    8  C   UNL     1      45.567  -9.395   9.755  1.00  0.00     0.012 A 
HETATM    9  C   UNL     1      46.175  -9.633   8.523  1.00  0.00     0.003 A 
HETATM   10  C   UNL     1      45.466 -10.275   7.507  1.00  0.00     0.029 A 
BRANCH   7  11
HETATM   11  C   UNL     1      43.612  -9.514  11.261  1.00  0.00     0.010 A 
HETATM   12  C   UNL     1      43.501  -8.305  11.988  1.00  0.00     0.152 A 
HETATM   13  N   UNL     1      42.836  -8.448  13.138  1.00  0.00    -0.187 NA
HETATM   14  N   UNL     1      42.516  -9.753  13.150  1.00  0.00    -0.289 N 
HETATM   15  H   UNL     1      41.994 -10.111  13.943  1.00  0.00     0.188 HD
HETATM   16  C   UNL     1      42.958 -10.433  12.054  1.00  0.00     0.123 A 
ENDBRANCH   7  11
ENDBRANCH   2   5
BRANCH   1  17
HETATM   17  C   UNL     1      42.315 -13.028   5.319  1.00  0.00     0.078 C 
HETATM   18  C   UNL     1      41.223 -11.956   5.346  1.00  0.00     0.020 C 
BRANCH  17  19
HETATM   19  C   UNL     1      42.813 -13.233   3.879  1.00  0.00     0.052 C 
BRANCH  19  20
HETATM   20  C   UNL     1      43.013 -14.647   3.383  1.00  0.00    -0.057 A 
HETATM   21  C   UNL     1      43.024 -15.764   4.226  1.00  0.00     0.007 A 
HETATM   22  C   UNL     1      43.159 -17.052   3.700  1.00  0.00     0.001 A 
HETATM   23  C   UNL     1      43.271 -17.242   2.325  1.00  0.00     0.000 A 
HETATM   24  C   UNL     1      43.248 -16.143   1.472  1.00  0.00     0.001 A 
HETATM   25  C   UNL     1      43.117 -14.857   1.996  1.00  0.00     0.007 A 
ENDBRANCH  19  20
ENDBRANCH  17  19
ENDBRANCH   1  17
TORSDOF 5
ENDMDL
