MODEL 1
REMARK VINA RESULT:      -7.7      0.000      0.000
REMARK  5 active torsions:
REMARK  status: ('A' for Active; 'I' for Inactive)
REMARK    1  A    between atoms: C_8  and  N_9 
REMARK       I    between atoms: N_9  and  C_10 
REMARK    2  A    between atoms: C_10  and  C_11 
REMARK    3  A    between atoms: C_11  and  N_12 
REMARK    4  A    between atoms: N_12  and  C_13 
REMARK    5  A    between atoms: C_13  and  C_14 
ROOT
HETATM    1  C   UNL     1      42.121 -15.456   7.002  1.00  0.00     0.372 C 
ENDROOT
BRANCH   1   2
HETATM    2  C   UNL     1      40.889 -14.865   6.303  1.00  0.00     0.250 C 
HETATM    3  N   UNL     1      41.167 -14.370   5.048  1.00  0.00    -0.322 N 
HETATM    4  H   UNL     1      42.121 -14.514   4.731  1.00  0.00     0.169 HD
HETATM    5  O   UNL     1      39.790 -14.926   6.843  1.00  0.00    -0.271 OA
BRANCH   3   6
HETATM    6  C   UNL     1      40.288 -13.749   4.178  1.00  0.00     0.085 A 
HETATM    7  C   UNL     1      39.802 -14.387   3.053  1.00  0.00     0.052 A 
HETATM    8  C   UNL     1      40.008 -15.746   2.498  1.00  0.00     0.072 C 
HETATM    9  N   UNL     1      38.975 -13.488   2.441  1.00  0.00    -0.280 N 
HETATM   10  H   UNL     1      38.436 -13.609   1.591  1.00  0.00     0.189 HD
HETATM   11  N   UNL     1      38.895 -12.313   3.069  1.00  0.00    -0.177 NA
HETATM   12  C   UNL     1      39.698 -12.450   4.134  1.00  0.00     0.079 A 
HETATM   13  C   UNL     1      39.875 -11.277   5.028  1.00  0.00     0.075 C 
ENDBRANCH   3   6
ENDBRANCH   1   2
BRANCH   1  14
HETATM   14  N   UNL     1      42.274 -16.898   6.707  1.00  0.00     0.100 N 
HETATM   15  H   UNL     1      41.622 -17.137   5.952  1.00  0.00     0.317 HD
BRANCH  14  16
HETATM   16  C   UNL     1      43.633 -17.224   6.239  1.00  0.00     0.251 C 
HETATM   17  C   UNL     1      44.675 -16.124   6.494  1.00  0.00     0.048 C 
BRANCH  16  18
HETATM   18  C   UNL     1      43.643 -17.619   4.762  1.00  0.00    -0.002 A 
HETATM   19  C   UNL     1      43.803 -18.938   4.279  1.00  0.00     0.064 A 
HETATM   20 CL   UNL     1      44.079 -20.259   5.376  1.00  0.00    -0.082 Cl
HETATM   21  C   UNL     1      43.731 -19.194   2.896  1.00  0.00     0.056 A 
HETATM   22 CL   UNL     1      43.913 -20.782   2.229  1.00  0.00    -0.083 Cl
HETATM   23  C   UNL     1      43.495 -18.154   1.993  1.00  0.00     0.026 A 
HETATM   24  C   UNL     1      43.337 -16.854   2.455  1.00  0.00     0.002 A 
HETATM   25  C   UNL     1      43.410 -16.590   3.822  1.00  0.00     0.011 A 
ENDBRANCH  16  18
ENDBRANCH  14  16
ENDBRANCH   1  14
TORSDOF 5
ENDMDL
MODEL 2
REMARK VINA RESULT:      -7.4      2.223      3.725
REMARK  5 active torsions:
REMARK  status: ('A' for Active; 'I' for Inactive)
REMARK    1  A    between atoms: C_8  and  N_9 
REMARK       I    between atoms: N_9  and  C_10 
REMARK    2  A    between atoms: C_10  and  C_11 
REMARK    3  A    between atoms: C_11  and  N_12 
REMARK    4  A    between atoms: N_12  and  C_13 
REMARK    5  A    between atoms: C_13  and  C_14 
ROOT
HETATM    1  C   UNL     1      41.116 -14.963   2.862  1.00  0.00     0.372 C 
ENDROOT
BRANCH   1   2
HETATM    2  C   UNL     1      41.098 -13.852   3.921  1.00  0.00     0.250 C 
HETATM    3  N   UNL     1      42.353 -13.540   4.396  1.00  0.00    -0.322 N 
HETATM    4  H   UNL     1      43.117 -14.035   3.947  1.00  0.00     0.169 HD
HETATM    5  O   UNL     1      40.043 -13.300   4.212  1.00  0.00    -0.271 OA
BRANCH   3   6
HETATM    6  C   UNL     1      42.673 -12.612   5.371  1.00  0.00     0.085 A 
HETATM    7  C   UNL     1      43.128 -12.992   6.619  1.00  0.00     0.052 A 
HETATM    8  C   UNL     1      43.405 -14.314   7.230  1.00  0.00     0.072 C 
HETATM    9  N   UNL     1      43.339 -11.833   7.310  1.00  0.00    -0.280 N 
HETATM   10  H   UNL     1      43.680 -11.720   8.258  1.00  0.00     0.189 HD
HETATM   11  N   UNL     1      43.045 -10.730   6.618  1.00  0.00    -0.177 NA
HETATM   12  C   UNL     1      42.628 -11.186   5.427  1.00  0.00     0.079 A 
HETATM   13  C   UNL     1      42.166 -10.193   4.423  1.00  0.00     0.075 C 
ENDBRANCH   3   6
ENDBRANCH   1   2
BRANCH   1  14
HETATM   14  N   UNL     1      41.618 -16.238   3.421  1.00  0.00     0.100 N 
HETATM   15  H   UNL     1      41.025 -16.994   3.063  1.00  0.00     0.317 HD
BRANCH  14  16
HETATM   16  C   UNL     1      43.001 -16.519   2.998  1.00  0.00     0.251 C 
HETATM   17  C   UNL     1      43.355 -16.001   1.594  1.00  0.00     0.048 C 
BRANCH  16  18
HETATM   18  C   UNL     1      43.332 -18.009   3.102  1.00  0.00    -0.002 A 
HETATM   19  C   UNL     1      43.793 -18.654   4.272  1.00  0.00     0.064 A 
HETATM   20 CL   UNL     1      44.095 -17.749   5.727  1.00  0.00    -0.082 Cl
HETATM   21  C   UNL     1      44.005 -20.046   4.270  1.00  0.00     0.056 A 
HETATM   22 CL   UNL     1      44.566 -20.908   5.665  1.00  0.00    -0.083 Cl
HETATM   23  C   UNL     1      43.757 -20.801   3.121  1.00  0.00     0.026 A 
HETATM   24  C   UNL     1      43.304 -20.178   1.965  1.00  0.00     0.002 A 
HETATM   25  C   UNL     1      43.095 -18.800   1.955  1.00  0.00     0.011 A 
ENDBRANCH  16  18
ENDBRANCH  14  16
ENDBRANCH   1  14
TORSDOF 5
ENDMDL
MODEL 3
REMARK VINA RESULT:      -7.3      4.079      5.299
REMARK  5 active torsions:
REMARK  status: ('A' for Active; 'I' for Inactive)
REMARK    1  A    between atoms: C_8  and  N_9 
REMARK       I    between atoms: N_9  and  C_10 
REMARK    2  A    between atoms: C_10  and  C_11 
REMARK    3  A    between atoms: C_11  and  N_12 
REMARK    4  A    between atoms: N_12  and  C_13 
REMARK    5  A    between atoms: C_13  and  C_14 
ROOT
HETATM    1  C   UNL     1      41.154 -13.595   1.356  1.00  0.00     0.372 C 
ENDROOT
BRANCH   1   2
HETATM    2  C   UNL     1      40.569 -12.991   0.073  1.00  0.00     0.250 C 
HETATM    3  N   UNL     1      39.251 -13.333  -0.132  1.00  0.00    -0.322 N 
HETATM    4  H   UNL     1      38.828 -13.880   0.612  1.00  0.00     0.169 HD
HETATM    5  O   UNL     1      41.249 -12.237  -0.615  1.00  0.00    -0.271 OA
BRANCH   3   6
HETATM    6  C   UNL     1      38.450 -12.980  -1.204  1.00  0.00     0.085 A 
HETATM    7  C   UNL     1      38.297 -13.803  -2.303  1.00  0.00     0.052 A 
HETATM    8  C   UNL     1      38.836 -15.141  -2.641  1.00  0.00     0.072 C 
HETATM    9  N   UNL     1      37.451 -13.144  -3.149  1.00  0.00    -0.280 N 
HETATM   10  H   UNL     1      37.106 -13.446  -4.053  1.00  0.00     0.189 HD
HETATM   11  N   UNL     1      37.052 -11.953  -2.696  1.00  0.00    -0.177 NA
HETATM   12  C   UNL     1      37.659 -11.830  -1.506  1.00  0.00     0.079 A 
HETATM   13  C   UNL     1      37.462 -10.567  -0.751  1.00  0.00     0.075 C 
ENDBRANCH   3   6
ENDBRANCH   1   2
BRANCH   1  14
HETATM   14  N   UNL     1      41.919 -14.831   1.077  1.00  0.00     0.100 N 
HETATM   15  H   UNL     1      42.870 -14.702   1.437  1.00  0.00     0.317 HD
BRANCH  14  16
HETATM   16  C   UNL     1      41.341 -16.002   1.759  1.00  0.00     0.251 C 
HETATM   17  C   UNL     1      40.102 -15.694   2.615  1.00  0.00     0.048 C 
BRANCH  16  18
HETATM   18  C   UNL     1      42.385 -16.739   2.599  1.00  0.00    -0.002 A 
HETATM   19  C   UNL     1      42.958 -16.242   3.793  1.00  0.00     0.064 A 
HETATM   20 CL   UNL     1      42.548 -14.659   4.384  1.00  0.00    -0.082 Cl
HETATM   21  C   UNL     1      43.864 -17.038   4.520  1.00  0.00     0.056 A 
HETATM   22 CL   UNL     1      44.604 -16.501   5.992  1.00  0.00    -0.083 Cl
HETATM   23  C   UNL     1      44.200 -18.319   4.077  1.00  0.00     0.026 A 
HETATM   24  C   UNL     1      43.644 -18.817   2.906  1.00  0.00     0.002 A 
HETATM   25  C   UNL     1      42.748 -18.037   2.176  1.00  0.00     0.011 A 
ENDBRANCH  16  18
ENDBRANCH  14  16
ENDBRANCH   1  14
TORSDOF 5
ENDMDL
MODEL 4
REMARK VINA RESULT:      -7.3      2.330      2.983
REMARK  5 active torsions:
REMARK  status: ('A' for Active; 'I' for Inactive)
REMARK    1  A    between atoms: C_8  and  N_9 
REMARK       I    between atoms: N_9  and  C_10 
REMARK    2  A    between atoms: C_10  and  C_11 
REMARK    3  A    between atoms: C_11  and  N_12 
REMARK    4  A    between atoms: N_12  and  C_13 
REMARK    5  A    between atoms: C_13  and  C_14 
ROOT
HETATM    1  C   UNL     1      42.173 -14.504   4.275  1.00  0.00     0.372 C 
ENDROOT
BRANCH   1   2
HETATM    2  C   UNL     1      41.629 -13.444   3.307  1.00  0.00     0.250 C 
HETATM    3  N   UNL     1      40.398 -13.773   2.785  1.00  0.00    -0.322 N 
HETATM    4  H   UNL     1      39.991 -14.628   3.149  1.00  0.00     0.169 HD
HETATM    5  O   UNL     1      42.255 -12.406   3.121  1.00  0.00    -0.271 OA
BRANCH   3   6
HETATM    6  C   UNL     1      39.657 -13.049   1.866  1.00  0.00     0.085 A 
HETATM    7  C   UNL     1      39.542 -13.445   0.547  1.00  0.00     0.052 A 
HETATM    8  C   UNL     1      40.070 -14.608  -0.203  1.00  0.00     0.072 C 
HETATM    9  N   UNL     1      38.752 -12.509  -0.057  1.00  0.00    -0.280 N 
HETATM   10  H   UNL     1      38.445 -12.476  -1.023  1.00  0.00     0.189 HD
HETATM   11  N   UNL     1      38.355 -11.529   0.758  1.00  0.00    -0.177 NA
HETATM   12  C   UNL     1      38.905 -11.838   1.942  1.00  0.00     0.079 A 
HETATM   13  C   UNL     1      38.696 -10.899   3.074  1.00  0.00     0.075 C 
ENDBRANCH   3   6
ENDBRANCH   1   2
BRANCH   1  14
HETATM   14  N   UNL     1      42.047 -15.868   3.714  1.00  0.00     0.100 N 
HETATM   15  H   UNL     1      41.293 -15.855   3.019  1.00  0.00     0.317 HD
BRANCH  14  16
HETATM   16  C   UNL     1      43.278 -16.297   3.027  1.00  0.00     0.251 C 
HETATM   17  C   UNL     1      43.380 -15.844   1.561  1.00  0.00     0.048 C 
BRANCH  16  18
HETATM   18  C   UNL     1      43.479 -17.810   3.120  1.00  0.00    -0.002 A 
HETATM   19  C   UNL     1      43.887 -18.500   4.284  1.00  0.00     0.064 A 
HETATM   20 CL   UNL     1      44.271 -17.635   5.743  1.00  0.00    -0.082 Cl
HETATM   21  C   UNL     1      43.977 -19.906   4.272  1.00  0.00     0.056 A 
HETATM   22 CL   UNL     1      44.466 -20.823   5.659  1.00  0.00    -0.083 Cl
HETATM   23  C   UNL     1      43.660 -20.628   3.119  1.00  0.00     0.026 A 
HETATM   24  C   UNL     1      43.258 -19.961   1.969  1.00  0.00     0.002 A 
HETATM   25  C   UNL     1      43.170 -18.570   1.969  1.00  0.00     0.011 A 
ENDBRANCH  16  18
ENDBRANCH  14  16
ENDBRANCH   1  14
TORSDOF 5
ENDMDL
MODEL 5
REMARK VINA RESULT:      -7.2      2.528      3.678
REMARK  5 active torsions:
REMARK  status: ('A' for Active; 'I' for Inactive)
REMARK    1  A    between atoms: C_8  and  N_9 
REMARK       I    between atoms: N_9  and  C_10 
REMARK    2  A    between atoms: C_10  and  C_11 
REMARK    3  A    between atoms: C_11  and  N_12 
REMARK    4  A    between atoms: N_12  and  C_13 
REMARK    5  A    between atoms: C_13  and  C_14 
ROOT
HETATM    1  C   UNL     1      41.152 -15.196   3.986  1.00  0.00     0.372 C 
ENDROOT
BRANCH   1   2
HETATM    2  C   UNL     1      40.699 -13.987   3.157  1.00  0.00     0.250 C 
HETATM    3  N   UNL     1      41.724 -13.110   2.880  1.00  0.00    -0.322 N 
HETATM    4  H   UNL     1      42.641 -13.404   3.201  1.00  0.00     0.169 HD
HETATM    5  O   UNL     1      39.540 -13.913   2.763  1.00  0.00    -0.271 OA
BRANCH   3   6
HETATM    6  C   UNL     1      41.640 -11.916   2.185  1.00  0.00     0.085 A 
HETATM    7  C   UNL     1      41.898 -10.700   2.790  1.00  0.00     0.052 A 
HETATM    8  C   UNL     1      42.309 -10.327   4.163  1.00  0.00     0.072 C 
HETATM    9  N   UNL     1      41.720  -9.755   1.820  1.00  0.00    -0.280 N 
HETATM   10  H   UNL     1      41.830  -8.749   1.896  1.00  0.00     0.189 HD
HETATM   11  N   UNL     1      41.355 -10.255   0.638  1.00  0.00    -0.177 NA
HETATM   12  C   UNL     1      41.293 -11.579   0.842  1.00  0.00     0.079 A 
HETATM   13  C   UNL     1      40.853 -12.438  -0.287  1.00  0.00     0.075 C 
ENDBRANCH   3   6
ENDBRANCH   1   2
BRANCH   1  14
HETATM   14  N   UNL     1      41.426 -16.371   3.128  1.00  0.00     0.100 N 
HETATM   15  H   UNL     1      41.005 -16.196   2.210  1.00  0.00     0.317 HD
BRANCH  14  16
HETATM   16  C   UNL     1      42.871 -16.577   2.921  1.00  0.00     0.251 C 
HETATM   17  C   UNL     1      43.414 -16.004   1.603  1.00  0.00     0.048 C 
BRANCH  16  18
HETATM   18  C   UNL     1      43.254 -18.053   3.044  1.00  0.00    -0.002 A 
HETATM   19  C   UNL     1      43.741 -18.665   4.222  1.00  0.00     0.064 A 
HETATM   20 CL   UNL     1      44.014 -17.731   5.663  1.00  0.00    -0.082 Cl
HETATM   21  C   UNL     1      44.001 -20.049   4.238  1.00  0.00     0.056 A 
HETATM   22 CL   UNL     1      44.595 -20.872   5.642  1.00  0.00    -0.083 Cl
HETATM   23  C   UNL     1      43.777 -20.827   3.100  1.00  0.00     0.026 A 
HETATM   24  C   UNL     1      43.299 -20.237   1.937  1.00  0.00     0.002 A 
HETATM   25  C   UNL     1      43.042 -18.867   1.909  1.00  0.00     0.011 A 
ENDBRANCH  16  18
ENDBRANCH  14  16
ENDBRANCH   1  14
TORSDOF 5
ENDMDL
MODEL 6
REMARK VINA RESULT:      -7.1      3.942      5.417
REMARK  5 active torsions:
REMARK  status: ('A' for Active; 'I' for Inactive)
REMARK    1  A    between atoms: C_8  and  N_9 
REMARK       I    between atoms: N_9  and  C_10 
REMARK    2  A    between atoms: C_10  and  C_11 
REMARK    3  A    between atoms: C_11  and  N_12 
REMARK    4  A    between atoms: N_12  and  C_13 
REMARK    5  A    between atoms: C_13  and  C_14 
ROOT
HETATM    1  C   UNL     1      41.314 -13.566   1.550  1.00  0.00     0.372 C 
ENDROOT
BRANCH   1   2
HETATM    2  C   UNL     1      40.701 -13.006   0.260  1.00  0.00     0.250 C 
HETATM    3  N   UNL     1      39.408 -13.431   0.048  1.00  0.00    -0.322 N 
HETATM    4  H   UNL     1      39.016 -13.999   0.791  1.00  0.00     0.169 HD
HETATM    5  O   UNL     1      41.337 -12.213  -0.426  1.00  0.00    -0.271 OA
BRANCH   3   6
HETATM    6  C   UNL     1      38.594 -13.133  -1.031  1.00  0.00     0.085 A 
HETATM    7  C   UNL     1      37.829 -11.983  -1.072  1.00  0.00     0.052 A 
HETATM    8  C   UNL     1      37.666 -10.848  -0.133  1.00  0.00     0.072 C 
HETATM    9  N   UNL     1      37.164 -12.018  -2.264  1.00  0.00    -0.280 N 
HETATM   10  H   UNL     1      36.515 -11.336  -2.642  1.00  0.00     0.189 HD
HETATM   11  N   UNL     1      37.423 -13.104  -2.996  1.00  0.00    -0.177 NA
HETATM   12  C   UNL     1      38.294 -13.805  -2.254  1.00  0.00     0.079 A 
HETATM   13  C   UNL     1      38.750 -15.120  -2.772  1.00  0.00     0.075 C 
ENDBRANCH   3   6
ENDBRANCH   1   2
BRANCH   1  14
HETATM   14  N   UNL     1      42.130 -14.772   1.285  1.00  0.00     0.100 N 
HETATM   15  H   UNL     1      43.053 -14.628   1.707  1.00  0.00     0.317 HD
BRANCH  14  16
HETATM   16  C   UNL     1      41.545 -15.978   1.898  1.00  0.00     0.251 C 
HETATM   17  C   UNL     1      40.265 -15.724   2.710  1.00  0.00     0.048 C 
BRANCH  16  18
HETATM   18  C   UNL     1      42.566 -16.727   2.757  1.00  0.00    -0.002 A 
HETATM   19  C   UNL     1      43.121 -16.239   3.962  1.00  0.00     0.064 A 
HETATM   20 CL   UNL     1      42.717 -14.653   4.550  1.00  0.00    -0.082 Cl
HETATM   21  C   UNL     1      44.006 -17.044   4.705  1.00  0.00     0.056 A 
HETATM   22 CL   UNL     1      44.724 -16.518   6.192  1.00  0.00    -0.083 Cl
HETATM   23  C   UNL     1      44.337 -18.328   4.265  1.00  0.00     0.026 A 
HETATM   24  C   UNL     1      43.798 -18.818   3.083  1.00  0.00     0.002 A 
HETATM   25  C   UNL     1      42.925 -18.028   2.337  1.00  0.00     0.011 A 
ENDBRANCH  16  18
ENDBRANCH  14  16
ENDBRANCH   1  14
TORSDOF 5
ENDMDL
MODEL 7
REMARK VINA RESULT:      -6.9      4.790      7.623
REMARK  5 active torsions:
REMARK  status: ('A' for Active; 'I' for Inactive)
REMARK    1  A    between atoms: C_8  and  N_9 
REMARK       I    between atoms: N_9  and  C_10 
REMARK    2  A    between atoms: C_10  and  C_11 
REMARK    3  A    between atoms: C_11  and  N_12 
REMARK    4  A    between atoms: N_12  and  C_13 
REMARK    5  A    between atoms: C_13  and  C_14 
ROOT
HETATM    1  C   UNL     1      42.659 -15.347   1.807  1.00  0.00     0.372 C 
ENDROOT
BRANCH   1   2
HETATM    2  C   UNL     1      42.460 -16.530   2.764  1.00  0.00     0.250 C 
HETATM    3  N   UNL     1      43.609 -17.264   2.960  1.00  0.00    -0.322 N 
HETATM    4  H   UNL     1      44.437 -16.897   2.501  1.00  0.00     0.169 HD
HETATM    5  O   UNL     1      41.376 -16.699   3.312  1.00  0.00    -0.271 OA
BRANCH   3   6
HETATM    6  C   UNL     1      43.755 -18.401   3.735  1.00  0.00     0.085 A 
HETATM    7  C   UNL     1      43.787 -19.666   3.177  1.00  0.00     0.052 A 
HETATM    8  C   UNL     1      43.711 -20.151   1.779  1.00  0.00     0.072 C 
HETATM    9  N   UNL     1      43.939 -20.532   4.222  1.00  0.00    -0.280 N 
HETATM   10  H   UNL     1      44.009 -21.543   4.194  1.00  0.00     0.189 HD
HETATM   11  N   UNL     1      43.994 -19.936   5.415  1.00  0.00    -0.177 NA
HETATM   12  C   UNL     1      43.876 -18.628   5.139  1.00  0.00     0.079 A 
HETATM   13  C   UNL     1      43.846 -17.675   6.278  1.00  0.00     0.075 C 
ENDBRANCH   3   6
ENDBRANCH   1   2
BRANCH   1  14
HETATM   14  N   UNL     1      41.575 -15.273   0.802  1.00  0.00     0.100 N 
HETATM   15  H   UNL     1      40.889 -16.002   1.023  1.00  0.00     0.317 HD
BRANCH  14  16
HETATM   16  C   UNL     1      40.874 -13.978   0.842  1.00  0.00     0.251 C 
HETATM   17  C   UNL     1      39.867 -13.833   1.993  1.00  0.00     0.048 C 
BRANCH  16  18
HETATM   18  C   UNL     1      40.192 -13.663  -0.490  1.00  0.00    -0.002 A 
HETATM   19  C   UNL     1      40.244 -12.413  -1.150  1.00  0.00     0.064 A 
HETATM   20 CL   UNL     1      41.071 -11.062  -0.431  1.00  0.00    -0.082 Cl
HETATM   21  C   UNL     1      39.630 -12.257  -2.407  1.00  0.00     0.056 A 
HETATM   22 CL   UNL     1      39.654 -10.759  -3.278  1.00  0.00    -0.083 Cl
HETATM   23  C   UNL     1      38.972 -13.328  -3.015  1.00  0.00     0.026 A 
HETATM   24  C   UNL     1      38.913 -14.560  -2.377  1.00  0.00     0.002 A 
HETATM   25  C   UNL     1      39.515 -14.726  -1.130  1.00  0.00     0.011 A 
ENDBRANCH  16  18
ENDBRANCH  14  16
ENDBRANCH   1  14
TORSDOF 5
ENDMDL
MODEL 8
REMARK VINA RESULT:      -6.8      2.779      4.208
REMARK  5 active torsions:
REMARK  status: ('A' for Active; 'I' for Inactive)
REMARK    1  A    between atoms: C_8  and  N_9 
REMARK       I    between atoms: N_9  and  C_10 
REMARK    2  A    between atoms: C_10  and  C_11 
REMARK    3  A    between atoms: C_11  and  N_12 
REMARK    4  A    between atoms: N_12  and  C_13 
REMARK    5  A    between atoms: C_13  and  C_14 
ROOT
HETATM    1  C   UNL     1      42.500 -13.823   1.906  1.00  0.00     0.372 C 
ENDROOT
BRANCH   1   2
HETATM    2  C   UNL     1      42.485 -12.630   2.870  1.00  0.00     0.250 C 
HETATM    3  N   UNL     1      42.645 -13.000   4.187  1.00  0.00    -0.322 N 
HETATM    4  H   UNL     1      42.811 -13.989   4.338  1.00  0.00     0.169 HD
HETATM    5  O   UNL     1      42.402 -11.488   2.431  1.00  0.00    -0.271 OA
BRANCH   3   6
HETATM    6  C   UNL     1      42.646 -12.172   5.296  1.00  0.00     0.085 A 
HETATM    7  C   UNL     1      41.478 -11.826   5.950  1.00  0.00     0.052 A 
HETATM    8  C   UNL     1      40.058 -12.188   5.731  1.00  0.00     0.072 C 
HETATM    9  N   UNL     1      41.853 -11.010   6.979  1.00  0.00    -0.280 N 
HETATM   10  H   UNL     1      41.264 -10.569   7.677  1.00  0.00     0.189 HD
HETATM   11  N   UNL     1      43.167 -10.786   7.041  1.00  0.00    -0.177 NA
HETATM   12  C   UNL     1      43.672 -11.484   6.012  1.00  0.00     0.079 A 
HETATM   13  C   UNL     1      45.134 -11.401   5.765  1.00  0.00     0.075 C 
ENDBRANCH   3   6
ENDBRANCH   1   2
BRANCH   1  14
HETATM   14  N   UNL     1      43.432 -14.878   2.361  1.00  0.00     0.100 N 
HETATM   15  H   UNL     1      43.703 -14.665   3.327  1.00  0.00     0.317 HD
BRANCH  14  16
HETATM   16  C   UNL     1      42.800 -16.209   2.361  1.00  0.00     0.251 C 
HETATM   17  C   UNL     1      41.279 -16.192   2.140  1.00  0.00     0.048 C 
BRANCH  16  18
HETATM   18  C   UNL     1      43.132 -16.993   3.632  1.00  0.00    -0.002 A 
HETATM   19  C   UNL     1      43.497 -18.359   3.667  1.00  0.00     0.064 A 
HETATM   20 CL   UNL     1      43.533 -19.307   2.210  1.00  0.00    -0.082 Cl
HETATM   21  C   UNL     1      43.845 -18.961   4.891  1.00  0.00     0.056 A 
HETATM   22 CL   UNL     1      44.306 -20.627   5.014  1.00  0.00    -0.083 Cl
HETATM   23  C   UNL     1      43.840 -18.220   6.075  1.00  0.00     0.026 A 
HETATM   24  C   UNL     1      43.483 -16.878   6.054  1.00  0.00     0.002 A 
HETATM   25  C   UNL     1      43.133 -16.272   4.848  1.00  0.00     0.011 A 
ENDBRANCH  16  18
ENDBRANCH  14  16
ENDBRANCH   1  14
TORSDOF 5
ENDMDL
MODEL 9
REMARK VINA RESULT:      -6.7      3.840      6.605
REMARK  5 active torsions:
REMARK  status: ('A' for Active; 'I' for Inactive)
REMARK    1  A    between atoms: C_8  and  N_9 
REMARK       I    between atoms: N_9  and  C_10 
REMARK    2  A    between atoms: C_10  and  C_11 
REMARK    3  A    between atoms: C_11  and  N_12 
REMARK    4  A    between atoms: N_12  and  C_13 
REMARK    5  A    between atoms: C_13  and  C_14 
ROOT
HETATM    1  C   UNL     1      39.801 -15.693   2.210  1.00  0.00     0.372 C 
ENDROOT
BRANCH   1   2
HETATM    2  C   UNL     1      40.705 -16.223   3.332  1.00  0.00     0.250 C 
HETATM    3  N   UNL     1      41.966 -16.561   2.894  1.00  0.00    -0.322 N 
HETATM    4  H   UNL     1      42.148 -16.362   1.915  1.00  0.00     0.169 HD
HETATM    5  O   UNL     1      40.295 -16.249   4.488  1.00  0.00    -0.271 OA
BRANCH   3   6
HETATM    6  C   UNL     1      42.999 -17.094   3.644  1.00  0.00     0.085 A 
HETATM    7  C   UNL     1      43.565 -18.318   3.342  1.00  0.00     0.052 A 
HETATM    8  C   UNL     1      43.311 -19.306   2.267  1.00  0.00     0.072 C 
HETATM    9  N   UNL     1      44.538 -18.522   4.279  1.00  0.00    -0.280 N 
HETATM   10  H   UNL     1      45.167 -19.312   4.369  1.00  0.00     0.189 HD
HETATM   11  N   UNL     1      44.642 -17.537   5.174  1.00  0.00    -0.177 NA
HETATM   12  C   UNL     1      43.701 -16.654   4.807  1.00  0.00     0.079 A 
HETATM   13  C   UNL     1      43.517 -15.443   5.647  1.00  0.00     0.075 C 
ENDBRANCH   3   6
ENDBRANCH   1   2
BRANCH   1  14
HETATM   14  N   UNL     1      39.262 -14.353   2.534  1.00  0.00     0.100 N 
HETATM   15  H   UNL     1      39.437 -14.174   3.528  1.00  0.00     0.317 HD
BRANCH  14  16
HETATM   16  C   UNL     1      39.932 -13.289   1.766  1.00  0.00     0.251 C 
HETATM   17  C   UNL     1      40.506 -13.743   0.415  1.00  0.00     0.048 C 
BRANCH  16  18
HETATM   18  C   UNL     1      41.020 -12.598   2.589  1.00  0.00    -0.002 A 
HETATM   19  C   UNL     1      40.783 -11.632   3.594  1.00  0.00     0.064 A 
HETATM   20 CL   UNL     1      39.168 -11.086   3.939  1.00  0.00    -0.082 Cl
HETATM   21  C   UNL     1      41.861 -11.109   4.335  1.00  0.00     0.056 A 
HETATM   22 CL   UNL     1      41.650  -9.926   5.583  1.00  0.00    -0.083 Cl
HETATM   23  C   UNL     1      43.166 -11.540   4.090  1.00  0.00     0.026 A 
HETATM   24  C   UNL     1      43.412 -12.488   3.105  1.00  0.00     0.002 A 
HETATM   25  C   UNL     1      42.353 -13.010   2.363  1.00  0.00     0.011 A 
ENDBRANCH  16  18
ENDBRANCH  14  16
ENDBRANCH   1  14
TORSDOF 5
ENDMDL
MODEL 10
REMARK VINA RESULT:      -6.7     14.271     16.191
REMARK  5 active torsions:
REMARK  status: ('A' for Active; 'I' for Inactive)
REMARK    1  A    between atoms: C_8  and  N_9 
REMARK       I    between atoms: N_9  and  C_10 
REMARK    2  A    between atoms: C_10  and  C_11 
REMARK    3  A    between atoms: C_11  and  N_12 
REMARK    4  A    between atoms: N_12  and  C_13 
REMARK    5  A    between atoms: C_13  and  C_14 
ROOT
HETATM    1  C   UNL     1      45.516 -29.158   2.708  1.00  0.00     0.372 C 
ENDROOT
BRANCH   1   2
HETATM    2  C   UNL     1      46.866 -28.816   2.064  1.00  0.00     0.250 C 
HETATM    3  N   UNL     1      47.488 -29.909   1.503  1.00  0.00    -0.322 N 
HETATM    4  H   UNL     1      46.953 -30.770   1.533  1.00  0.00     0.169 HD
HETATM    5  O   UNL     1      47.253 -27.652   2.034  1.00  0.00    -0.271 OA
BRANCH   3   6
HETATM    6  C   UNL     1      48.722 -29.941   0.877  1.00  0.00     0.085 A 
HETATM    7  C   UNL     1      49.888 -30.197   1.574  1.00  0.00     0.052 A 
HETATM    8  C   UNL     1      50.162 -30.499   2.998  1.00  0.00     0.072 C 
HETATM    9  N   UNL     1      50.894 -30.150   0.651  1.00  0.00    -0.280 N 
HETATM   10  H   UNL     1      51.886 -30.296   0.797  1.00  0.00     0.189 HD
HETATM   11  N   UNL     1      50.480 -29.870  -0.587  1.00  0.00    -0.177 NA
HETATM   12  C   UNL     1      49.150 -29.732  -0.469  1.00  0.00     0.079 A 
HETATM   13  C   UNL     1      48.379 -29.358  -1.682  1.00  0.00     0.075 C 
ENDBRANCH   3   6
ENDBRANCH   1   2
BRANCH   1  14
HETATM   14  N   UNL     1      44.759 -30.135   1.894  1.00  0.00     0.100 N 
HETATM   15  H   UNL     1      44.128 -30.646   2.520  1.00  0.00     0.317 HD
BRANCH  14  16
HETATM   16  C   UNL     1      43.929 -29.475   0.871  1.00  0.00     0.251 C 
HETATM   17  C   UNL     1      42.446 -29.333   1.248  1.00  0.00     0.048 C 
BRANCH  16  18
HETATM   18  C   UNL     1      44.057 -30.161  -0.490  1.00  0.00    -0.002 A 
HETATM   19  C   UNL     1      44.521 -29.534  -1.670  1.00  0.00     0.064 A 
HETATM   20 CL   UNL     1      44.937 -27.846  -1.676  1.00  0.00    -0.082 Cl
HETATM   21  C   UNL     1      44.659 -30.283  -2.855  1.00  0.00     0.056 A 
HETATM   22 CL   UNL     1      45.224 -29.589  -4.338  1.00  0.00    -0.083 Cl
HETATM   23  C   UNL     1      44.347 -31.644  -2.875  1.00  0.00     0.026 A 
HETATM   24  C   UNL     1      43.890 -32.270  -1.723  1.00  0.00     0.002 A 
HETATM   25  C   UNL     1      43.746 -31.538  -0.545  1.00  0.00     0.011 A 
ENDBRANCH  16  18
ENDBRANCH  14  16
ENDBRANCH   1  14
TORSDOF 5
ENDMDL
