MODEL 1
REMARK VINA RESULT:      -8.4      0.000      0.000
REMARK  5 active torsions:
REMARK  status: ('A' for Active; 'I' for Inactive)
REMARK    1  A    between atoms: C_2  and  O_3 
REMARK    2  A    between atoms: O_3  and  C_4 
REMARK    3  A    between atoms: C_7  and  C_8 
REMARK    4  A    between atoms: C_12  and  C_13 
REMARK       I    between atoms: C_13  and  N_14 
REMARK    5  A    between atoms: N_14  and  C_15 
ROOT
HETATM    1  C   UNL     1      41.260 -15.301   2.410  1.00  0.00     0.068 A 
HETATM    2  N   UNL     1      42.182 -16.279   2.218  1.00  0.00    -0.248 NA
HETATM    3  C   UNL     1      42.699 -16.935   3.272  1.00  0.00     0.068 A 
HETATM    4  C   UNL     1      42.327 -16.669   4.600  1.00  0.00     0.008 A 
HETATM    5  C   UNL     1      41.326 -15.691   4.770  1.00  0.00     0.047 A 
HETATM    6  C   UNL     1      40.802 -14.993   3.680  1.00  0.00     0.050 A 
HETATM    7  C   UNL     1      43.660 -17.909   3.030  1.00  0.00     0.032 A 
HETATM    8  C   UNL     1      44.274 -18.618   4.065  1.00  0.00     0.002 A 
HETATM    9  C   UNL     1      43.931 -18.347   5.380  1.00  0.00     0.001 A 
HETATM   10  C   UNL     1      42.967 -17.376   5.649  1.00  0.00     0.015 A 
ENDROOT
BRANCH   5  11
HETATM   11  C   UNL     1      40.853 -15.267   6.102  1.00  0.00     0.271 C 
HETATM   12  N   UNL     1      41.385 -14.186   6.748  1.00  0.00    -0.150 N 
HETATM   13  H   UNL     1      40.952 -13.932   7.623  1.00  0.00     0.188 HD
HETATM   14  O   UNL     1      39.951 -15.923   6.624  1.00  0.00    -0.267 OA
BRANCH  12  15
HETATM   15  C   UNL     1      42.472 -13.434   6.423  1.00  0.00     0.747 A 
HETATM   16  N   UNL     1      43.683 -13.729   6.902  1.00  0.00     0.020 NA
HETATM   17  N   UNL     1      44.436 -12.758   6.363  1.00  0.00    -0.255 N 
HETATM   18  H   UNL     1      45.428 -12.720   6.568  1.00  0.00     0.190 HD
HETATM   19  C   UNL     1      43.686 -11.938   5.584  1.00  0.00     0.246 A 
HETATM   20  N   UNL     1      42.441 -12.349   5.597  1.00  0.00    -0.055 NA
ENDBRANCH  12  15
ENDBRANCH   5  11
BRANCH   1  21
HETATM   21  C   UNL     1      40.805 -14.603   1.183  1.00  0.00    -0.007 A 
HETATM   22  C   UNL     1      39.940 -15.238   0.273  1.00  0.00     0.016 A 
HETATM   23  C   UNL     1      39.502 -14.599  -0.893  1.00  0.00     0.037 A 
HETATM   24  C   UNL     1      39.909 -13.300  -1.187  1.00  0.00     0.068 A 
HETATM   25  C   UNL     1      40.782 -12.655  -0.315  1.00  0.00     0.037 A 
HETATM   26  C   UNL     1      41.223 -13.301   0.851  1.00  0.00     0.016 A 
BRANCH  24  27
HETATM   27  O   UNL     1      39.406 -12.785  -2.348  1.00  0.00    -0.352 OA
BRANCH  27  28
HETATM   28  C   UNL     1      38.037 -13.063  -2.635  1.00  0.00     0.171 C 
HETATM   29  C   UNL     1      37.269 -11.755  -2.568  1.00  0.00     0.034 C 
ENDBRANCH  27  28
ENDBRANCH  24  27
ENDBRANCH   1  21
TORSDOF 5
ENDMDL
MODEL 2
REMARK VINA RESULT:      -7.9      4.374      7.478
REMARK  5 active torsions:
REMARK  status: ('A' for Active; 'I' for Inactive)
REMARK    1  A    between atoms: C_2  and  O_3 
REMARK    2  A    between atoms: O_3  and  C_4 
REMARK    3  A    between atoms: C_7  and  C_8 
REMARK    4  A    between atoms: C_12  and  C_13 
REMARK       I    between atoms: C_13  and  N_14 
REMARK    5  A    between atoms: N_14  and  C_15 
ROOT
HETATM    1  C   UNL     1      43.104 -12.356   6.398  1.00  0.00     0.068 A 
HETATM    2  N   UNL     1      44.095 -12.004   7.256  1.00  0.00    -0.248 NA
HETATM    3  C   UNL     1      44.116 -10.773   7.796  1.00  0.00     0.068 A 
HETATM    4  C   UNL     1      43.140  -9.799   7.524  1.00  0.00     0.008 A 
HETATM    5  C   UNL     1      42.089 -10.207   6.676  1.00  0.00     0.047 A 
HETATM    6  C   UNL     1      42.076 -11.478   6.099  1.00  0.00     0.050 A 
HETATM    7  C   UNL     1      45.164 -10.447   8.647  1.00  0.00     0.032 A 
HETATM    8  C   UNL     1      45.283  -9.182   9.227  1.00  0.00     0.002 A 
HETATM    9  C   UNL     1      44.338  -8.208   8.948  1.00  0.00     0.001 A 
HETATM   10  C   UNL     1      43.275  -8.509   8.098  1.00  0.00     0.015 A 
ENDROOT
BRANCH   5  11
HETATM   11  C   UNL     1      41.008  -9.293   6.261  1.00  0.00     0.271 C 
HETATM   12  N   UNL     1      39.952  -9.004   7.080  1.00  0.00    -0.150 N 
HETATM   13  H   UNL     1      39.297  -8.316   6.737  1.00  0.00     0.188 HD
HETATM   14  O   UNL     1      41.083  -8.789   5.140  1.00  0.00    -0.267 OA
BRANCH  12  15
HETATM   15  C   UNL     1      39.604  -9.562   8.272  1.00  0.00     0.747 A 
HETATM   16  N   UNL     1      38.804 -10.630   8.325  1.00  0.00     0.020 NA
HETATM   17  N   UNL     1      38.709 -10.836   9.648  1.00  0.00    -0.255 N 
HETATM   18  H   UNL     1      38.137 -11.598   9.997  1.00  0.00     0.190 HD
HETATM   19  C   UNL     1      39.443  -9.926  10.335  1.00  0.00     0.246 A 
HETATM   20  N   UNL     1      40.028  -9.114   9.487  1.00  0.00    -0.055 NA
ENDBRANCH  12  15
ENDBRANCH   5  11
BRANCH   1  21
HETATM   21  C   UNL     1      43.216 -13.716   5.817  1.00  0.00    -0.007 A 
HETATM   22  C   UNL     1      43.773 -14.773   6.560  1.00  0.00     0.016 A 
HETATM   23  C   UNL     1      43.892 -16.063   6.030  1.00  0.00     0.037 A 
HETATM   24  C   UNL     1      43.452 -16.343   4.738  1.00  0.00     0.068 A 
HETATM   25  C   UNL     1      42.915 -15.312   3.972  1.00  0.00     0.037 A 
HETATM   26  C   UNL     1      42.802 -14.018   4.506  1.00  0.00     0.016 A 
BRANCH  24  27
HETATM   27  O   UNL     1      43.614 -17.639   4.341  1.00  0.00    -0.352 OA
BRANCH  27  28
HETATM   28  C   UNL     1      43.357 -17.930   2.968  1.00  0.00     0.171 C 
HETATM   29  C   UNL     1      43.727 -19.381   2.719  1.00  0.00     0.034 C 
ENDBRANCH  27  28
ENDBRANCH  24  27
ENDBRANCH   1  21
TORSDOF 5
ENDMDL
MODEL 3
REMARK VINA RESULT:      -7.8      4.382      7.944
REMARK  5 active torsions:
REMARK  status: ('A' for Active; 'I' for Inactive)
REMARK    1  A    between atoms: C_2  and  O_3 
REMARK    2  A    between atoms: O_3  and  C_4 
REMARK    3  A    between atoms: C_7  and  C_8 
REMARK    4  A    between atoms: C_12  and  C_13 
REMARK       I    between atoms: C_13  and  N_14 
REMARK    5  A    between atoms: N_14  and  C_15 
ROOT
HETATM    1  C   UNL     1      43.146 -11.562   6.700  1.00  0.00     0.068 A 
HETATM    2  N   UNL     1      41.978 -10.901   6.501  1.00  0.00    -0.248 NA
HETATM    3  C   UNL     1      41.805  -9.666   7.005  1.00  0.00     0.068 A 
HETATM    4  C   UNL     1      42.793  -8.994   7.743  1.00  0.00     0.008 A 
HETATM    5  C   UNL     1      44.019  -9.677   7.887  1.00  0.00     0.047 A 
HETATM    6  C   UNL     1      44.194 -10.967   7.382  1.00  0.00     0.050 A 
HETATM    7  C   UNL     1      40.583  -9.039   6.800  1.00  0.00     0.032 A 
HETATM    8  C   UNL     1      40.305  -7.770   7.315  1.00  0.00     0.002 A 
HETATM    9  C   UNL     1      41.265  -7.108   8.063  1.00  0.00     0.001 A 
HETATM   10  C   UNL     1      42.500  -7.715   8.282  1.00  0.00     0.015 A 
ENDROOT
BRANCH   5  11
HETATM   11  C   UNL     1      45.144  -9.126   8.667  1.00  0.00     0.271 C 
HETATM   12  N   UNL     1      45.267  -9.342  10.011  1.00  0.00    -0.150 N 
HETATM   13  H   UNL     1      46.104  -8.984  10.446  1.00  0.00     0.188 HD
HETATM   14  O   UNL     1      45.983  -8.454   8.065  1.00  0.00    -0.267 OA
BRANCH  12  15
HETATM   15  C   UNL     1      44.388  -9.914  10.879  1.00  0.00     0.747 A 
HETATM   16  N   UNL     1      44.479 -11.206  11.201  1.00  0.00     0.020 NA
HETATM   17  N   UNL     1      43.443 -11.354  12.041  1.00  0.00    -0.255 N 
HETATM   18  H   UNL     1      43.252 -12.263  12.448  1.00  0.00     0.190 HD
HETATM   19  C   UNL     1      42.785 -10.180  12.212  1.00  0.00     0.246 A 
HETATM   20  N   UNL     1      43.369  -9.250  11.495  1.00  0.00    -0.055 NA
ENDBRANCH  12  15
ENDBRANCH   5  11
BRANCH   1  21
HETATM   21  C   UNL     1      43.202 -12.939   6.152  1.00  0.00    -0.007 A 
HETATM   22  C   UNL     1      42.781 -13.208   4.837  1.00  0.00     0.016 A 
HETATM   23  C   UNL     1      42.821 -14.500   4.301  1.00  0.00     0.037 A 
HETATM   24  C   UNL     1      43.291 -15.569   5.061  1.00  0.00     0.068 A 
HETATM   25  C   UNL     1      43.696 -15.337   6.372  1.00  0.00     0.037 A 
HETATM   26  C   UNL     1      43.648 -14.039   6.908  1.00  0.00     0.016 A 
BRANCH  24  27
HETATM   27  O   UNL     1      43.289 -16.777   4.422  1.00  0.00    -0.352 OA
BRANCH  27  28
HETATM   28  C   UNL     1      42.457 -16.895   3.270  1.00  0.00     0.171 C 
HETATM   29  C   UNL     1      43.014 -18.008   2.401  1.00  0.00     0.034 C 
ENDBRANCH  27  28
ENDBRANCH  24  27
ENDBRANCH   1  21
TORSDOF 5
ENDMDL
MODEL 4
REMARK VINA RESULT:      -7.7      3.566      7.636
REMARK  5 active torsions:
REMARK  status: ('A' for Active; 'I' for Inactive)
REMARK    1  A    between atoms: C_2  and  O_3 
REMARK    2  A    between atoms: O_3  and  C_4 
REMARK    3  A    between atoms: C_7  and  C_8 
REMARK    4  A    between atoms: C_12  and  C_13 
REMARK       I    between atoms: C_13  and  N_14 
REMARK    5  A    between atoms: N_14  and  C_15 
ROOT
HETATM    1  C   UNL     1      40.423 -14.376   0.971  1.00  0.00     0.068 A 
HETATM    2  N   UNL     1      40.114 -14.927  -0.230  1.00  0.00    -0.248 NA
HETATM    3  C   UNL     1      39.302 -14.277  -1.083  1.00  0.00     0.068 A 
HETATM    4  C   UNL     1      38.743 -13.019  -0.802  1.00  0.00     0.008 A 
HETATM    5  C   UNL     1      39.125 -12.441   0.427  1.00  0.00     0.047 A 
HETATM    6  C   UNL     1      39.951 -13.123   1.323  1.00  0.00     0.050 A 
HETATM    7  C   UNL     1      38.991 -14.891  -2.289  1.00  0.00     0.032 A 
HETATM    8  C   UNL     1      38.132 -14.303  -3.221  1.00  0.00     0.002 A 
HETATM    9  C   UNL     1      37.557 -13.074  -2.943  1.00  0.00     0.001 A 
HETATM   10  C   UNL     1      37.854 -12.435  -1.740  1.00  0.00     0.015 A 
ENDROOT
BRANCH   5  11
HETATM   11  C   UNL     1      38.595 -11.144   0.889  1.00  0.00     0.271 C 
HETATM   12  N   UNL     1      39.070  -9.956   0.407  1.00  0.00    -0.150 N 
HETATM   13  H   UNL     1      38.600  -9.124   0.731  1.00  0.00     0.188 HD
HETATM   14  O   UNL     1      37.699 -11.160   1.734  1.00  0.00    -0.267 OA
BRANCH  12  15
HETATM   15  C   UNL     1      40.140  -9.716  -0.399  1.00  0.00     0.747 A 
HETATM   16  N   UNL     1      39.984  -9.504  -1.708  1.00  0.00     0.020 NA
HETATM   17  N   UNL     1      41.252  -9.331  -2.112  1.00  0.00    -0.255 N 
HETATM   18  H   UNL     1      41.447  -9.159  -3.092  1.00  0.00     0.190 HD
HETATM   19  C   UNL     1      42.111  -9.423  -1.066  1.00  0.00     0.246 A 
HETATM   20  N   UNL     1      41.433  -9.656   0.031  1.00  0.00    -0.055 NA
ENDBRANCH  12  15
ENDBRANCH   5  11
BRANCH   1  21
HETATM   21  C   UNL     1      41.275 -15.208   1.855  1.00  0.00    -0.007 A 
HETATM   22  C   UNL     1      42.539 -15.653   1.425  1.00  0.00     0.016 A 
HETATM   23  C   UNL     1      43.358 -16.442   2.241  1.00  0.00     0.037 A 
HETATM   24  C   UNL     1      42.943 -16.811   3.519  1.00  0.00     0.068 A 
HETATM   25  C   UNL     1      41.688 -16.403   3.963  1.00  0.00     0.037 A 
HETATM   26  C   UNL     1      40.868 -15.615   3.139  1.00  0.00     0.016 A 
BRANCH  24  27
HETATM   27  O   UNL     1      43.835 -17.573   4.219  1.00  0.00    -0.352 OA
BRANCH  27  28
HETATM   28  C   UNL     1      44.195 -18.830   3.648  1.00  0.00     0.171 C 
HETATM   29  C   UNL     1      44.171 -19.870   4.754  1.00  0.00     0.034 C 
ENDBRANCH  27  28
ENDBRANCH  24  27
ENDBRANCH   1  21
TORSDOF 5
ENDMDL
MODEL 5
REMARK VINA RESULT:      -7.5      2.942      7.380
REMARK  5 active torsions:
REMARK  status: ('A' for Active; 'I' for Inactive)
REMARK    1  A    between atoms: C_2  and  O_3 
REMARK    2  A    between atoms: O_3  and  C_4 
REMARK    3  A    between atoms: C_7  and  C_8 
REMARK    4  A    between atoms: C_12  and  C_13 
REMARK       I    between atoms: C_13  and  N_14 
REMARK    5  A    between atoms: N_14  and  C_15 
ROOT
HETATM    1  C   UNL     1      41.603 -13.983   1.219  1.00  0.00     0.068 A 
HETATM    2  N   UNL     1      40.757 -14.569   0.333  1.00  0.00    -0.248 NA
HETATM    3  C   UNL     1      40.092 -13.819  -0.563  1.00  0.00     0.068 A 
HETATM    4  C   UNL     1      40.228 -12.424  -0.648  1.00  0.00     0.008 A 
HETATM    5  C   UNL     1      41.155 -11.845   0.243  1.00  0.00     0.047 A 
HETATM    6  C   UNL     1      41.832 -12.618   1.188  1.00  0.00     0.050 A 
HETATM    7  C   UNL     1      39.217 -14.459  -1.431  1.00  0.00     0.032 A 
HETATM    8  C   UNL     1      38.461 -13.756  -2.373  1.00  0.00     0.002 A 
HETATM    9  C   UNL     1      38.571 -12.377  -2.450  1.00  0.00     0.001 A 
HETATM   10  C   UNL     1      39.444 -11.711  -1.591  1.00  0.00     0.015 A 
ENDROOT
BRANCH   5  11
HETATM   11  C   UNL     1      41.386 -10.389   0.309  1.00  0.00     0.271 C 
HETATM   12  N   UNL     1      40.742  -9.595   1.217  1.00  0.00    -0.150 N 
HETATM   13  H   UNL     1      41.013  -8.623   1.232  1.00  0.00     0.188 HD
HETATM   14  O   UNL     1      42.186  -9.899  -0.490  1.00  0.00    -0.267 OA
BRANCH  12  15
HETATM   15  C   UNL     1      39.724  -9.904   2.067  1.00  0.00     0.747 A 
HETATM   16  N   UNL     1      38.452  -9.856   1.665  1.00  0.00     0.020 NA
HETATM   17  N   UNL     1      37.797 -10.208   2.782  1.00  0.00    -0.255 N 
HETATM   18  H   UNL     1      36.783 -10.247   2.778  1.00  0.00     0.190 HD
HETATM   19  C   UNL     1      38.665 -10.466   3.792  1.00  0.00     0.246 A 
HETATM   20  N   UNL     1      39.891 -10.291   3.363  1.00  0.00    -0.055 NA
ENDBRANCH  12  15
ENDBRANCH   5  11
BRANCH   1  21
HETATM   21  C   UNL     1      42.235 -14.899   2.200  1.00  0.00    -0.007 A 
HETATM   22  C   UNL     1      42.636 -16.192   1.822  1.00  0.00     0.016 A 
HETATM   23  C   UNL     1      43.231 -17.074   2.733  1.00  0.00     0.037 A 
HETATM   24  C   UNL     1      43.449 -16.689   4.054  1.00  0.00     0.068 A 
HETATM   25  C   UNL     1      43.042 -15.422   4.462  1.00  0.00     0.037 A 
HETATM   26  C   UNL     1      42.442 -14.543   3.546  1.00  0.00     0.016 A 
BRANCH  24  27
HETATM   27  O   UNL     1      44.044 -17.635   4.840  1.00  0.00    -0.352 OA
BRANCH  27  28
HETATM   28  C   UNL     1      44.441 -18.847   4.201  1.00  0.00     0.171 C 
HETATM   29  C   UNL     1      44.098 -19.999   5.128  1.00  0.00     0.034 C 
ENDBRANCH  27  28
ENDBRANCH  24  27
ENDBRANCH   1  21
TORSDOF 5
ENDMDL
MODEL 6
REMARK VINA RESULT:      -7.4      3.187      6.967
REMARK  5 active torsions:
REMARK  status: ('A' for Active; 'I' for Inactive)
REMARK    1  A    between atoms: C_2  and  O_3 
REMARK    2  A    between atoms: O_3  and  C_4 
REMARK    3  A    between atoms: C_7  and  C_8 
REMARK    4  A    between atoms: C_12  and  C_13 
REMARK       I    between atoms: C_13  and  N_14 
REMARK    5  A    between atoms: N_14  and  C_15 
ROOT
HETATM    1  C   UNL     1      43.229 -13.651   5.408  1.00  0.00     0.068 A 
HETATM    2  N   UNL     1      43.417 -14.793   6.117  1.00  0.00    -0.248 NA
HETATM    3  C   UNL     1      43.481 -15.978   5.484  1.00  0.00     0.068 A 
HETATM    4  C   UNL     1      43.368 -16.110   4.090  1.00  0.00     0.008 A 
HETATM    5  C   UNL     1      43.230 -14.905   3.371  1.00  0.00     0.047 A 
HETATM    6  C   UNL     1      43.144 -13.675   4.027  1.00  0.00     0.050 A 
HETATM    7  C   UNL     1      43.647 -17.123   6.252  1.00  0.00     0.032 A 
HETATM    8  C   UNL     1      43.692 -18.398   5.682  1.00  0.00     0.002 A 
HETATM    9  C   UNL     1      43.558 -18.541   4.311  1.00  0.00     0.001 A 
HETATM   10  C   UNL     1      43.392 -17.407   3.517  1.00  0.00     0.015 A 
ENDROOT
BRANCH   5  11
HETATM   11  C   UNL     1      43.060 -14.874   1.905  1.00  0.00     0.271 C 
HETATM   12  N   UNL     1      41.925 -14.386   1.320  1.00  0.00    -0.150 N 
HETATM   13  H   UNL     1      41.926 -14.342   0.312  1.00  0.00     0.188 HD
HETATM   14  O   UNL     1      43.982 -15.307   1.212  1.00  0.00    -0.267 OA
BRANCH  12  15
HETATM   15  C   UNL     1      40.748 -14.012   1.893  1.00  0.00     0.747 A 
HETATM   16  N   UNL     1      39.831 -14.919   2.240  1.00  0.00     0.020 NA
HETATM   17  N   UNL     1      38.854 -14.145   2.738  1.00  0.00    -0.255 N 
HETATM   18  H   UNL     1      38.000 -14.573   3.078  1.00  0.00     0.190 HD
HETATM   19  C   UNL     1      39.203 -12.835   2.696  1.00  0.00     0.246 A 
HETATM   20  N   UNL     1      40.401 -12.724   2.175  1.00  0.00    -0.055 NA
ENDBRANCH  12  15
ENDBRANCH   5  11
BRANCH   1  21
HETATM   21  C   UNL     1      43.114 -12.411   6.214  1.00  0.00    -0.007 A 
HETATM   22  C   UNL     1      44.041 -12.126   7.233  1.00  0.00     0.016 A 
HETATM   23  C   UNL     1      43.949 -10.964   8.008  1.00  0.00     0.037 A 
HETATM   24  C   UNL     1      42.927 -10.043   7.788  1.00  0.00     0.068 A 
HETATM   25  C   UNL     1      41.983 -10.309   6.800  1.00  0.00     0.037 A 
HETATM   26  C   UNL     1      42.076 -11.478   6.028  1.00  0.00     0.016 A 
BRANCH  24  27
HETATM   27  O   UNL     1      42.952  -8.947   8.603  1.00  0.00    -0.352 OA
BRANCH  27  28
HETATM   28  C   UNL     1      42.506  -9.132   9.945  1.00  0.00     0.171 C 
HETATM   29  C   UNL     1      43.588  -8.613  10.874  1.00  0.00     0.034 C 
ENDBRANCH  27  28
ENDBRANCH  24  27
ENDBRANCH   1  21
TORSDOF 5
ENDMDL
MODEL 7
REMARK VINA RESULT:      -7.4      1.627      3.601
REMARK  5 active torsions:
REMARK  status: ('A' for Active; 'I' for Inactive)
REMARK    1  A    between atoms: C_2  and  O_3 
REMARK    2  A    between atoms: O_3  and  C_4 
REMARK    3  A    between atoms: C_7  and  C_8 
REMARK    4  A    between atoms: C_12  and  C_13 
REMARK       I    between atoms: C_13  and  N_14 
REMARK    5  A    between atoms: N_14  and  C_15 
ROOT
HETATM    1  C   UNL     1      41.614 -13.403   2.651  1.00  0.00     0.068 A 
HETATM    2  N   UNL     1      42.594 -12.517   2.961  1.00  0.00    -0.248 NA
HETATM    3  C   UNL     1      43.116 -12.493   4.200  1.00  0.00     0.068 A 
HETATM    4  C   UNL     1      42.703 -13.362   5.224  1.00  0.00     0.008 A 
HETATM    5  C   UNL     1      41.725 -14.312   4.861  1.00  0.00     0.047 A 
HETATM    6  C   UNL     1      41.167 -14.325   3.582  1.00  0.00     0.050 A 
HETATM    7  C   UNL     1      44.097 -11.551   4.480  1.00  0.00     0.032 A 
HETATM    8  C   UNL     1      44.673 -11.434   5.748  1.00  0.00     0.002 A 
HETATM    9  C   UNL     1      44.255 -12.270   6.770  1.00  0.00     0.001 A 
HETATM   10  C   UNL     1      43.273 -13.226   6.515  1.00  0.00     0.015 A 
ENDROOT
BRANCH   5  11
HETATM   11  C   UNL     1      41.156 -15.269   5.829  1.00  0.00     0.271 C 
HETATM   12  N   UNL     1      41.730 -16.487   6.066  1.00  0.00    -0.150 N 
HETATM   13  H   UNL     1      41.310 -17.045   6.793  1.00  0.00     0.188 HD
HETATM   14  O   UNL     1      40.132 -14.936   6.429  1.00  0.00    -0.267 OA
BRANCH  12  15
HETATM   15  C   UNL     1      42.754 -17.101   5.411  1.00  0.00     0.747 A 
HETATM   16  N   UNL     1      43.906 -17.369   6.031  1.00  0.00     0.020 NA
HETATM   17  N   UNL     1      44.619 -17.943   5.050  1.00  0.00    -0.255 N 
HETATM   18  H   UNL     1      45.569 -18.248   5.233  1.00  0.00     0.190 HD
HETATM   19  C   UNL     1      43.896 -18.020   3.905  1.00  0.00     0.246 A 
HETATM   20  N   UNL     1      42.708 -17.503   4.110  1.00  0.00    -0.055 NA
ENDBRANCH  12  15
ENDBRANCH   5  11
BRANCH   1  21
HETATM   21  C   UNL     1      41.070 -13.298   1.275  1.00  0.00    -0.007 A 
HETATM   22  C   UNL     1      40.434 -14.395   0.666  1.00  0.00     0.016 A 
HETATM   23  C   UNL     1      39.917 -14.319  -0.633  1.00  0.00     0.037 A 
HETATM   24  C   UNL     1      40.015 -13.140  -1.367  1.00  0.00     0.068 A 
HETATM   25  C   UNL     1      40.658 -12.044  -0.799  1.00  0.00     0.037 A 
HETATM   26  C   UNL     1      41.180 -12.126   0.503  1.00  0.00     0.016 A 
BRANCH  24  27
HETATM   27  O   UNL     1      39.465 -13.190  -2.617  1.00  0.00    -0.352 OA
BRANCH  27  28
HETATM   28  C   UNL     1      38.367 -14.081  -2.802  1.00  0.00     0.171 C 
HETATM   29  C   UNL     1      37.089 -13.264  -2.763  1.00  0.00     0.034 C 
ENDBRANCH  27  28
ENDBRANCH  24  27
ENDBRANCH   1  21
TORSDOF 5
ENDMDL
MODEL 8
REMARK VINA RESULT:      -7.3      3.540      7.895
REMARK  5 active torsions:
REMARK  status: ('A' for Active; 'I' for Inactive)
REMARK    1  A    between atoms: C_2  and  O_3 
REMARK    2  A    between atoms: O_3  and  C_4 
REMARK    3  A    between atoms: C_7  and  C_8 
REMARK    4  A    between atoms: C_12  and  C_13 
REMARK       I    between atoms: C_13  and  N_14 
REMARK    5  A    between atoms: N_14  and  C_15 
ROOT
HETATM    1  C   UNL     1      41.543 -13.384   3.074  1.00  0.00     0.068 A 
HETATM    2  N   UNL     1      40.696 -12.881   4.009  1.00  0.00    -0.248 NA
HETATM    3  C   UNL     1      40.037 -11.732   3.774  1.00  0.00     0.068 A 
HETATM    4  C   UNL     1      40.169 -11.002   2.581  1.00  0.00     0.008 A 
HETATM    5  C   UNL     1      41.009 -11.575   1.603  1.00  0.00     0.047 A 
HETATM    6  C   UNL     1      41.710 -12.756   1.852  1.00  0.00     0.050 A 
HETATM    7  C   UNL     1      39.203 -11.241   4.769  1.00  0.00     0.032 A 
HETATM    8  C   UNL     1      38.504 -10.039   4.625  1.00  0.00     0.002 A 
HETATM    9  C   UNL     1      38.645  -9.300   3.462  1.00  0.00     0.001 A 
HETATM   10  C   UNL     1      39.475  -9.772   2.447  1.00  0.00     0.015 A 
ENDROOT
BRANCH   5  11
HETATM   11  C   UNL     1      41.284 -10.914   0.313  1.00  0.00     0.271 C 
HETATM   12  N   UNL     1      40.655 -11.289  -0.841  1.00  0.00    -0.150 N 
HETATM   13  H   UNL     1      40.856 -10.736  -1.660  1.00  0.00     0.188 HD
HETATM   14  O   UNL     1      42.110 -10.000   0.303  1.00  0.00    -0.267 OA
BRANCH  12  15
HETATM   15  C   UNL     1      39.841 -12.355  -1.074  1.00  0.00     0.747 A 
HETATM   16  N   UNL     1      38.512 -12.235  -1.011  1.00  0.00     0.020 NA
HETATM   17  N   UNL     1      38.109 -13.486  -1.282  1.00  0.00    -0.255 N 
HETATM   18  H   UNL     1      37.119 -13.703  -1.292  1.00  0.00     0.190 HD
HETATM   19  C   UNL     1      39.171 -14.299  -1.511  1.00  0.00     0.246 A 
HETATM   20  N   UNL     1      40.278 -13.606  -1.395  1.00  0.00    -0.055 NA
ENDBRANCH  12  15
ENDBRANCH   5  11
BRANCH   1  21
HETATM   21  C   UNL     1      42.261 -14.622   3.465  1.00  0.00    -0.007 A 
HETATM   22  C   UNL     1      42.783 -14.772   4.762  1.00  0.00     0.016 A 
HETATM   23  C   UNL     1      43.468 -15.930   5.150  1.00  0.00     0.037 A 
HETATM   24  C   UNL     1      43.649 -16.981   4.254  1.00  0.00     0.068 A 
HETATM   25  C   UNL     1      43.162 -16.852   2.957  1.00  0.00     0.037 A 
HETATM   26  C   UNL     1      42.480 -15.687   2.570  1.00  0.00     0.016 A 
BRANCH  24  27
HETATM   27  O   UNL     1      44.325 -18.058   4.756  1.00  0.00    -0.352 OA
BRANCH  27  28
HETATM   28  C   UNL     1      44.172 -19.294   4.062  1.00  0.00     0.171 C 
HETATM   29  C   UNL     1      44.222 -20.415   5.086  1.00  0.00     0.034 C 
ENDBRANCH  27  28
ENDBRANCH  24  27
ENDBRANCH   1  21
TORSDOF 5
ENDMDL
MODEL 9
REMARK VINA RESULT:      -7.2     13.304     16.784
REMARK  5 active torsions:
REMARK  status: ('A' for Active; 'I' for Inactive)
REMARK    1  A    between atoms: C_2  and  O_3 
REMARK    2  A    between atoms: O_3  and  C_4 
REMARK    3  A    between atoms: C_7  and  C_8 
REMARK    4  A    between atoms: C_12  and  C_13 
REMARK       I    between atoms: C_13  and  N_14 
REMARK    5  A    between atoms: N_14  and  C_15 
ROOT
HETATM    1  C   UNL     1      41.515  -7.296  17.074  1.00  0.00     0.068 A 
HETATM    2  N   UNL     1      41.814  -6.037  17.485  1.00  0.00    -0.248 NA
HETATM    3  C   UNL     1      41.456  -5.625  18.714  1.00  0.00     0.068 A 
HETATM    4  C   UNL     1      40.775  -6.445  19.630  1.00  0.00     0.008 A 
HETATM    5  C   UNL     1      40.527  -7.765  19.201  1.00  0.00     0.047 A 
HETATM    6  C   UNL     1      40.880  -8.189  17.919  1.00  0.00     0.050 A 
HETATM    7  C   UNL     1      41.758  -4.321  19.082  1.00  0.00     0.032 A 
HETATM    8  C   UNL     1      41.396  -3.798  20.326  1.00  0.00     0.002 A 
HETATM    9  C   UNL     1      40.704  -4.591  21.228  1.00  0.00     0.001 A 
HETATM   10  C   UNL     1      40.390  -5.905  20.883  1.00  0.00     0.015 A 
ENDROOT
BRANCH   5  11
HETATM   11  C   UNL     1      39.788  -8.739  20.028  1.00  0.00     0.271 C 
HETATM   12  N   UNL     1      40.413  -9.515  20.964  1.00  0.00    -0.150 N 
HETATM   13  H   UNL     1      39.817 -10.102  21.528  1.00  0.00     0.188 HD
HETATM   14  O   UNL     1      38.573  -8.836  19.850  1.00  0.00    -0.267 OA
BRANCH  12  15
HETATM   15  C   UNL     1      41.744  -9.672  21.207  1.00  0.00     0.747 A 
HETATM   16  N   UNL     1      42.412 -10.725  20.728  1.00  0.00     0.020 NA
HETATM   17  N   UNL     1      43.648 -10.504  21.200  1.00  0.00    -0.255 N 
HETATM   18  H   UNL     1      44.388 -11.167  20.998  1.00  0.00     0.190 HD
HETATM   19  C   UNL     1      43.696  -9.351  21.914  1.00  0.00     0.246 A 
HETATM   20  N   UNL     1      42.506  -8.801  21.926  1.00  0.00    -0.055 NA
ENDBRANCH  12  15
ENDBRANCH   5  11
BRANCH   1  21
HETATM   21  C   UNL     1      41.904  -7.621  15.679  1.00  0.00    -0.007 A 
HETATM   22  C   UNL     1      41.276  -8.669  14.983  1.00  0.00     0.016 A 
HETATM   23  C   UNL     1      41.630  -8.995  13.668  1.00  0.00     0.037 A 
HETATM   24  C   UNL     1      42.622  -8.279  13.002  1.00  0.00     0.068 A 
HETATM   25  C   UNL     1      43.276  -7.250  13.674  1.00  0.00     0.037 A 
HETATM   26  C   UNL     1      42.921  -6.929  14.995  1.00  0.00     0.016 A 
BRANCH  24  27
HETATM   27  O   UNL     1      42.869  -8.688  11.722  1.00  0.00    -0.352 OA
BRANCH  27  28
HETATM   28  C   UNL     1      42.122  -8.052  10.687  1.00  0.00     0.171 C 
HETATM   29  C   UNL     1      41.300  -9.116   9.982  1.00  0.00     0.034 C 
ENDBRANCH  27  28
ENDBRANCH  24  27
ENDBRANCH   1  21
TORSDOF 5
ENDMDL
MODEL 10
REMARK VINA RESULT:      -7.2      3.497      6.631
REMARK  5 active torsions:
REMARK  status: ('A' for Active; 'I' for Inactive)
REMARK    1  A    between atoms: C_2  and  O_3 
REMARK    2  A    between atoms: O_3  and  C_4 
REMARK    3  A    between atoms: C_7  and  C_8 
REMARK    4  A    between atoms: C_12  and  C_13 
REMARK       I    between atoms: C_13  and  N_14 
REMARK    5  A    between atoms: N_14  and  C_15 
ROOT
HETATM    1  C   UNL     1      42.917 -13.671   5.677  1.00  0.00     0.068 A 
HETATM    2  N   UNL     1      44.008 -13.143   6.289  1.00  0.00    -0.248 NA
HETATM    3  C   UNL     1      43.950 -11.914   6.831  1.00  0.00     0.068 A 
HETATM    4  C   UNL     1      42.791 -11.119   6.808  1.00  0.00     0.008 A 
HETATM    5  C   UNL     1      41.655 -11.712   6.217  1.00  0.00     0.047 A 
HETATM    6  C   UNL     1      41.719 -12.979   5.637  1.00  0.00     0.050 A 
HETATM    7  C   UNL     1      45.097 -11.404   7.423  1.00  0.00     0.032 A 
HETATM    8  C   UNL     1      45.137 -10.124   7.982  1.00  0.00     0.002 A 
HETATM    9  C   UNL     1      44.007  -9.323   7.944  1.00  0.00     0.001 A 
HETATM   10  C   UNL     1      42.841  -9.813   7.357  1.00  0.00     0.015 A 
ENDROOT
BRANCH   5  11
HETATM   11  C   UNL     1      40.373 -10.995   6.078  1.00  0.00     0.271 C 
HETATM   12  N   UNL     1      39.922 -10.549   4.867  1.00  0.00    -0.150 N 
HETATM   13  H   UNL     1      39.004 -10.131   4.860  1.00  0.00     0.188 HD
HETATM   14  O   UNL     1      39.709 -10.807   7.098  1.00  0.00    -0.267 OA
BRANCH  12  15
HETATM   15  C   UNL     1      40.560 -10.517   3.665  1.00  0.00     0.747 A 
HETATM   16  N   UNL     1      41.486  -9.592   3.401  1.00  0.00     0.020 NA
HETATM   17  N   UNL     1      41.836  -9.904   2.144  1.00  0.00    -0.255 N 
HETATM   18  H   UNL     1      42.534  -9.346   1.664  1.00  0.00     0.190 HD
HETATM   19  C   UNL     1      41.146 -10.986   1.702  1.00  0.00     0.246 A 
HETATM   20  N   UNL     1      40.339 -11.399   2.650  1.00  0.00    -0.055 NA
ENDBRANCH  12  15
ENDBRANCH   5  11
BRANCH   1  21
HETATM   21  C   UNL     1      43.114 -15.007   5.062  1.00  0.00    -0.007 A 
HETATM   22  C   UNL     1      43.785 -16.028   5.759  1.00  0.00     0.016 A 
HETATM   23  C   UNL     1      43.985 -17.294   5.197  1.00  0.00     0.037 A 
HETATM   24  C   UNL     1      43.515 -17.585   3.918  1.00  0.00     0.068 A 
HETATM   25  C   UNL     1      42.866 -16.587   3.196  1.00  0.00     0.037 A 
HETATM   26  C   UNL     1      42.672 -15.317   3.762  1.00  0.00     0.016 A 
BRANCH  24  27
HETATM   27  O   UNL     1      43.765 -18.857   3.487  1.00  0.00    -0.352 OA
BRANCH  27  28
HETATM   28  C   UNL     1      43.157 -19.252   2.258  1.00  0.00     0.171 C 
HETATM   29  C   UNL     1      43.795 -20.556   1.818  1.00  0.00     0.034 C 
ENDBRANCH  27  28
ENDBRANCH  24  27
ENDBRANCH   1  21
TORSDOF 5
ENDMDL
