MODEL 1
REMARK VINA RESULT:      -8.4      0.000      0.000
REMARK  4 active torsions:
REMARK  status: ('A' for Active; 'I' for Inactive)
REMARK    1  A    between atoms: C_2  and  C_3 
REMARK    2  A    between atoms: C_7  and  C_8 
REMARK    3  A    between atoms: C_8  and  N_9 
REMARK       I    between atoms: N_9  and  C_10 
REMARK       I    between atoms: C_10  and  N_11 
REMARK    4  A    between atoms: N_11  and  C_12 
ROOT
HETATM    1  N   UNL     1      42.100 -14.537   2.776  1.00  0.00    -0.333 N 
HETATM    2  C   UNL     1      42.003 -15.922   2.838  1.00  0.00     0.322 C 
HETATM    3  N   UNL     1      43.184 -16.557   3.140  1.00  0.00    -0.307 N 
HETATM    4  O   UNL     1      40.926 -16.493   2.676  1.00  0.00    -0.247 OA
HETATM    5  C   UNL     1      43.323 -13.801   2.475  1.00  0.00     0.155 C 
HETATM    6  H   UNL     1      43.873 -15.984   3.610  1.00  0.00     0.170 HD
ENDROOT
BRANCH   1   7
HETATM    7  C   UNL     1      40.873 -13.759   2.874  1.00  0.00     0.185 C 
BRANCH   7   8
HETATM    8  C   UNL     1      40.411 -13.330   1.535  1.00  0.00     0.047 A 
HETATM    9  N   UNL     1      40.391 -12.014   1.165  1.00  0.00    -0.280 N 
HETATM   10  N   UNL     1      39.997 -11.820  -0.103  1.00  0.00    -0.178 NA
HETATM   11  H   UNL     1      40.642 -11.211   1.739  1.00  0.00     0.189 HD
HETATM   12  C   UNL     1      39.758 -13.052  -0.575  1.00  0.00     0.064 A 
HETATM   13  C   UNL     1      40.001 -14.032   0.423  1.00  0.00     0.058 A 
BRANCH  12  14
HETATM   14  C   UNL     1      39.344 -13.282  -2.020  1.00  0.00    -0.005 C 
HETATM   15  C   UNL     1      40.466 -12.793  -2.958  1.00  0.00     0.021 C 
HETATM   16  C   UNL     1      38.047 -12.526  -2.381  1.00  0.00     0.021 C 
HETATM   17  C   UNL     1      39.097 -14.782  -2.282  1.00  0.00     0.021 C 
ENDBRANCH  12  14
ENDBRANCH   7   8
ENDBRANCH   1   7
BRANCH   3  18
HETATM   18  C   UNL     1      43.417 -17.952   3.218  1.00  0.00     0.064 A 
HETATM   19  C   UNL     1      43.858 -18.494   4.440  1.00  0.00     0.099 A 
HETATM   20 CL   UNL     1      44.097 -17.477   5.822  1.00  0.00    -0.079 Cl
HETATM   21  C   UNL     1      44.094 -19.866   4.557  1.00  0.00     0.143 A 
HETATM   22  F   UNL     1      44.500 -20.392   5.723  1.00  0.00    -0.204 F 
HETATM   23  C   UNL     1      43.913 -20.715   3.474  1.00  0.00     0.086 A 
HETATM   24  C   UNL     1      43.495 -20.176   2.267  1.00  0.00     0.121 A 
HETATM   25  F   UNL     1      43.331 -20.984   1.212  1.00  0.00    -0.206 F 
HETATM   26  C   UNL     1      43.247 -18.811   2.127  1.00  0.00     0.073 A 
ENDBRANCH   3  18
TORSDOF 4
ENDMDL
MODEL 2
REMARK VINA RESULT:      -8.0      1.632      2.495
REMARK  4 active torsions:
REMARK  status: ('A' for Active; 'I' for Inactive)
REMARK    1  A    between atoms: C_2  and  C_3 
REMARK    2  A    between atoms: C_7  and  C_8 
REMARK    3  A    between atoms: C_8  and  N_9 
REMARK       I    between atoms: N_9  and  C_10 
REMARK       I    between atoms: C_10  and  N_11 
REMARK    4  A    between atoms: N_11  and  C_12 
ROOT
HETATM    1  N   UNL     1      41.874 -14.448   3.123  1.00  0.00    -0.333 N 
HETATM    2  C   UNL     1      41.842 -15.775   3.537  1.00  0.00     0.322 C 
HETATM    3  N   UNL     1      42.980 -16.189   4.187  1.00  0.00    -0.307 N 
HETATM    4  O   UNL     1      40.846 -16.474   3.360  1.00  0.00    -0.247 OA
HETATM    5  C   UNL     1      43.089 -13.693   2.839  1.00  0.00     0.155 C 
HETATM    6  H   UNL     1      43.539 -15.449   4.592  1.00  0.00     0.170 HD
ENDROOT
BRANCH   1   7
HETATM    7  C   UNL     1      40.608 -13.799   2.807  1.00  0.00     0.185 C 
BRANCH   7   8
HETATM    8  C   UNL     1      40.297 -13.922   1.365  1.00  0.00     0.047 A 
HETATM    9  N   UNL     1      39.882 -15.102   0.814  1.00  0.00    -0.280 N 
HETATM   10  N   UNL     1      39.592 -15.010  -0.493  1.00  0.00    -0.178 NA
HETATM   11  H   UNL     1      39.774 -15.997   1.288  1.00  0.00     0.189 HD
HETATM   12  C   UNL     1      39.821 -13.725  -0.801  1.00  0.00     0.064 A 
HETATM   13  C   UNL     1      40.271 -13.005   0.338  1.00  0.00     0.058 A 
BRANCH  12  14
HETATM   14  C   UNL     1      39.551 -13.182  -2.195  1.00  0.00    -0.005 C 
HETATM   15  C   UNL     1      38.673 -11.918  -2.089  1.00  0.00     0.021 C 
HETATM   16  C   UNL     1      38.818 -14.207  -3.087  1.00  0.00     0.021 C 
HETATM   17  C   UNL     1      40.872 -12.811  -2.900  1.00  0.00     0.021 C 
ENDBRANCH  12  14
ENDBRANCH   7   8
ENDBRANCH   1   7
BRANCH   3  18
HETATM   18  C   UNL     1      43.270 -17.488   4.673  1.00  0.00     0.064 A 
HETATM   19  C   UNL     1      43.638 -18.486   3.750  1.00  0.00     0.099 A 
HETATM   20 CL   UNL     1      43.748 -18.128   2.059  1.00  0.00    -0.079 Cl
HETATM   21  C   UNL     1      43.935 -19.778   4.193  1.00  0.00     0.143 A 
HETATM   22  F   UNL     1      44.302 -20.730   3.321  1.00  0.00    -0.204 F 
HETATM   23  C   UNL     1      43.860 -20.104   5.539  1.00  0.00     0.086 A 
HETATM   24  C   UNL     1      43.480 -19.124   6.443  1.00  0.00     0.121 A 
HETATM   25  F   UNL     1      43.392 -19.432   7.743  1.00  0.00    -0.206 F 
HETATM   26  C   UNL     1      43.185 -17.826   6.027  1.00  0.00     0.073 A 
ENDBRANCH   3  18
TORSDOF 4
ENDMDL
MODEL 3
REMARK VINA RESULT:      -7.7      5.724      8.182
REMARK  4 active torsions:
REMARK  status: ('A' for Active; 'I' for Inactive)
REMARK    1  A    between atoms: C_2  and  C_3 
REMARK    2  A    between atoms: C_7  and  C_8 
REMARK    3  A    between atoms: C_8  and  N_9 
REMARK       I    between atoms: N_9  and  C_10 
REMARK       I    between atoms: C_10  and  N_11 
REMARK    4  A    between atoms: N_11  and  C_12 
ROOT
HETATM    1  N   UNL     1      40.530 -11.489   5.506  1.00  0.00    -0.333 N 
HETATM    2  C   UNL     1      41.749 -10.841   5.667  1.00  0.00     0.322 C 
HETATM    3  N   UNL     1      42.180 -10.766   6.969  1.00  0.00    -0.307 N 
HETATM    4  O   UNL     1      42.382 -10.425   4.697  1.00  0.00    -0.247 OA
HETATM    5  C   UNL     1      39.499 -11.588   6.532  1.00  0.00     0.155 C 
HETATM    6  H   UNL     1      41.781 -11.453   7.596  1.00  0.00     0.170 HD
ENDROOT
BRANCH   1   7
HETATM    7  C   UNL     1      40.186 -11.983   4.180  1.00  0.00     0.185 C 
BRANCH   7   8
HETATM    8  C   UNL     1      40.721 -13.347   3.968  1.00  0.00     0.047 A 
HETATM    9  N   UNL     1      40.053 -14.458   4.398  1.00  0.00    -0.280 N 
HETATM   10  N   UNL     1      40.661 -15.610   4.068  1.00  0.00    -0.178 NA
HETATM   11  H   UNL     1      39.177 -14.487   4.916  1.00  0.00     0.189 HD
HETATM   12  C   UNL     1      41.757 -15.232   3.396  1.00  0.00     0.064 A 
HETATM   13  C   UNL     1      41.838 -13.817   3.313  1.00  0.00     0.058 A 
BRANCH  12  14
HETATM   14  C   UNL     1      42.704 -16.252   2.784  1.00  0.00    -0.005 C 
HETATM   15  C   UNL     1      43.654 -16.786   3.875  1.00  0.00     0.021 C 
HETATM   16  C   UNL     1      43.560 -15.644   1.651  1.00  0.00     0.021 C 
HETATM   17  C   UNL     1      41.916 -17.437   2.188  1.00  0.00     0.021 C 
ENDBRANCH  12  14
ENDBRANCH   7   8
ENDBRANCH   1   7
BRANCH   3  18
HETATM   18  C   UNL     1      43.345 -10.123   7.455  1.00  0.00     0.064 A 
HETATM   19  C   UNL     1      44.577 -10.798   7.358  1.00  0.00     0.099 A 
HETATM   20 CL   UNL     1      44.667 -12.373   6.643  1.00  0.00    -0.079 Cl
HETATM   21  C   UNL     1      45.749 -10.194   7.822  1.00  0.00     0.143 A 
HETATM   22  F   UNL     1      46.929 -10.824   7.718  1.00  0.00    -0.204 F 
HETATM   23  C   UNL     1      45.720  -8.933   8.399  1.00  0.00     0.086 A 
HETATM   24  C   UNL     1      44.502  -8.278   8.510  1.00  0.00     0.121 A 
HETATM   25  F   UNL     1      44.461  -7.066   9.078  1.00  0.00    -0.206 F 
HETATM   26  C   UNL     1      43.320  -8.856   8.049  1.00  0.00     0.073 A 
ENDBRANCH   3  18
TORSDOF 4
ENDMDL
MODEL 4
REMARK VINA RESULT:      -7.6      2.305      2.602
REMARK  4 active torsions:
REMARK  status: ('A' for Active; 'I' for Inactive)
REMARK    1  A    between atoms: C_2  and  C_3 
REMARK    2  A    between atoms: C_7  and  C_8 
REMARK    3  A    between atoms: C_8  and  N_9 
REMARK       I    between atoms: N_9  and  C_10 
REMARK       I    between atoms: C_10  and  N_11 
REMARK    4  A    between atoms: N_11  and  C_12 
ROOT
HETATM    1  N   UNL     1      41.779 -14.476   4.297  1.00  0.00    -0.333 N 
HETATM    2  C   UNL     1      41.765 -15.854   4.115  1.00  0.00     0.322 C 
HETATM    3  N   UNL     1      43.011 -16.435   4.112  1.00  0.00    -0.307 N 
HETATM    4  O   UNL     1      40.707 -16.473   4.015  1.00  0.00    -0.247 OA
HETATM    5  C   UNL     1      42.896 -13.603   3.957  1.00  0.00     0.155 C 
HETATM    6  H   UNL     1      43.737 -15.900   4.570  1.00  0.00     0.170 HD
ENDROOT
BRANCH   1   7
HETATM    7  C   UNL     1      40.545 -13.829   4.722  1.00  0.00     0.185 C 
BRANCH   7   8
HETATM    8  C   UNL     1      39.921 -13.092   3.600  1.00  0.00     0.047 A 
HETATM    9  N   UNL     1      39.540 -13.721   2.448  1.00  0.00    -0.280 N 
HETATM   10  N   UNL     1      38.941 -12.905   1.566  1.00  0.00    -0.178 NA
HETATM   11  H   UNL     1      39.659 -14.706   2.216  1.00  0.00     0.189 HD
HETATM   12  C   UNL     1      38.928 -11.708   2.168  1.00  0.00     0.064 A 
HETATM   13  C   UNL     1      39.540 -11.779   3.448  1.00  0.00     0.058 A 
BRANCH  12  14
HETATM   14  C   UNL     1      38.271 -10.499   1.519  1.00  0.00    -0.005 C 
HETATM   15  C   UNL     1      39.137 -10.020   0.337  1.00  0.00     0.021 C 
HETATM   16  C   UNL     1      38.109  -9.325   2.509  1.00  0.00     0.021 C 
HETATM   17  C   UNL     1      36.867 -10.861   0.992  1.00  0.00     0.021 C 
ENDBRANCH  12  14
ENDBRANCH   7   8
ENDBRANCH   1   7
BRANCH   3  18
HETATM   18  C   UNL     1      43.325 -17.799   3.894  1.00  0.00     0.064 A 
HETATM   19  C   UNL     1      43.692 -18.591   4.999  1.00  0.00     0.099 A 
HETATM   20 CL   UNL     1      43.743 -17.914   6.592  1.00  0.00    -0.079 Cl
HETATM   21  C   UNL     1      44.005 -19.942   4.824  1.00  0.00     0.143 A 
HETATM   22  F   UNL     1      44.340 -20.706   5.874  1.00  0.00    -0.204 F 
HETATM   23  C   UNL     1      43.974 -20.522   3.564  1.00  0.00     0.086 A 
HETATM   24  C   UNL     1      43.629 -19.735   2.475  1.00  0.00     0.121 A 
HETATM   25  F   UNL     1      43.610 -20.283   1.253  1.00  0.00    -0.206 F 
HETATM   26  C   UNL     1      43.307 -18.387   2.625  1.00  0.00     0.073 A 
ENDBRANCH   3  18
TORSDOF 4
ENDMDL
MODEL 5
REMARK VINA RESULT:      -7.5      1.771      2.238
REMARK  4 active torsions:
REMARK  status: ('A' for Active; 'I' for Inactive)
REMARK    1  A    between atoms: C_2  and  C_3 
REMARK    2  A    between atoms: C_7  and  C_8 
REMARK    3  A    between atoms: C_8  and  N_9 
REMARK       I    between atoms: N_9  and  C_10 
REMARK       I    between atoms: C_10  and  N_11 
REMARK    4  A    between atoms: N_11  and  C_12 
ROOT
HETATM    1  N   UNL     1      41.178 -13.169   3.481  1.00  0.00    -0.333 N 
HETATM    2  C   UNL     1      42.130 -14.181   3.519  1.00  0.00     0.322 C 
HETATM    3  N   UNL     1      41.727 -15.310   4.191  1.00  0.00    -0.307 N 
HETATM    4  O   UNL     1      43.213 -14.059   2.948  1.00  0.00    -0.247 OA
HETATM    5  C   UNL     1      40.116 -12.988   4.464  1.00  0.00     0.155 C 
HETATM    6  H   UNL     1      40.725 -15.427   4.272  1.00  0.00     0.170 HD
ENDROOT
BRANCH   1   7
HETATM    7  C   UNL     1      41.327 -12.125   2.476  1.00  0.00     0.185 C 
BRANCH   7   8
HETATM    8  C   UNL     1      40.404 -12.350   1.340  1.00  0.00     0.047 A 
HETATM    9  N   UNL     1      39.208 -11.695   1.242  1.00  0.00    -0.280 N 
HETATM   10  N   UNL     1      38.532 -11.981   0.119  1.00  0.00    -0.178 NA
HETATM   11  H   UNL     1      38.810 -11.039   1.912  1.00  0.00     0.189 HD
HETATM   12  C   UNL     1      39.317 -12.846  -0.538  1.00  0.00     0.064 A 
HETATM   13  C   UNL     1      40.504 -13.110   0.196  1.00  0.00     0.058 A 
BRANCH  12  14
HETATM   14  C   UNL     1      38.939 -13.377  -1.912  1.00  0.00    -0.005 C 
HETATM   15  C   UNL     1      39.101 -14.911  -1.928  1.00  0.00     0.021 C 
HETATM   16  C   UNL     1      39.825 -12.785  -3.029  1.00  0.00     0.021 C 
HETATM   17  C   UNL     1      37.474 -13.029  -2.245  1.00  0.00     0.021 C 
ENDBRANCH  12  14
ENDBRANCH   7   8
ENDBRANCH   1   7
BRANCH   3  18
HETATM   18  C   UNL     1      42.486 -16.478   4.446  1.00  0.00     0.064 A 
HETATM   19  C   UNL     1      42.596 -16.933   5.774  1.00  0.00     0.099 A 
HETATM   20 CL   UNL     1      41.806 -16.089   7.065  1.00  0.00    -0.079 Cl
HETATM   21  C   UNL     1      43.333 -18.084   6.065  1.00  0.00     0.143 A 
HETATM   22  F   UNL     1      43.429 -18.532   7.326  1.00  0.00    -0.204 F 
HETATM   23  C   UNL     1      43.979 -18.789   5.060  1.00  0.00     0.086 A 
HETATM   24  C   UNL     1      43.883 -18.329   3.755  1.00  0.00     0.121 A 
HETATM   25  F   UNL     1      44.514 -18.994   2.779  1.00  0.00    -0.206 F 
HETATM   26  C   UNL     1      43.149 -17.186   3.439  1.00  0.00     0.073 A 
ENDBRANCH   3  18
TORSDOF 4
ENDMDL
MODEL 6
REMARK VINA RESULT:      -7.5      5.950      8.179
REMARK  4 active torsions:
REMARK  status: ('A' for Active; 'I' for Inactive)
REMARK    1  A    between atoms: C_2  and  C_3 
REMARK    2  A    between atoms: C_7  and  C_8 
REMARK    3  A    between atoms: C_8  and  N_9 
REMARK       I    between atoms: N_9  and  C_10 
REMARK       I    between atoms: C_10  and  N_11 
REMARK    4  A    between atoms: N_11  and  C_12 
ROOT
HETATM    1  N   UNL     1      42.395 -12.086   6.008  1.00  0.00    -0.333 N 
HETATM    2  C   UNL     1      43.111 -13.277   6.022  1.00  0.00     0.322 C 
HETATM    3  N   UNL     1      42.431 -14.351   5.499  1.00  0.00    -0.307 N 
HETATM    4  O   UNL     1      44.270 -13.319   6.432  1.00  0.00    -0.247 OA
HETATM    5  C   UNL     1      40.939 -11.990   6.012  1.00  0.00     0.155 C 
HETATM    6  H   UNL     1      41.673 -14.116   4.871  1.00  0.00     0.170 HD
ENDROOT
BRANCH   1   7
HETATM    7  C   UNL     1      43.136 -10.840   6.144  1.00  0.00     0.185 C 
BRANCH   7   8
HETATM    8  C   UNL     1      43.112 -10.362   7.545  1.00  0.00     0.047 A 
HETATM    9  N   UNL     1      43.731 -11.048   8.552  1.00  0.00    -0.280 N 
HETATM   10  N   UNL     1      43.653 -10.435   9.745  1.00  0.00    -0.178 NA
HETATM   11  H   UNL     1      44.226 -11.935   8.478  1.00  0.00     0.189 HD
HETATM   12  C   UNL     1      42.964  -9.311   9.502  1.00  0.00     0.064 A 
HETATM   13  C   UNL     1      42.600  -9.226   8.132  1.00  0.00     0.058 A 
BRANCH  12  14
HETATM   14  C   UNL     1      42.705  -8.286  10.596  1.00  0.00    -0.005 C 
HETATM   15  C   UNL     1      43.585  -8.612  11.819  1.00  0.00     0.021 C 
HETATM   16  C   UNL     1      41.229  -8.280  11.049  1.00  0.00     0.021 C 
HETATM   17  C   UNL     1      43.047  -6.866  10.102  1.00  0.00     0.021 C 
ENDBRANCH  12  14
ENDBRANCH   7   8
ENDBRANCH   1   7
BRANCH   3  18
HETATM   18  C   UNL     1      42.868 -15.696   5.427  1.00  0.00     0.064 A 
HETATM   19  C   UNL     1      43.268 -16.208   4.178  1.00  0.00     0.099 A 
HETATM   20 CL   UNL     1      43.240 -15.208   2.763  1.00  0.00    -0.079 Cl
HETATM   21  C   UNL     1      43.710 -17.529   4.067  1.00  0.00     0.143 A 
HETATM   22  F   UNL     1      44.107 -18.019   2.884  1.00  0.00    -0.204 F 
HETATM   23  C   UNL     1      43.749 -18.362   5.177  1.00  0.00     0.086 A 
HETATM   24  C   UNL     1      43.337 -17.860   6.403  1.00  0.00     0.121 A 
HETATM   25  F   UNL     1      43.359 -18.659   7.477  1.00  0.00    -0.206 F 
HETATM   26  C   UNL     1      42.899 -16.543   6.539  1.00  0.00     0.073 A 
ENDBRANCH   3  18
TORSDOF 4
ENDMDL
MODEL 7
REMARK VINA RESULT:      -7.4      2.860      4.743
REMARK  4 active torsions:
REMARK  status: ('A' for Active; 'I' for Inactive)
REMARK    1  A    between atoms: C_2  and  C_3 
REMARK    2  A    between atoms: C_7  and  C_8 
REMARK    3  A    between atoms: C_8  and  N_9 
REMARK       I    between atoms: N_9  and  C_10 
REMARK       I    between atoms: C_10  and  N_11 
REMARK    4  A    between atoms: N_11  and  C_12 
ROOT
HETATM    1  N   UNL     1      40.625 -14.220   2.113  1.00  0.00    -0.333 N 
HETATM    2  C   UNL     1      40.928 -15.448   2.690  1.00  0.00     0.322 C 
HETATM    3  N   UNL     1      42.228 -15.854   2.501  1.00  0.00    -0.307 N 
HETATM    4  O   UNL     1      40.093 -16.067   3.347  1.00  0.00    -0.247 OA
HETATM    5  C   UNL     1      41.319 -13.645   0.966  1.00  0.00     0.155 C 
HETATM    6  H   UNL     1      42.884 -15.113   2.290  1.00  0.00     0.170 HD
ENDROOT
BRANCH   1   7
HETATM    7  C   UNL     1      39.441 -13.515   2.585  1.00  0.00     0.185 C 
BRANCH   7   8
HETATM    8  C   UNL     1      39.738 -12.752   3.819  1.00  0.00     0.047 A 
HETATM    9  N   UNL     1      39.557 -13.292   5.062  1.00  0.00    -0.280 N 
HETATM   10  N   UNL     1      39.932 -12.476   6.060  1.00  0.00    -0.178 NA
HETATM   11  H   UNL     1      39.187 -14.214   5.284  1.00  0.00     0.189 HD
HETATM   12  C   UNL     1      40.376 -11.371   5.443  1.00  0.00     0.064 A 
HETATM   13  C   UNL     1      40.268 -11.500   4.033  1.00  0.00     0.058 A 
BRANCH  12  14
HETATM   14  C   UNL     1      40.960 -10.205   6.226  1.00  0.00    -0.005 C 
HETATM   15  C   UNL     1      42.361 -10.588   6.745  1.00  0.00     0.021 C 
HETATM   16  C   UNL     1      40.083  -9.822   7.438  1.00  0.00     0.021 C 
HETATM   17  C   UNL     1      41.086  -8.957   5.329  1.00  0.00     0.021 C 
ENDBRANCH  12  14
ENDBRANCH   7   8
ENDBRANCH   1   7
BRANCH   3  18
HETATM   18  C   UNL     1      42.818 -17.072   2.916  1.00  0.00     0.064 A 
HETATM   19  C   UNL     1      43.291 -17.176   4.238  1.00  0.00     0.099 A 
HETATM   20 CL   UNL     1      43.137 -15.847   5.338  1.00  0.00    -0.079 Cl
HETATM   21  C   UNL     1      43.876 -18.364   4.685  1.00  0.00     0.143 A 
HETATM   22  F   UNL     1      44.313 -18.476   5.949  1.00  0.00    -0.204 F 
HETATM   23  C   UNL     1      44.015 -19.453   3.836  1.00  0.00     0.086 A 
HETATM   24  C   UNL     1      43.565 -19.341   2.529  1.00  0.00     0.121 A 
HETATM   25  F   UNL     1      43.708 -20.382   1.698  1.00  0.00    -0.206 F 
HETATM   26  C   UNL     1      42.973 -18.169   2.061  1.00  0.00     0.073 A 
ENDBRANCH   3  18
TORSDOF 4
ENDMDL
MODEL 8
REMARK VINA RESULT:      -7.3      3.966      7.884
REMARK  4 active torsions:
REMARK  status: ('A' for Active; 'I' for Inactive)
REMARK    1  A    between atoms: C_2  and  C_3 
REMARK    2  A    between atoms: C_7  and  C_8 
REMARK    3  A    between atoms: C_8  and  N_9 
REMARK       I    between atoms: N_9  and  C_10 
REMARK       I    between atoms: C_10  and  N_11 
REMARK    4  A    between atoms: N_11  and  C_12 
ROOT
HETATM    1  N   UNL     1      41.284 -12.508   2.986  1.00  0.00    -0.333 N 
HETATM    2  C   UNL     1      40.368 -12.912   2.022  1.00  0.00     0.322 C 
HETATM    3  N   UNL     1      40.884 -12.983   0.750  1.00  0.00    -0.307 N 
HETATM    4  O   UNL     1      39.215 -13.217   2.325  1.00  0.00    -0.247 OA
HETATM    5  C   UNL     1      42.464 -11.693   2.724  1.00  0.00     0.155 C 
HETATM    6  H   UNL     1      41.890 -13.079   0.698  1.00  0.00     0.170 HD
ENDROOT
BRANCH   1   7
HETATM    7  C   UNL     1      40.977 -12.789   4.382  1.00  0.00     0.185 C 
BRANCH   7   8
HETATM    8  C   UNL     1      41.459 -14.134   4.769  1.00  0.00     0.047 A 
HETATM    9  N   UNL     1      40.625 -15.217   4.802  1.00  0.00    -0.280 N 
HETATM   10  N   UNL     1      41.249 -16.363   5.118  1.00  0.00    -0.178 NA
HETATM   11  H   UNL     1      39.625 -15.229   4.612  1.00  0.00     0.189 HD
HETATM   12  C   UNL     1      42.531 -16.013   5.290  1.00  0.00     0.064 A 
HETATM   13  C   UNL     1      42.708 -14.619   5.085  1.00  0.00     0.058 A 
BRANCH  12  14
HETATM   14  C   UNL     1      43.601 -17.048   5.604  1.00  0.00    -0.005 C 
HETATM   15  C   UNL     1      43.029 -18.096   6.579  1.00  0.00     0.021 C 
HETATM   16  C   UNL     1      44.851 -16.413   6.253  1.00  0.00     0.021 C 
HETATM   17  C   UNL     1      44.058 -17.764   4.316  1.00  0.00     0.021 C 
ENDBRANCH  12  14
ENDBRANCH   7   8
ENDBRANCH   1   7
BRANCH   3  18
HETATM   18  C   UNL     1      40.192 -13.306  -0.443  1.00  0.00     0.064 A 
HETATM   19  C   UNL     1      39.905 -12.273  -1.356  1.00  0.00     0.099 A 
HETATM   20 CL   UNL     1      40.400 -10.645  -1.032  1.00  0.00    -0.079 Cl
HETATM   21  C   UNL     1      39.228 -12.553  -2.546  1.00  0.00     0.143 A 
HETATM   22  F   UNL     1      38.965 -11.577  -3.428  1.00  0.00    -0.204 F 
HETATM   23  C   UNL     1      38.816 -13.844  -2.843  1.00  0.00     0.086 A 
HETATM   24  C   UNL     1      39.085 -14.857  -1.934  1.00  0.00     0.121 A 
HETATM   25  F   UNL     1      38.679 -16.104  -2.206  1.00  0.00    -0.206 F 
HETATM   26  C   UNL     1      39.764 -14.603  -0.743  1.00  0.00     0.073 A 
ENDBRANCH   3  18
TORSDOF 4
ENDMDL
MODEL 9
REMARK VINA RESULT:      -7.3     13.915     16.818
REMARK  4 active torsions:
REMARK  status: ('A' for Active; 'I' for Inactive)
REMARK    1  A    between atoms: C_2  and  C_3 
REMARK    2  A    between atoms: C_7  and  C_8 
REMARK    3  A    between atoms: C_8  and  N_9 
REMARK       I    between atoms: N_9  and  C_10 
REMARK       I    between atoms: C_10  and  N_11 
REMARK    4  A    between atoms: N_11  and  C_12 
ROOT
HETATM    1  N   UNL     1      46.582 -28.653   1.897  1.00  0.00    -0.333 N 
HETATM    2  C   UNL     1      46.617 -28.704   0.508  1.00  0.00     0.322 C 
HETATM    3  N   UNL     1      45.381 -28.808  -0.083  1.00  0.00    -0.307 N 
HETATM    4  O   UNL     1      47.679 -28.613  -0.106  1.00  0.00    -0.247 OA
HETATM    5  C   UNL     1      45.518 -29.209   2.724  1.00  0.00     0.155 C 
HETATM    6  H   UNL     1      44.604 -28.494   0.485  1.00  0.00     0.170 HD
ENDROOT
BRANCH   1   7
HETATM    7  C   UNL     1      47.755 -28.139   2.593  1.00  0.00     0.185 C 
BRANCH   7   8
HETATM    8  C   UNL     1      48.674 -29.240   2.963  1.00  0.00     0.047 A 
HETATM    9  N   UNL     1      49.686 -29.642   2.137  1.00  0.00    -0.280 N 
HETATM   10  N   UNL     1      50.451 -30.613   2.661  1.00  0.00    -0.178 NA
HETATM   11  H   UNL     1      49.901 -29.284   1.208  1.00  0.00     0.189 HD
HETATM   12  C   UNL     1      49.921 -30.843   3.871  1.00  0.00     0.064 A 
HETATM   13  C   UNL     1      48.798 -30.005   4.100  1.00  0.00     0.058 A 
BRANCH  12  14
HETATM   14  C   UNL     1      50.542 -31.846   4.832  1.00  0.00    -0.005 C 
HETATM   15  C   UNL     1      49.470 -32.327   5.831  1.00  0.00     0.021 C 
HETATM   16  C   UNL     1      51.712 -31.236   5.633  1.00  0.00     0.021 C 
HETATM   17  C   UNL     1      51.089 -33.067   4.064  1.00  0.00     0.021 C 
ENDBRANCH  12  14
ENDBRANCH   7   8
ENDBRANCH   1   7
BRANCH   3  18
HETATM   18  C   UNL     1      45.095 -28.936  -1.464  1.00  0.00     0.064 A 
HETATM   19  C   UNL     1      44.575 -30.157  -1.934  1.00  0.00     0.099 A 
HETATM   20 CL   UNL     1      44.278 -31.469  -0.842  1.00  0.00    -0.079 Cl
HETATM   21  C   UNL     1      44.276 -30.320  -3.289  1.00  0.00     0.143 A 
HETATM   22  F   UNL     1      43.766 -31.475  -3.742  1.00  0.00    -0.204 F 
HETATM   23  C   UNL     1      44.497 -29.292  -4.196  1.00  0.00     0.086 A 
HETATM   24  C   UNL     1      45.026 -28.097  -3.733  1.00  0.00     0.121 A 
HETATM   25  F   UNL     1      45.256 -27.104  -4.602  1.00  0.00    -0.206 F 
HETATM   26  C   UNL     1      45.327 -27.908  -2.384  1.00  0.00     0.073 A 
ENDBRANCH   3  18
TORSDOF 4
ENDMDL
MODEL 10
REMARK VINA RESULT:      -7.3      6.281      8.532
REMARK  4 active torsions:
REMARK  status: ('A' for Active; 'I' for Inactive)
REMARK    1  A    between atoms: C_2  and  C_3 
REMARK    2  A    between atoms: C_7  and  C_8 
REMARK    3  A    between atoms: C_8  and  N_9 
REMARK       I    between atoms: N_9  and  C_10 
REMARK       I    between atoms: C_10  and  N_11 
REMARK    4  A    between atoms: N_11  and  C_12 
ROOT
HETATM    1  N   UNL     1      42.287 -11.315   6.225  1.00  0.00    -0.333 N 
HETATM    2  C   UNL     1      42.935 -12.488   5.858  1.00  0.00     0.322 C 
HETATM    3  N   UNL     1      42.192 -13.312   5.047  1.00  0.00    -0.307 N 
HETATM    4  O   UNL     1      44.092 -12.714   6.210  1.00  0.00    -0.247 OA
HETATM    5  C   UNL     1      40.839 -11.149   6.291  1.00  0.00     0.155 C 
HETATM    6  H   UNL     1      41.446 -12.856   4.537  1.00  0.00     0.170 HD
ENDROOT
BRANCH   1   7
HETATM    7  C   UNL     1      43.097 -10.211   6.721  1.00  0.00     0.185 C 
BRANCH   7   8
HETATM    8  C   UNL     1      43.045 -10.139   8.199  1.00  0.00     0.047 A 
HETATM    9  N   UNL     1      43.802 -10.959   8.988  1.00  0.00    -0.280 N 
HETATM   10  N   UNL     1      43.667 -10.712  10.301  1.00  0.00    -0.178 NA
HETATM   11  H   UNL     1      44.431 -11.698   8.682  1.00  0.00     0.189 HD
HETATM   12  C   UNL     1      42.797  -9.694  10.366  1.00  0.00     0.064 A 
HETATM   13  C   UNL     1      42.376  -9.305   9.066  1.00  0.00     0.058 A 
BRANCH  12  14
HETATM   14  C   UNL     1      42.413  -9.060  11.694  1.00  0.00    -0.005 C 
HETATM   15  C   UNL     1      43.629  -8.306  12.270  1.00  0.00     0.021 C 
HETATM   16  C   UNL     1      41.959 -10.111  12.730  1.00  0.00     0.021 C 
HETATM   17  C   UNL     1      41.254  -8.061  11.504  1.00  0.00     0.021 C 
ENDBRANCH  12  14
ENDBRANCH   7   8
ENDBRANCH   1   7
BRANCH   3  18
HETATM   18  C   UNL     1      42.553 -14.591   4.556  1.00  0.00     0.064 A 
HETATM   19  C   UNL     1      42.512 -15.687   5.439  1.00  0.00     0.099 A 
HETATM   20 CL   UNL     1      42.015 -15.478   7.085  1.00  0.00    -0.079 Cl
HETATM   21  C   UNL     1      42.856 -16.965   4.990  1.00  0.00     0.143 A 
HETATM   22  F   UNL     1      42.804 -18.017   5.821  1.00  0.00    -0.204 F 
HETATM   23  C   UNL     1      43.257 -17.176   3.679  1.00  0.00     0.086 A 
HETATM   24  C   UNL     1      43.314 -16.091   2.816  1.00  0.00     0.121 A 
HETATM   25  F   UNL     1      43.713 -16.281   1.552  1.00  0.00    -0.206 F 
HETATM   26  C   UNL     1      42.969 -14.807   3.238  1.00  0.00     0.073 A 
ENDBRANCH   3  18
TORSDOF 4
ENDMDL
