MODEL 1
REMARK VINA RESULT:     -10.2      0.000      0.000
REMARK  7 active torsions:
REMARK  status: ('A' for Active; 'I' for Inactive)
REMARK    1  A    between atoms: C_4  and  C_5 
REMARK    2  A    between atoms: C_5  and  N_6 
REMARK    3  A    between atoms: N_6  and  C_7 
REMARK    4  A    between atoms: C_11  and  N_12 
REMARK       I    between atoms: N_12  and  C_13 
REMARK    5  A    between atoms: C_13  and  C_14 
REMARK    6  A    between atoms: C_17  and  C_18 
REMARK    7  A    between atoms: C_18  and  C_19 
ROOT
HETATM    1  N   UNL     1      43.294 -12.743   5.858  1.00  0.00    -0.323 N 
HETATM    2  C   UNL     1      42.994 -12.756   4.506  1.00  0.00     0.256 C 
HETATM    3  O   UNL     1      42.764 -11.772   3.813  1.00  0.00    -0.267 OA
HETATM    4  H   UNL     1      43.459 -13.630   6.310  1.00  0.00     0.169 HD
ENDROOT
BRANCH   1   5
HETATM    5  C   UNL     1      43.293 -11.628   6.725  1.00  0.00     0.036 A 
HETATM    6  C   UNL     1      42.253 -10.705   6.821  1.00  0.00     0.055 A 
HETATM    7  C   UNL     1      42.307  -9.683   7.777  1.00  0.00     0.057 A 
HETATM    8  C   UNL     1      43.391  -9.561   8.670  1.00  0.00     0.030 A 
HETATM    9 CL   UNL     1      40.959  -8.598   7.889  1.00  0.00    -0.082 Cl
HETATM   10  C   UNL     1      44.460 -10.448   8.507  1.00  0.00     0.027 A 
HETATM   11  C   UNL     1      44.405 -11.478   7.562  1.00  0.00     0.031 A 
BRANCH   8  12
HETATM   12  N   UNL     1      43.429  -8.531   9.631  1.00  0.00    -0.287 NA
HETATM   13  H   UNL     1      42.485  -8.189   9.823  1.00  0.00     0.128 HD
BRANCH  12  14
HETATM   14  C   UNL     1      44.187  -8.791  10.850  1.00  0.00     0.131 C 
BRANCH  14  15
HETATM   15  C   UNL     1      43.267  -8.793  12.047  1.00  0.00    -0.045 A 
HETATM   16  C   UNL     1      42.236  -9.741  12.139  1.00  0.00     0.008 A 
HETATM   17  C   UNL     1      41.390  -9.764  13.248  1.00  0.00     0.001 A 
HETATM   18  C   UNL     1      41.562  -8.838  14.274  1.00  0.00     0.000 A 
HETATM   19  C   UNL     1      42.574  -7.883  14.188  1.00  0.00     0.001 A 
HETATM   20  C   UNL     1      43.420  -7.855  13.078  1.00  0.00     0.008 A 
ENDBRANCH  14  15
ENDBRANCH  12  14
ENDBRANCH   8  12
ENDBRANCH   1   5
BRANCH   2  21
HETATM   21  C   UNL     1      42.906 -14.109   3.867  1.00  0.00     0.032 A 
HETATM   22  C   UNL     1      43.305 -14.369   2.551  1.00  0.00     0.017 A 
HETATM   23  C   UNL     1      43.255 -15.673   2.041  1.00  0.00     0.008 A 
HETATM   24  C   UNL     1      42.792 -16.734   2.831  1.00  0.00    -0.057 A 
HETATM   25  C   UNL     1      42.342 -16.461   4.127  1.00  0.00     0.008 A 
HETATM   26  C   UNL     1      42.403 -15.164   4.641  1.00  0.00     0.017 A 
BRANCH  24  27
HETATM   27  C   UNL     1      42.782 -18.150   2.296  1.00  0.00     0.053 C 
BRANCH  27  28
HETATM   28  C   UNL     1      44.015 -19.000   2.634  1.00  0.00     0.091 C 
HETATM   29  C   UNL     1      43.780 -20.464   2.362  1.00  0.00     0.229 C 
HETATM   30  O   UNL     1      43.533 -20.955   1.272  1.00  0.00    -0.273 OA
HETATM   31  N   UNL     1      43.843 -21.146   3.533  1.00  0.00    -0.297 N 
HETATM   32  C   UNL     1      44.138 -20.359   4.595  1.00  0.00     0.225 C 
HETATM   33  H   UNL     1      43.643 -22.130   3.611  1.00  0.00     0.171 HD
HETATM   34  O   UNL     1      44.195 -20.724   5.757  1.00  0.00    -0.273 OA
HETATM   35  C   UNL     1      44.444 -18.974   4.102  1.00  0.00     0.117 C 
ENDBRANCH  27  28
ENDBRANCH  24  27
ENDBRANCH   2  21
TORSDOF 7
ENDMDL
MODEL 2
REMARK VINA RESULT:     -10.1      3.668     11.608
REMARK  7 active torsions:
REMARK  status: ('A' for Active; 'I' for Inactive)
REMARK    1  A    between atoms: C_4  and  C_5 
REMARK    2  A    between atoms: C_5  and  N_6 
REMARK    3  A    between atoms: N_6  and  C_7 
REMARK    4  A    between atoms: C_11  and  N_12 
REMARK       I    between atoms: N_12  and  C_13 
REMARK    5  A    between atoms: C_13  and  C_14 
REMARK    6  A    between atoms: C_17  and  C_18 
REMARK    7  A    between atoms: C_18  and  C_19 
ROOT
HETATM    1  N   UNL     1      42.646 -11.878   6.810  1.00  0.00    -0.323 N 
HETATM    2  C   UNL     1      43.762 -11.502   7.537  1.00  0.00     0.256 C 
HETATM    3  O   UNL     1      44.880 -11.995   7.442  1.00  0.00    -0.267 OA
HETATM    4  H   UNL     1      41.782 -11.389   6.991  1.00  0.00     0.169 HD
ENDROOT
BRANCH   1   5
HETATM    5  C   UNL     1      42.536 -12.955   5.903  1.00  0.00     0.036 A 
HETATM    6  C   UNL     1      41.882 -14.154   6.179  1.00  0.00     0.055 A 
HETATM    7  C   UNL     1      41.750 -15.128   5.181  1.00  0.00     0.057 A 
HETATM    8  C   UNL     1      42.256 -14.928   3.880  1.00  0.00     0.030 A 
HETATM    9 CL   UNL     1      40.877 -16.577   5.564  1.00  0.00    -0.082 Cl
HETATM   10  C   UNL     1      42.977 -13.753   3.644  1.00  0.00     0.027 A 
HETATM   11  C   UNL     1      43.099 -12.772   4.634  1.00  0.00     0.031 A 
BRANCH   8  12
HETATM   12  N   UNL     1      42.110 -15.915   2.884  1.00  0.00    -0.287 NA
HETATM   13  H   UNL     1      41.478 -15.588   2.150  1.00  0.00     0.128 HD
BRANCH  12  14
HETATM   14  C   UNL     1      43.335 -16.499   2.348  1.00  0.00     0.131 C 
BRANCH  14  15
HETATM   15  C   UNL     1      43.525 -17.898   2.886  1.00  0.00    -0.045 A 
HETATM   16  C   UNL     1      43.247 -19.007   2.070  1.00  0.00     0.008 A 
HETATM   17  C   UNL     1      43.434 -20.304   2.549  1.00  0.00     0.001 A 
HETATM   18  C   UNL     1      43.897 -20.506   3.848  1.00  0.00     0.000 A 
HETATM   19  C   UNL     1      44.163 -19.413   4.671  1.00  0.00     0.001 A 
HETATM   20  C   UNL     1      43.973 -18.114   4.196  1.00  0.00     0.008 A 
ENDBRANCH  14  15
ENDBRANCH  12  14
ENDBRANCH   8  12
ENDBRANCH   1   5
BRANCH   2  21
HETATM   21  C   UNL     1      43.549 -10.423   8.557  1.00  0.00     0.032 A 
HETATM   22  C   UNL     1      42.458  -9.546   8.537  1.00  0.00     0.017 A 
HETATM   23  C   UNL     1      42.290  -8.604   9.559  1.00  0.00     0.008 A 
HETATM   24  C   UNL     1      43.213  -8.513  10.609  1.00  0.00    -0.057 A 
HETATM   25  C   UNL     1      44.331  -9.354  10.596  1.00  0.00     0.008 A 
HETATM   26  C   UNL     1      44.495 -10.302   9.584  1.00  0.00     0.017 A 
BRANCH  24  27
HETATM   27  C   UNL     1      43.006  -7.528  11.739  1.00  0.00     0.053 C 
BRANCH  27  28
HETATM   28  C   UNL     1      43.256  -8.071  13.154  1.00  0.00     0.091 C 
HETATM   29  C   UNL     1      42.130  -8.958  13.622  1.00  0.00     0.229 C 
HETATM   30  O   UNL     1      41.786 -10.006  13.100  1.00  0.00    -0.273 OA
HETATM   31  N   UNL     1      41.531  -8.381  14.693  1.00  0.00    -0.297 N 
HETATM   32  C   UNL     1      42.116  -7.220  15.074  1.00  0.00     0.225 C 
HETATM   33  H   UNL     1      40.704  -8.754  15.132  1.00  0.00     0.171 HD
HETATM   34  O   UNL     1      41.729  -6.488  15.969  1.00  0.00    -0.273 OA
HETATM   35  C   UNL     1      43.355  -7.010  14.251  1.00  0.00     0.117 C 
ENDBRANCH  27  28
ENDBRANCH  24  27
ENDBRANCH   2  21
TORSDOF 7
ENDMDL
MODEL 3
REMARK VINA RESULT:      -9.6      3.697     11.764
REMARK  7 active torsions:
REMARK  status: ('A' for Active; 'I' for Inactive)
REMARK    1  A    between atoms: C_4  and  C_5 
REMARK    2  A    between atoms: C_5  and  N_6 
REMARK    3  A    between atoms: N_6  and  C_7 
REMARK    4  A    between atoms: C_11  and  N_12 
REMARK       I    between atoms: N_12  and  C_13 
REMARK    5  A    between atoms: C_13  and  C_14 
REMARK    6  A    between atoms: C_17  and  C_18 
REMARK    7  A    between atoms: C_18  and  C_19 
ROOT
HETATM    1  N   UNL     1      43.072 -11.198   7.596  1.00  0.00    -0.323 N 
HETATM    2  C   UNL     1      44.194 -10.887   8.346  1.00  0.00     0.256 C 
HETATM    3  O   UNL     1      45.340 -11.248   8.105  1.00  0.00    -0.267 OA
HETATM    4  H   UNL     1      42.183 -10.836   7.911  1.00  0.00     0.169 HD
ENDROOT
BRANCH   1   5
HETATM    5  C   UNL     1      42.997 -12.065   6.484  1.00  0.00     0.036 A 
HETATM    6  C   UNL     1      42.787 -11.647   5.172  1.00  0.00     0.055 A 
HETATM    7  C   UNL     1      42.819 -12.577   4.124  1.00  0.00     0.057 A 
HETATM    8  C   UNL     1      43.072 -13.944   4.357  1.00  0.00     0.030 A 
HETATM    9 CL   UNL     1      42.607 -11.991   2.506  1.00  0.00    -0.082 Cl
HETATM   10  C   UNL     1      43.203 -14.357   5.686  1.00  0.00     0.027 A 
HETATM   11  C   UNL     1      43.185 -13.429   6.734  1.00  0.00     0.031 A 
BRANCH   8  12
HETATM   12  N   UNL     1      43.108 -14.867   3.292  1.00  0.00    -0.287 NA
HETATM   13  H   UNL     1      44.055 -15.231   3.169  1.00  0.00     0.128 HD
BRANCH  12  14
HETATM   14  C   UNL     1      42.100 -15.922   3.298  1.00  0.00     0.131 C 
BRANCH  14  15
HETATM   15  C   UNL     1      42.762 -17.278   3.254  1.00  0.00    -0.045 A 
HETATM   16  C   UNL     1      43.577 -17.697   4.319  1.00  0.00     0.008 A 
HETATM   17  C   UNL     1      44.181 -18.954   4.299  1.00  0.00     0.001 A 
HETATM   18  C   UNL     1      43.982 -19.804   3.213  1.00  0.00     0.000 A 
HETATM   19  C   UNL     1      43.186 -19.395   2.144  1.00  0.00     0.001 A 
HETATM   20  C   UNL     1      42.583 -18.135   2.160  1.00  0.00     0.008 A 
ENDBRANCH  14  15
ENDBRANCH  12  14
ENDBRANCH   8  12
ENDBRANCH   1   5
BRANCH   2  21
HETATM   21  C   UNL     1      43.953 -10.070   9.581  1.00  0.00     0.032 A 
HETATM   22  C   UNL     1      43.866  -8.674   9.579  1.00  0.00     0.017 A 
HETATM   23  C   UNL     1      43.575  -7.982  10.761  1.00  0.00     0.008 A 
HETATM   24  C   UNL     1      43.380  -8.671  11.965  1.00  0.00    -0.057 A 
HETATM   25  C   UNL     1      43.522 -10.063  11.975  1.00  0.00     0.008 A 
HETATM   26  C   UNL     1      43.801 -10.756  10.794  1.00  0.00     0.017 A 
BRANCH  24  27
HETATM   27  C   UNL     1      43.018  -7.927  13.233  1.00  0.00     0.053 C 
BRANCH  27  28
HETATM   28  C   UNL     1      41.793  -8.458  13.992  1.00  0.00     0.091 C 
HETATM   29  C   UNL     1      40.502  -8.041  13.336  1.00  0.00     0.229 C 
HETATM   30  O   UNL     1      40.144  -8.348  12.211  1.00  0.00    -0.273 OA
HETATM   31  N   UNL     1      39.818  -7.233  14.184  1.00  0.00    -0.297 N 
HETATM   32  C   UNL     1      40.438  -7.059  15.376  1.00  0.00     0.225 C 
HETATM   33  H   UNL     1      38.958  -6.770  13.934  1.00  0.00     0.171 HD
HETATM   34  O   UNL     1      40.053  -6.335  16.278  1.00  0.00    -0.273 OA
HETATM   35  C   UNL     1      41.646  -7.949  15.427  1.00  0.00     0.117 C 
ENDBRANCH  27  28
ENDBRANCH  24  27
ENDBRANCH   2  21
TORSDOF 7
ENDMDL
MODEL 4
REMARK VINA RESULT:      -9.5      3.487     11.332
REMARK  7 active torsions:
REMARK  status: ('A' for Active; 'I' for Inactive)
REMARK    1  A    between atoms: C_4  and  C_5 
REMARK    2  A    between atoms: C_5  and  N_6 
REMARK    3  A    between atoms: N_6  and  C_7 
REMARK    4  A    between atoms: C_11  and  N_12 
REMARK       I    between atoms: N_12  and  C_13 
REMARK    5  A    between atoms: C_13  and  C_14 
REMARK    6  A    between atoms: C_17  and  C_18 
REMARK    7  A    between atoms: C_18  and  C_19 
ROOT
HETATM    1  N   UNL     1      42.532 -12.062   6.781  1.00  0.00    -0.323 N 
HETATM    2  C   UNL     1      43.615 -11.212   6.933  1.00  0.00     0.256 C 
HETATM    3  O   UNL     1      44.554 -11.100   6.154  1.00  0.00    -0.267 OA
HETATM    4  H   UNL     1      41.827 -12.057   7.503  1.00  0.00     0.169 HD
ENDROOT
BRANCH   1   5
HETATM    5  C   UNL     1      42.340 -13.033   5.773  1.00  0.00     0.036 A 
HETATM    6  C   UNL     1      42.203 -12.744   4.417  1.00  0.00     0.055 A 
HETATM    7  C   UNL     1      42.107 -13.785   3.483  1.00  0.00     0.057 A 
HETATM    8  C   UNL     1      42.155 -15.138   3.877  1.00  0.00     0.030 A 
HETATM    9 CL   UNL     1      41.996 -13.368   1.804  1.00  0.00    -0.082 Cl
HETATM   10  C   UNL     1      42.214 -15.407   5.248  1.00  0.00     0.027 A 
HETATM   11  C   UNL     1      42.323 -14.371   6.182  1.00  0.00     0.031 A 
BRANCH   8  12
HETATM   12  N   UNL     1      42.063 -16.175   2.926  1.00  0.00    -0.287 NA
HETATM   13  H   UNL     1      41.411 -15.917   2.183  1.00  0.00     0.128 HD
BRANCH  12  14
HETATM   14  C   UNL     1      43.317 -16.712   2.409  1.00  0.00     0.131 C 
BRANCH  14  15
HETATM   15  C   UNL     1      43.533 -18.117   2.918  1.00  0.00    -0.045 A 
HETATM   16  C   UNL     1      43.250 -19.215   2.090  1.00  0.00     0.008 A 
HETATM   17  C   UNL     1      43.461 -20.518   2.543  1.00  0.00     0.001 A 
HETATM   18  C   UNL     1      43.953 -20.737   3.828  1.00  0.00     0.000 A 
HETATM   19  C   UNL     1      44.224 -19.655   4.664  1.00  0.00     0.001 A 
HETATM   20  C   UNL     1      44.011 -18.350   4.215  1.00  0.00     0.008 A 
ENDBRANCH  14  15
ENDBRANCH  12  14
ENDBRANCH   8  12
ENDBRANCH   1   5
BRANCH   2  21
HETATM   21  C   UNL     1      43.638 -10.399   8.193  1.00  0.00     0.032 A 
HETATM   22  C   UNL     1      43.091  -9.115   8.295  1.00  0.00     0.017 A 
HETATM   23  C   UNL     1      43.093  -8.441   9.522  1.00  0.00     0.008 A 
HETATM   24  C   UNL     1      43.652  -9.031  10.663  1.00  0.00    -0.057 A 
HETATM   25  C   UNL     1      44.248 -10.291  10.545  1.00  0.00     0.008 A 
HETATM   26  C   UNL     1      44.237 -10.971   9.325  1.00  0.00     0.017 A 
BRANCH  24  27
HETATM   27  C   UNL     1      43.612  -8.322  12.000  1.00  0.00     0.053 C 
BRANCH  27  28
HETATM   28  C   UNL     1      42.212  -8.012  12.550  1.00  0.00     0.091 C 
HETATM   29  C   UNL     1      42.180  -8.043  14.057  1.00  0.00     0.229 C 
HETATM   30  O   UNL     1      42.815  -7.310  14.797  1.00  0.00    -0.273 OA
HETATM   31  N   UNL     1      41.364  -9.048  14.459  1.00  0.00    -0.297 N 
HETATM   32  C   UNL     1      40.776  -9.706  13.431  1.00  0.00     0.225 C 
HETATM   33  H   UNL     1      41.244  -9.310  15.425  1.00  0.00     0.171 HD
HETATM   34  O   UNL     1      40.048 -10.678  13.532  1.00  0.00    -0.273 OA
HETATM   35  C   UNL     1      41.119  -9.004  12.149  1.00  0.00     0.117 C 
ENDBRANCH  27  28
ENDBRANCH  24  27
ENDBRANCH   2  21
TORSDOF 7
ENDMDL
MODEL 5
REMARK VINA RESULT:      -9.0      6.960      9.706
REMARK  7 active torsions:
REMARK  status: ('A' for Active; 'I' for Inactive)
REMARK    1  A    between atoms: C_4  and  C_5 
REMARK    2  A    between atoms: C_5  and  N_6 
REMARK    3  A    between atoms: N_6  and  C_7 
REMARK    4  A    between atoms: C_11  and  N_12 
REMARK       I    between atoms: N_12  and  C_13 
REMARK    5  A    between atoms: C_13  and  C_14 
REMARK    6  A    between atoms: C_17  and  C_18 
REMARK    7  A    between atoms: C_18  and  C_19 
ROOT
HETATM    1  N   UNL     1      40.579 -14.000  -0.487  1.00  0.00    -0.323 N 
HETATM    2  C   UNL     1      41.070 -13.837   0.797  1.00  0.00     0.256 C 
HETATM    3  O   UNL     1      41.069 -12.792   1.438  1.00  0.00    -0.267 OA
HETATM    4  H   UNL     1      40.646 -14.919  -0.901  1.00  0.00     0.169 HD
ENDROOT
BRANCH   1   5
HETATM    5  C   UNL     1      40.084 -12.997  -1.350  1.00  0.00     0.036 A 
HETATM    6  C   UNL     1      38.790 -12.485  -1.301  1.00  0.00     0.055 A 
HETATM    7  C   UNL     1      38.421 -11.426  -2.142  1.00  0.00     0.057 A 
HETATM    8  C   UNL     1      39.336 -10.845  -3.043  1.00  0.00     0.030 A 
HETATM    9 CL   UNL     1      36.814 -10.791  -1.998  1.00  0.00    -0.082 Cl
HETATM   10  C   UNL     1      40.606 -11.423  -3.134  1.00  0.00     0.027 A 
HETATM   11  C   UNL     1      40.982 -12.472  -2.287  1.00  0.00     0.031 A 
BRANCH   8  12
HETATM   12  N   UNL     1      38.953  -9.776  -3.879  1.00  0.00    -0.287 NA
HETATM   13  H   UNL     1      38.056  -9.978  -4.326  1.00  0.00     0.128 HD
BRANCH  12  14
HETATM   14  C   UNL     1      39.003  -8.436  -3.305  1.00  0.00     0.131 C 
BRANCH  14  15
HETATM   15  C   UNL     1      40.435  -8.020  -3.072  1.00  0.00    -0.045 A 
HETATM   16  C   UNL     1      41.283  -7.777  -4.166  1.00  0.00     0.008 A 
HETATM   17  C   UNL     1      42.603  -7.376  -3.965  1.00  0.00     0.001 A 
HETATM   18  C   UNL     1      43.093  -7.217  -2.670  1.00  0.00     0.000 A 
HETATM   19  C   UNL     1      42.265  -7.468  -1.577  1.00  0.00     0.001 A 
HETATM   20  C   UNL     1      40.944  -7.873  -1.775  1.00  0.00     0.008 A 
ENDBRANCH  14  15
ENDBRANCH  12  14
ENDBRANCH   8  12
ENDBRANCH   1   5
BRANCH   2  21
HETATM   21  C   UNL     1      41.692 -15.050   1.422  1.00  0.00     0.032 A 
HETATM   22  C   UNL     1      40.955 -16.047   2.073  1.00  0.00     0.017 A 
HETATM   23  C   UNL     1      41.598 -17.185   2.576  1.00  0.00     0.008 A 
HETATM   24  C   UNL     1      42.984 -17.340   2.450  1.00  0.00    -0.057 A 
HETATM   25  C   UNL     1      43.724 -16.316   1.849  1.00  0.00     0.008 A 
HETATM   26  C   UNL     1      43.084 -15.186   1.335  1.00  0.00     0.017 A 
BRANCH  24  27
HETATM   27  C   UNL     1      43.672 -18.591   2.952  1.00  0.00     0.053 C 
BRANCH  27  28
HETATM   28  C   UNL     1      44.400 -18.460   4.298  1.00  0.00     0.091 C 
HETATM   29  C   UNL     1      44.017 -19.563   5.253  1.00  0.00     0.229 C 
HETATM   30  O   UNL     1      44.209 -20.755   5.077  1.00  0.00    -0.273 OA
HETATM   31  N   UNL     1      43.385 -19.019   6.323  1.00  0.00    -0.297 N 
HETATM   32  C   UNL     1      43.311 -17.668   6.272  1.00  0.00     0.225 C 
HETATM   33  H   UNL     1      42.972 -19.569   7.059  1.00  0.00     0.171 HD
HETATM   34  O   UNL     1      42.744 -16.955   7.083  1.00  0.00    -0.273 OA
HETATM   35  C   UNL     1      44.092 -17.185   5.084  1.00  0.00     0.117 C 
ENDBRANCH  27  28
ENDBRANCH  24  27
ENDBRANCH   2  21
TORSDOF 7
ENDMDL
MODEL 6
REMARK VINA RESULT:      -8.8     17.463     20.984
REMARK  7 active torsions:
REMARK  status: ('A' for Active; 'I' for Inactive)
REMARK    1  A    between atoms: C_4  and  C_5 
REMARK    2  A    between atoms: C_5  and  N_6 
REMARK    3  A    between atoms: N_6  and  C_7 
REMARK    4  A    between atoms: C_11  and  N_12 
REMARK       I    between atoms: N_12  and  C_13 
REMARK    5  A    between atoms: C_13  and  C_14 
REMARK    6  A    between atoms: C_17  and  C_18 
REMARK    7  A    between atoms: C_18  and  C_19 
ROOT
HETATM    1  N   UNL     1      49.796 -30.321   3.501  1.00  0.00    -0.323 N 
HETATM    2  C   UNL     1      49.461 -31.419   4.274  1.00  0.00     0.256 C 
HETATM    3  O   UNL     1      48.452 -32.104   4.149  1.00  0.00    -0.267 OA
HETATM    4  H   UNL     1      50.659 -29.843   3.715  1.00  0.00     0.169 HD
ENDROOT
BRANCH   1   5
HETATM    5  C   UNL     1      49.013 -29.707   2.498  1.00  0.00     0.036 A 
HETATM    6  C   UNL     1      49.108 -29.995   1.138  1.00  0.00     0.055 A 
HETATM    7  C   UNL     1      48.224 -29.398   0.230  1.00  0.00     0.057 A 
HETATM    8  C   UNL     1      47.216 -28.509   0.655  1.00  0.00     0.030 A 
HETATM    9 CL   UNL     1      48.351 -29.837  -1.443  1.00  0.00    -0.082 Cl
HETATM   10  C   UNL     1      47.186 -28.172   2.012  1.00  0.00     0.027 A 
HETATM   11  C   UNL     1      48.059 -28.776   2.924  1.00  0.00     0.031 A 
BRANCH   8  12
HETATM   12  N   UNL     1      46.329 -27.920  -0.269  1.00  0.00    -0.287 NA
HETATM   13  H   UNL     1      46.814 -27.716  -1.146  1.00  0.00     0.128 HD
BRANCH  12  14
HETATM   14  C   UNL     1      45.051 -28.590  -0.480  1.00  0.00     0.131 C 
BRANCH  14  15
HETATM   15  C   UNL     1      44.861 -28.906  -1.944  1.00  0.00    -0.045 A 
HETATM   16  C   UNL     1      44.219 -30.094  -2.329  1.00  0.00     0.008 A 
HETATM   17  C   UNL     1      44.022 -30.389  -3.678  1.00  0.00     0.001 A 
HETATM   18  C   UNL     1      44.469 -29.504  -4.656  1.00  0.00     0.000 A 
HETATM   19  C   UNL     1      45.119 -28.327  -4.287  1.00  0.00     0.001 A 
HETATM   20  C   UNL     1      45.321 -28.031  -2.937  1.00  0.00     0.008 A 
ENDBRANCH  14  15
ENDBRANCH  12  14
ENDBRANCH   8  12
ENDBRANCH   1   5
BRANCH   2  21
HETATM   21  C   UNL     1      50.411 -31.754   5.385  1.00  0.00     0.032 A 
HETATM   22  C   UNL     1      50.157 -32.738   6.348  1.00  0.00     0.017 A 
HETATM   23  C   UNL     1      51.120 -33.041   7.318  1.00  0.00     0.008 A 
HETATM   24  C   UNL     1      52.343 -32.359   7.353  1.00  0.00    -0.057 A 
HETATM   25  C   UNL     1      52.570 -31.338   6.424  1.00  0.00     0.008 A 
HETATM   26  C   UNL     1      51.616 -31.042   5.447  1.00  0.00     0.017 A 
BRANCH  24  27
HETATM   27  C   UNL     1      53.403 -32.719   8.372  1.00  0.00     0.053 C 
BRANCH  27  28
HETATM   28  C   UNL     1      53.437 -31.848   9.636  1.00  0.00     0.091 C 
HETATM   29  C   UNL     1      54.840 -31.674  10.160  1.00  0.00     0.229 C 
HETATM   30  O   UNL     1      55.760 -31.137   9.565  1.00  0.00    -0.273 OA
HETATM   31  N   UNL     1      54.928 -32.248  11.386  1.00  0.00    -0.297 N 
HETATM   32  C   UNL     1      53.754 -32.768  11.819  1.00  0.00     0.225 C 
HETATM   33  H   UNL     1      55.790 -32.322  11.901  1.00  0.00     0.171 HD
HETATM   34  O   UNL     1      53.590 -33.384  12.858  1.00  0.00    -0.273 OA
HETATM   35  C   UNL     1      52.675 -32.412  10.837  1.00  0.00     0.117 C 
ENDBRANCH  27  28
ENDBRANCH  24  27
ENDBRANCH   2  21
TORSDOF 7
ENDMDL
MODEL 7
REMARK VINA RESULT:      -8.7      1.744      2.584
REMARK  7 active torsions:
REMARK  status: ('A' for Active; 'I' for Inactive)
REMARK    1  A    between atoms: C_4  and  C_5 
REMARK    2  A    between atoms: C_5  and  N_6 
REMARK    3  A    between atoms: N_6  and  C_7 
REMARK    4  A    between atoms: C_11  and  N_12 
REMARK       I    between atoms: N_12  and  C_13 
REMARK    5  A    between atoms: C_13  and  C_14 
REMARK    6  A    between atoms: C_17  and  C_18 
REMARK    7  A    between atoms: C_18  and  C_19 
ROOT
HETATM    1  N   UNL     1      43.005 -10.940   6.502  1.00  0.00    -0.323 N 
HETATM    2  C   UNL     1      41.921 -11.624   5.979  1.00  0.00     0.256 C 
HETATM    3  O   UNL     1      40.742 -11.403   6.232  1.00  0.00    -0.267 OA
HETATM    4  H   UNL     1      43.927 -11.229   6.211  1.00  0.00     0.169 HD
ENDROOT
BRANCH   1   5
HETATM    5  C   UNL     1      42.986  -9.937   7.497  1.00  0.00     0.036 A 
HETATM    6  C   UNL     1      43.588 -10.057   8.748  1.00  0.00     0.055 A 
HETATM    7  C   UNL     1      43.591  -8.971   9.634  1.00  0.00     0.057 A 
HETATM    8  C   UNL     1      43.006  -7.736   9.290  1.00  0.00     0.030 A 
HETATM    9 CL   UNL     1      44.403  -9.160  11.154  1.00  0.00    -0.082 Cl
HETATM   10  C   UNL     1      42.339  -7.659   8.063  1.00  0.00     0.027 A 
HETATM   11  C   UNL     1      42.345  -8.737   7.171  1.00  0.00     0.031 A 
BRANCH   8  12
HETATM   12  N   UNL     1      43.022  -6.650  10.189  1.00  0.00    -0.287 NA
HETATM   13  H   UNL     1      43.417  -5.822   9.738  1.00  0.00     0.128 HD
BRANCH  12  14
HETATM   14  C   UNL     1      41.781  -6.360  10.899  1.00  0.00     0.131 C 
BRANCH  14  15
HETATM   15  C   UNL     1      41.807  -6.985  12.273  1.00  0.00    -0.045 A 
HETATM   16  C   UNL     1      40.779  -7.857  12.668  1.00  0.00     0.008 A 
HETATM   17  C   UNL     1      40.800  -8.454  13.929  1.00  0.00     0.001 A 
HETATM   18  C   UNL     1      41.846  -8.184  14.809  1.00  0.00     0.000 A 
HETATM   19  C   UNL     1      42.866  -7.311  14.433  1.00  0.00     0.001 A 
HETATM   20  C   UNL     1      42.845  -6.709  13.173  1.00  0.00     0.008 A 
ENDBRANCH  14  15
ENDBRANCH  12  14
ENDBRANCH   8  12
ENDBRANCH   1   5
BRANCH   2  21
HETATM   21  C   UNL     1      42.246 -12.761   5.056  1.00  0.00     0.032 A 
HETATM   22  C   UNL     1      42.955 -12.606   3.859  1.00  0.00     0.017 A 
HETATM   23  C   UNL     1      43.278 -13.723   3.079  1.00  0.00     0.008 A 
HETATM   24  C   UNL     1      42.888 -15.009   3.473  1.00  0.00    -0.057 A 
HETATM   25  C   UNL     1      42.132 -15.155   4.641  1.00  0.00     0.008 A 
HETATM   26  C   UNL     1      41.819 -14.043   5.427  1.00  0.00     0.017 A 
BRANCH  24  27
HETATM   27  C   UNL     1      43.278 -16.222   2.656  1.00  0.00     0.053 C 
BRANCH  27  28
HETATM   28  C   UNL     1      42.887 -17.583   3.250  1.00  0.00     0.091 C 
HETATM   29  C   UNL     1      44.009 -18.187   4.056  1.00  0.00     0.229 C 
HETATM   30  O   UNL     1      44.503 -17.704   5.061  1.00  0.00    -0.273 OA
HETATM   31  N   UNL     1      44.411 -19.336   3.459  1.00  0.00    -0.297 N 
HETATM   32  C   UNL     1      43.688 -19.649   2.357  1.00  0.00     0.225 C 
HETATM   33  H   UNL     1      45.199 -19.878   3.776  1.00  0.00     0.171 HD
HETATM   34  O   UNL     1      43.891 -20.598   1.618  1.00  0.00    -0.273 OA
HETATM   35  C   UNL     1      42.557 -18.670   2.226  1.00  0.00     0.117 C 
ENDBRANCH  27  28
ENDBRANCH  24  27
ENDBRANCH   2  21
TORSDOF 7
ENDMDL
MODEL 8
REMARK VINA RESULT:      -8.7      3.863     12.033
REMARK  7 active torsions:
REMARK  status: ('A' for Active; 'I' for Inactive)
REMARK    1  A    between atoms: C_4  and  C_5 
REMARK    2  A    between atoms: C_5  and  N_6 
REMARK    3  A    between atoms: N_6  and  C_7 
REMARK    4  A    between atoms: C_11  and  N_12 
REMARK       I    between atoms: N_12  and  C_13 
REMARK    5  A    between atoms: C_13  and  C_14 
REMARK    6  A    between atoms: C_17  and  C_18 
REMARK    7  A    between atoms: C_18  and  C_19 
ROOT
HETATM    1  N   UNL     1      42.555 -11.446   7.069  1.00  0.00    -0.323 N 
HETATM    2  C   UNL     1      42.587 -10.222   6.422  1.00  0.00     0.256 C 
HETATM    3  O   UNL     1      42.578 -10.051   5.208  1.00  0.00    -0.267 OA
HETATM    4  H   UNL     1      42.572 -11.444   8.078  1.00  0.00     0.169 HD
ENDROOT
BRANCH   1   5
HETATM    5  C   UNL     1      42.613 -12.729   6.479  1.00  0.00     0.036 A 
HETATM    6  C   UNL     1      43.620 -13.661   6.719  1.00  0.00     0.055 A 
HETATM    7  C   UNL     1      43.541 -14.941   6.155  1.00  0.00     0.057 A 
HETATM    8  C   UNL     1      42.451 -15.328   5.348  1.00  0.00     0.030 A 
HETATM    9 CL   UNL     1      44.793 -16.079   6.533  1.00  0.00    -0.082 Cl
HETATM   10  C   UNL     1      41.491 -14.355   5.055  1.00  0.00     0.027 A 
HETATM   11  C   UNL     1      41.559 -13.079   5.627  1.00  0.00     0.031 A 
BRANCH   8  12
HETATM   12  N   UNL     1      42.381 -16.621   4.792  1.00  0.00    -0.287 NA
HETATM   13  H   UNL     1      41.410 -16.935   4.744  1.00  0.00     0.128 HD
BRANCH  12  14
HETATM   14  C   UNL     1      43.104 -16.845   3.545  1.00  0.00     0.131 C 
BRANCH  14  15
HETATM   15  C   UNL     1      43.418 -18.313   3.379  1.00  0.00    -0.045 A 
HETATM   16  C   UNL     1      43.929 -19.048   4.462  1.00  0.00     0.008 A 
HETATM   17  C   UNL     1      44.207 -20.409   4.327  1.00  0.00     0.001 A 
HETATM   18  C   UNL     1      43.983 -21.047   3.109  1.00  0.00     0.000 A 
HETATM   19  C   UNL     1      43.489 -20.325   2.024  1.00  0.00     0.001 A 
HETATM   20  C   UNL     1      43.213 -18.963   2.155  1.00  0.00     0.008 A 
ENDBRANCH  14  15
ENDBRANCH  12  14
ENDBRANCH   8  12
ENDBRANCH   1   5
BRANCH   2  21
HETATM   21  C   UNL     1      42.685  -9.015   7.307  1.00  0.00     0.032 A 
HETATM   22  C   UNL     1      41.824  -7.915   7.211  1.00  0.00     0.017 A 
HETATM   23  C   UNL     1      41.935  -6.851   8.114  1.00  0.00     0.008 A 
HETATM   24  C   UNL     1      42.912  -6.860   9.117  1.00  0.00    -0.057 A 
HETATM   25  C   UNL     1      43.806  -7.935   9.176  1.00  0.00     0.008 A 
HETATM   26  C   UNL     1      43.691  -9.004   8.283  1.00  0.00     0.017 A 
BRANCH  24  27
HETATM   27  C   UNL     1      43.001  -5.733  10.123  1.00  0.00     0.053 C 
BRANCH  27  28
HETATM   28  C   UNL     1      41.999  -5.793  11.285  1.00  0.00     0.091 C 
HETATM   29  C   UNL     1      42.199  -4.659  12.258  1.00  0.00     0.229 C 
HETATM   30  O   UNL     1      42.082  -3.472  12.001  1.00  0.00    -0.273 OA
HETATM   31  N   UNL     1      42.571  -5.168  13.459  1.00  0.00    -0.297 N 
HETATM   32  C   UNL     1      42.618  -6.522  13.475  1.00  0.00     0.225 C 
HETATM   33  H   UNL     1      42.833  -4.596  14.245  1.00  0.00     0.171 HD
HETATM   34  O   UNL     1      42.978  -7.210  14.415  1.00  0.00    -0.273 OA
HETATM   35  C   UNL     1      42.096  -7.040  12.165  1.00  0.00     0.117 C 
ENDBRANCH  27  28
ENDBRANCH  24  27
ENDBRANCH   2  21
TORSDOF 7
ENDMDL
MODEL 9
REMARK VINA RESULT:      -8.5      8.177     12.378
REMARK  7 active torsions:
REMARK  status: ('A' for Active; 'I' for Inactive)
REMARK    1  A    between atoms: C_4  and  C_5 
REMARK    2  A    between atoms: C_5  and  N_6 
REMARK    3  A    between atoms: N_6  and  C_7 
REMARK    4  A    between atoms: C_11  and  N_12 
REMARK       I    between atoms: N_12  and  C_13 
REMARK    5  A    between atoms: C_13  and  C_14 
REMARK    6  A    between atoms: C_17  and  C_18 
REMARK    7  A    between atoms: C_18  and  C_19 
ROOT
HETATM    1  N   UNL     1      39.076 -13.191   0.315  1.00  0.00    -0.323 N 
HETATM    2  C   UNL     1      39.057 -12.690  -0.976  1.00  0.00     0.256 C 
HETATM    3  O   UNL     1      39.928 -12.856  -1.823  1.00  0.00    -0.267 OA
HETATM    4  H   UNL     1      38.292 -12.974   0.912  1.00  0.00     0.169 HD
ENDROOT
BRANCH   1   5
HETATM    5  C   UNL     1      40.127 -13.891   0.947  1.00  0.00     0.036 A 
HETATM    6  C   UNL     1      41.262 -13.289   1.486  1.00  0.00     0.055 A 
HETATM    7  C   UNL     1      42.207 -14.061   2.174  1.00  0.00     0.057 A 
HETATM    8  C   UNL     1      42.040 -15.449   2.352  1.00  0.00     0.030 A 
HETATM    9 CL   UNL     1      43.571 -13.250   2.873  1.00  0.00    -0.082 Cl
HETATM   10  C   UNL     1      40.935 -16.048   1.738  1.00  0.00     0.027 A 
HETATM   11  C   UNL     1      39.982 -15.278   1.061  1.00  0.00     0.031 A 
BRANCH   8  12
HETATM   12  N   UNL     1      42.996 -16.213   3.052  1.00  0.00    -0.287 NA
HETATM   13  H   UNL     1      42.624 -16.503   3.959  1.00  0.00     0.128 HD
BRANCH  12  14
HETATM   14  C   UNL     1      43.624 -17.312   2.327  1.00  0.00     0.131 C 
BRANCH  14  15
HETATM   15  C   UNL     1      43.737 -18.527   3.217  1.00  0.00    -0.045 A 
HETATM   16  C   UNL     1      43.865 -18.371   4.607  1.00  0.00     0.008 A 
HETATM   17  C   UNL     1      43.954 -19.485   5.441  1.00  0.00     0.001 A 
HETATM   18  C   UNL     1      43.919 -20.766   4.896  1.00  0.00     0.000 A 
HETATM   19  C   UNL     1      43.805 -20.935   3.516  1.00  0.00     0.001 A 
HETATM   20  C   UNL     1      43.720 -19.821   2.678  1.00  0.00     0.008 A 
ENDBRANCH  14  15
ENDBRANCH  12  14
ENDBRANCH   8  12
ENDBRANCH   1   5
BRANCH   2  21
HETATM   21  C   UNL     1      37.876 -11.837  -1.332  1.00  0.00     0.032 A 
HETATM   22  C   UNL     1      37.318 -10.890  -0.466  1.00  0.00     0.017 A 
HETATM   23  C   UNL     1      36.256 -10.083  -0.891  1.00  0.00     0.008 A 
HETATM   24  C   UNL     1      35.725 -10.217  -2.180  1.00  0.00    -0.057 A 
HETATM   25  C   UNL     1      36.248 -11.202  -3.024  1.00  0.00     0.008 A 
HETATM   26  C   UNL     1      37.316 -12.000  -2.607  1.00  0.00     0.017 A 
BRANCH  24  27
HETATM   27  C   UNL     1      34.608  -9.313  -2.656  1.00  0.00     0.053 C 
BRANCH  27  28
HETATM   28  C   UNL     1      33.183  -9.787  -2.338  1.00  0.00     0.091 C 
HETATM   29  C   UNL     1      32.547 -10.484  -3.515  1.00  0.00     0.229 C 
HETATM   30  O   UNL     1      32.951 -11.511  -4.036  1.00  0.00    -0.273 OA
HETATM   31  N   UNL     1      31.477  -9.762  -3.929  1.00  0.00    -0.297 N 
HETATM   32  C   UNL     1      31.243  -8.666  -3.169  1.00  0.00     0.225 C 
HETATM   33  H   UNL     1      30.938  -9.993  -4.749  1.00  0.00     0.171 HD
HETATM   34  O   UNL     1      30.378  -7.831  -3.372  1.00  0.00    -0.273 OA
HETATM   35  C   UNL     1      32.186  -8.677  -2.000  1.00  0.00     0.117 C 
ENDBRANCH  27  28
ENDBRANCH  24  27
ENDBRANCH   2  21
TORSDOF 7
ENDMDL
MODEL 10
REMARK VINA RESULT:      -8.3      2.065      2.746
REMARK  7 active torsions:
REMARK  status: ('A' for Active; 'I' for Inactive)
REMARK    1  A    between atoms: C_4  and  C_5 
REMARK    2  A    between atoms: C_5  and  N_6 
REMARK    3  A    between atoms: N_6  and  C_7 
REMARK    4  A    between atoms: C_11  and  N_12 
REMARK       I    between atoms: N_12  and  C_13 
REMARK    5  A    between atoms: C_13  and  C_14 
REMARK    6  A    between atoms: C_17  and  C_18 
REMARK    7  A    between atoms: C_18  and  C_19 
ROOT
HETATM    1  N   UNL     1      41.782 -10.698   7.235  1.00  0.00    -0.323 N 
HETATM    2  C   UNL     1      41.190 -11.059   6.036  1.00  0.00     0.256 C 
HETATM    3  O   UNL     1      40.479 -10.340   5.342  1.00  0.00    -0.267 OA
HETATM    4  H   UNL     1      42.342 -11.391   7.708  1.00  0.00     0.169 HD
ENDROOT
BRANCH   1   5
HETATM    5  C   UNL     1      41.608  -9.490   7.947  1.00  0.00     0.036 A 
HETATM    6  C   UNL     1      40.442  -9.134   8.622  1.00  0.00     0.055 A 
HETATM    7  C   UNL     1      40.398  -7.954   9.375  1.00  0.00     0.057 A 
HETATM    8  C   UNL     1      41.518  -7.106   9.486  1.00  0.00     0.030 A 
HETATM    9 CL   UNL     1      38.939  -7.590  10.239  1.00  0.00    -0.082 Cl
HETATM   10  C   UNL     1      42.654  -7.439   8.740  1.00  0.00     0.027 A 
HETATM   11  C   UNL     1      42.705  -8.623   7.997  1.00  0.00     0.031 A 
BRANCH   8  12
HETATM   12  N   UNL     1      41.462  -5.924  10.253  1.00  0.00    -0.287 NA
HETATM   13  H   UNL     1      40.497  -5.720  10.520  1.00  0.00     0.128 HD
BRANCH  12  14
HETATM   14  C   UNL     1      42.388  -5.820  11.376  1.00  0.00     0.131 C 
BRANCH  14  15
HETATM   15  C   UNL     1      42.028  -6.823  12.445  1.00  0.00    -0.045 A 
HETATM   16  C   UNL     1      40.831  -6.680  13.167  1.00  0.00     0.008 A 
HETATM   17  C   UNL     1      40.479  -7.609  14.146  1.00  0.00     0.001 A 
HETATM   18  C   UNL     1      41.319  -8.687  14.417  1.00  0.00     0.000 A 
HETATM   19  C   UNL     1      42.515  -8.832  13.716  1.00  0.00     0.001 A 
HETATM   20  C   UNL     1      42.873  -7.902  12.738  1.00  0.00     0.008 A 
ENDBRANCH  14  15
ENDBRANCH  12  14
ENDBRANCH   8  12
ENDBRANCH   1   5
BRANCH   2  21
HETATM   21  C   UNL     1      41.418 -12.472   5.591  1.00  0.00     0.032 A 
HETATM   22  C   UNL     1      42.545 -12.882   4.869  1.00  0.00     0.017 A 
HETATM   23  C   UNL     1      42.722 -14.232   4.543  1.00  0.00     0.008 A 
HETATM   24  C   UNL     1      41.774 -15.192   4.919  1.00  0.00    -0.057 A 
HETATM   25  C   UNL     1      40.622 -14.770   5.592  1.00  0.00     0.008 A 
HETATM   26  C   UNL     1      40.448 -13.426   5.929  1.00  0.00     0.017 A 
BRANCH  24  27
HETATM   27  C   UNL     1      41.988 -16.657   4.609  1.00  0.00     0.053 C 
BRANCH  27  28
HETATM   28  C   UNL     1      43.437 -17.072   4.311  1.00  0.00     0.091 C 
HETATM   29  C   UNL     1      43.555 -17.791   2.991  1.00  0.00     0.229 C 
HETATM   30  O   UNL     1      43.290 -17.320   1.897  1.00  0.00    -0.273 OA
HETATM   31  N   UNL     1      43.964 -19.065   3.218  1.00  0.00    -0.297 N 
HETATM   32  C   UNL     1      44.195 -19.328   4.527  1.00  0.00     0.225 C 
HETATM   33  H   UNL     1      44.042 -19.758   2.491  1.00  0.00     0.171 HD
HETATM   34  O   UNL     1      44.513 -20.410   4.989  1.00  0.00    -0.273 OA
HETATM   35  C   UNL     1      44.052 -18.054   5.309  1.00  0.00     0.117 C 
ENDBRANCH  27  28
ENDBRANCH  24  27
ENDBRANCH   2  21
TORSDOF 7
ENDMDL
