MODEL 1
REMARK VINA RESULT:      -8.7      0.000      0.000
REMARK  6 active torsions:
REMARK  status: ('A' for Active; 'I' for Inactive)
REMARK    1  A    between atoms: C_4  and  N_5 
REMARK    2  A    between atoms: C_6  and  S_7 
REMARK    3  A    between atoms: S_7  and  C_8 
REMARK    4  A    between atoms: C_8  and  C_9 
REMARK       I    between atoms: C_9  and  N_10 
REMARK    5  A    between atoms: N_10  and  C_11 
REMARK    6  A    between atoms: C_24  and  C_25 
ROOT
HETATM    1  N   UNL     1      42.470 -14.506   4.723  1.00  0.00    -0.271 N 
HETATM    2  C   UNL     1      42.518 -13.250   5.312  1.00  0.00     0.197 A 
HETATM    3  N   UNL     1      43.349 -13.252   6.328  1.00  0.00    -0.122 NA
HETATM    4  N   UNL     1      43.872 -14.505   6.441  1.00  0.00    -0.128 NA
HETATM    5  C   UNL     1      43.331 -15.276   5.513  1.00  0.00     0.169 A 
ENDROOT
BRANCH   2   6
HETATM    6  S   UNL     1      41.759 -11.807   4.712  1.00  0.00    -0.080 SA
BRANCH   6   7
HETATM    7  C   UNL     1      42.769 -11.508   3.228  1.00  0.00     0.185 C 
BRANCH   7   8
HETATM    8  C   UNL     1      41.893 -11.095   2.057  1.00  0.00     0.231 C 
HETATM    9  N   UNL     1      41.664 -12.129   1.159  1.00  0.00    -0.326 N 
HETATM   10  H   UNL     1      42.214 -12.968   1.302  1.00  0.00     0.169 HD
HETATM   11  O   UNL     1      41.421  -9.963   1.990  1.00  0.00    -0.272 OA
BRANCH   9  12
HETATM   12  C   UNL     1      40.810 -12.120   0.036  1.00  0.00     0.037 A 
HETATM   13  C   UNL     1      39.523 -12.672   0.039  1.00  0.00     0.061 A 
HETATM   14  C   UNL     1      38.811 -12.612  -1.138  1.00  0.00     0.065 A 
HETATM   15  C   UNL     1      39.324 -12.031  -2.294  1.00  0.00     0.063 A 
HETATM   16  N   UNL     1      37.534 -13.082  -1.427  1.00  0.00    -0.306 N 
HETATM   17  N   UNL     1      38.363 -12.139  -3.292  1.00  0.00    -0.307 N 
HETATM   18  C   UNL     1      40.578 -11.477  -2.335  1.00  0.00     0.034 A 
HETATM   19  C   UNL     1      37.239 -12.794  -2.767  1.00  0.00     0.325 A 
HETATM   20  H   UNL     1      38.428 -11.819  -4.245  1.00  0.00     0.170 HD
HETATM   21  O   UNL     1      36.212 -13.063  -3.363  1.00  0.00    -0.247 OA
HETATM   22  C   UNL     1      41.326 -11.530  -1.150  1.00  0.00     0.032 A 
HETATM   23  H   UNL     1      36.903 -13.554  -0.799  1.00  0.00     0.170 HD
ENDBRANCH   9  12
ENDBRANCH   7   8
ENDBRANCH   6   7
ENDBRANCH   2   6
BRANCH   1  24
HETATM   24  C   UNL     1      41.750 -14.927   3.569  1.00  0.00     0.043 A 
HETATM   25  C   UNL     1      42.421 -15.104   2.350  1.00  0.00     0.030 A 
HETATM   26  C   UNL     1      41.724 -15.540   1.221  1.00  0.00     0.002 A 
HETATM   27  C   UNL     1      40.358 -15.800   1.299  1.00  0.00     0.000 A 
HETATM   28  C   UNL     1      39.685 -15.624   2.507  1.00  0.00     0.002 A 
HETATM   29  C   UNL     1      40.375 -15.189   3.641  1.00  0.00     0.030 A 
ENDBRANCH   1  24
BRANCH   5  30
HETATM   30  C   UNL     1      43.568 -16.720   5.436  1.00  0.00     0.012 A 
HETATM   31  C   UNL     1      44.105 -17.321   4.287  1.00  0.00     0.017 A 
HETATM   32  C   UNL     1      44.302 -18.705   4.237  1.00  0.00     0.025 A 
HETATM   33  C   UNL     1      43.951 -19.496   5.328  1.00  0.00     0.034 A 
HETATM   34 CL   UNL     1      44.195 -21.197   5.265  1.00  0.00    -0.084 Cl
HETATM   35  C   UNL     1      43.396 -18.917   6.468  1.00  0.00     0.025 A 
HETATM   36  C   UNL     1      43.201 -17.535   6.518  1.00  0.00     0.017 A 
ENDBRANCH   5  30
TORSDOF 6
ENDMDL
MODEL 2
REMARK VINA RESULT:      -8.7      2.259      3.630
REMARK  6 active torsions:
REMARK  status: ('A' for Active; 'I' for Inactive)
REMARK    1  A    between atoms: C_4  and  N_5 
REMARK    2  A    between atoms: C_6  and  S_7 
REMARK    3  A    between atoms: S_7  and  C_8 
REMARK    4  A    between atoms: C_8  and  C_9 
REMARK       I    between atoms: C_9  and  N_10 
REMARK    5  A    between atoms: N_10  and  C_11 
REMARK    6  A    between atoms: C_24  and  C_25 
ROOT
HETATM    1  N   UNL     1      41.559 -12.986   6.025  1.00  0.00    -0.271 N 
HETATM    2  C   UNL     1      40.370 -12.297   6.223  1.00  0.00     0.197 A 
HETATM    3  N   UNL     1      39.365 -13.135   6.313  1.00  0.00    -0.122 NA
HETATM    4  N   UNL     1      39.857 -14.398   6.178  1.00  0.00    -0.128 NA
HETATM    5  C   UNL     1      41.161 -14.326   5.968  1.00  0.00     0.169 A 
ENDROOT
BRANCH   2   6
HETATM    6  S   UNL     1      40.210 -10.590   6.509  1.00  0.00    -0.080 SA
BRANCH   6   7
HETATM    7  C   UNL     1      39.197 -10.119   5.072  1.00  0.00     0.185 C 
BRANCH   7   8
HETATM    8  C   UNL     1      39.791 -10.679   3.790  1.00  0.00     0.231 C 
HETATM    9  N   UNL     1      39.132 -11.814   3.338  1.00  0.00    -0.326 N 
HETATM   10  H   UNL     1      38.452 -12.214   3.975  1.00  0.00     0.169 HD
HETATM   11  O   UNL     1      40.724 -10.114   3.227  1.00  0.00    -0.272 OA
BRANCH   9  12
HETATM   12  C   UNL     1      39.348 -12.511   2.130  1.00  0.00     0.037 A 
HETATM   13  C   UNL     1      39.025 -11.994   0.870  1.00  0.00     0.061 A 
HETATM   14  C   UNL     1      39.270 -12.798  -0.221  1.00  0.00     0.065 A 
HETATM   15  C   UNL     1      39.819 -14.071  -0.103  1.00  0.00     0.063 A 
HETATM   16  N   UNL     1      39.043 -12.553  -1.571  1.00  0.00    -0.306 N 
HETATM   17  N   UNL     1      39.931 -14.610  -1.380  1.00  0.00    -0.307 N 
HETATM   18  C   UNL     1      40.151 -14.612   1.113  1.00  0.00     0.034 A 
HETATM   19  C   UNL     1      39.450 -13.674  -2.307  1.00  0.00     0.325 A 
HETATM   20  H   UNL     1      40.288 -15.516  -1.635  1.00  0.00     0.170 HD
HETATM   21  O   UNL     1      39.394 -13.814  -3.516  1.00  0.00    -0.247 OA
HETATM   22  C   UNL     1      39.906 -13.814   2.241  1.00  0.00     0.032 A 
HETATM   23  H   UNL     1      38.652 -11.720  -1.981  1.00  0.00     0.170 HD
ENDBRANCH   9  12
ENDBRANCH   7   8
ENDBRANCH   6   7
ENDBRANCH   2   6
BRANCH   1  24
HETATM   24  C   UNL     1      42.886 -12.475   5.933  1.00  0.00     0.043 A 
HETATM   25  C   UNL     1      43.364 -11.984   4.709  1.00  0.00     0.030 A 
HETATM   26  C   UNL     1      44.655 -11.460   4.618  1.00  0.00     0.002 A 
HETATM   27  C   UNL     1      45.476 -11.424   5.743  1.00  0.00     0.000 A 
HETATM   28  C   UNL     1      45.007 -11.911   6.962  1.00  0.00     0.002 A 
HETATM   29  C   UNL     1      43.717 -12.437   7.060  1.00  0.00     0.030 A 
ENDBRANCH   1  24
BRANCH   5  30
HETATM   30  C   UNL     1      41.985 -15.494   5.645  1.00  0.00     0.012 A 
HETATM   31  C   UNL     1      42.365 -15.789   4.327  1.00  0.00     0.017 A 
HETATM   32  C   UNL     1      43.135 -16.922   4.047  1.00  0.00     0.025 A 
HETATM   33  C   UNL     1      43.517 -17.773   5.081  1.00  0.00     0.034 A 
HETATM   34 CL   UNL     1      44.465 -19.166   4.736  1.00  0.00    -0.084 Cl
HETATM   35  C   UNL     1      43.129 -17.507   6.393  1.00  0.00     0.025 A 
HETATM   36  C   UNL     1      42.360 -16.374   6.671  1.00  0.00     0.017 A 
ENDBRANCH   5  30
TORSDOF 6
ENDMDL
MODEL 3
REMARK VINA RESULT:      -8.4      7.001     10.218
REMARK  6 active torsions:
REMARK  status: ('A' for Active; 'I' for Inactive)
REMARK    1  A    between atoms: C_4  and  N_5 
REMARK    2  A    between atoms: C_6  and  S_7 
REMARK    3  A    between atoms: S_7  and  C_8 
REMARK    4  A    between atoms: C_8  and  C_9 
REMARK       I    between atoms: C_9  and  N_10 
REMARK    5  A    between atoms: N_10  and  C_11 
REMARK    6  A    between atoms: C_24  and  C_25 
ROOT
HETATM    1  N   UNL     1      43.215  -9.089  10.000  1.00  0.00    -0.271 N 
HETATM    2  C   UNL     1      44.008  -9.935   9.236  1.00  0.00     0.197 A 
HETATM    3  N   UNL     1      44.542 -10.867   9.990  1.00  0.00    -0.122 NA
HETATM    4  N   UNL     1      44.122 -10.665  11.270  1.00  0.00    -0.128 NA
HETATM    5  C   UNL     1      43.358  -9.586  11.300  1.00  0.00     0.169 A 
ENDROOT
BRANCH   2   6
HETATM    6  S   UNL     1      44.147  -9.922   7.504  1.00  0.00    -0.080 SA
BRANCH   6   7
HETATM    7  C   UNL     1      42.936 -11.212   7.076  1.00  0.00     0.185 C 
BRANCH   7   8
HETATM    8  C   UNL     1      43.630 -12.545   6.849  1.00  0.00     0.231 C 
HETATM    9  N   UNL     1      42.741 -13.601   6.704  1.00  0.00    -0.326 N 
HETATM   10  H   UNL     1      41.771 -13.394   6.913  1.00  0.00     0.169 HD
HETATM   11  O   UNL     1      44.853 -12.613   6.760  1.00  0.00    -0.272 OA
BRANCH   9  12
HETATM   12  C   UNL     1      43.040 -14.939   6.370  1.00  0.00     0.037 A 
HETATM   13  C   UNL     1      43.126 -15.406   5.053  1.00  0.00     0.061 A 
HETATM   14  C   UNL     1      43.403 -16.744   4.877  1.00  0.00     0.065 A 
HETATM   15  C   UNL     1      43.597 -17.613   5.946  1.00  0.00     0.063 A 
HETATM   16  N   UNL     1      43.535 -17.475   3.702  1.00  0.00    -0.306 N 
HETATM   17  N   UNL     1      43.851 -18.879   5.430  1.00  0.00    -0.307 N 
HETATM   18  C   UNL     1      43.525 -17.193   7.250  1.00  0.00     0.034 A 
HETATM   19  C   UNL     1      43.814 -18.809   4.029  1.00  0.00     0.325 A 
HETATM   20  H   UNL     1      44.030 -19.727   5.942  1.00  0.00     0.170 HD
HETATM   21  O   UNL     1      43.987 -19.731   3.252  1.00  0.00    -0.247 OA
HETATM   22  C   UNL     1      43.238 -15.835   7.455  1.00  0.00     0.032 A 
HETATM   23  H   UNL     1      43.448 -17.132   2.759  1.00  0.00     0.170 HD
ENDBRANCH   9  12
ENDBRANCH   7   8
ENDBRANCH   6   7
ENDBRANCH   2   6
BRANCH   1  24
HETATM   24  C   UNL     1      42.412  -7.991   9.579  1.00  0.00     0.043 A 
HETATM   25  C   UNL     1      41.063  -8.194   9.254  1.00  0.00     0.030 A 
HETATM   26  C   UNL     1      40.265  -7.117   8.864  1.00  0.00     0.002 A 
HETATM   27  C   UNL     1      40.805  -5.835   8.793  1.00  0.00     0.000 A 
HETATM   28  C   UNL     1      42.146  -5.627   9.113  1.00  0.00     0.002 A 
HETATM   29  C   UNL     1      42.950  -6.700   9.505  1.00  0.00     0.030 A 
ENDBRANCH   1  24
BRANCH   5  30
HETATM   30  C   UNL     1      42.847  -9.004  12.545  1.00  0.00     0.012 A 
HETATM   31  C   UNL     1      43.470  -7.906  13.157  1.00  0.00     0.017 A 
HETATM   32  C   UNL     1      42.970  -7.384  14.354  1.00  0.00     0.025 A 
HETATM   33  C   UNL     1      41.855  -7.966  14.953  1.00  0.00     0.034 A 
HETATM   34 CL   UNL     1      41.242  -7.323  16.425  1.00  0.00    -0.084 Cl
HETATM   35  C   UNL     1      41.239  -9.071  14.370  1.00  0.00     0.025 A 
HETATM   36  C   UNL     1      41.738  -9.590  13.173  1.00  0.00     0.017 A 
ENDBRANCH   5  30
TORSDOF 6
ENDMDL
MODEL 4
REMARK VINA RESULT:      -8.3      5.075      8.600
REMARK  6 active torsions:
REMARK  status: ('A' for Active; 'I' for Inactive)
REMARK    1  A    between atoms: C_4  and  N_5 
REMARK    2  A    between atoms: C_6  and  S_7 
REMARK    3  A    between atoms: S_7  and  C_8 
REMARK    4  A    between atoms: C_8  and  C_9 
REMARK       I    between atoms: C_9  and  N_10 
REMARK    5  A    between atoms: N_10  and  C_11 
REMARK    6  A    between atoms: C_24  and  C_25 
ROOT
HETATM    1  N   UNL     1      42.735 -14.593   4.827  1.00  0.00    -0.271 N 
HETATM    2  C   UNL     1      42.922 -13.790   5.944  1.00  0.00     0.197 A 
HETATM    3  N   UNL     1      43.762 -14.356   6.778  1.00  0.00    -0.122 NA
HETATM    4  N   UNL     1      44.153 -15.544   6.240  1.00  0.00    -0.128 NA
HETATM    5  C   UNL     1      43.522 -15.719   5.091  1.00  0.00     0.169 A 
ENDROOT
BRANCH   2   6
HETATM    6  S   UNL     1      42.309 -12.179   6.163  1.00  0.00    -0.080 SA
BRANCH   6   7
HETATM    7  C   UNL     1      43.873 -11.260   6.315  1.00  0.00     0.185 C 
BRANCH   7   8
HETATM    8  C   UNL     1      44.072 -10.773   7.741  1.00  0.00     0.231 C 
HETATM    9  N   UNL     1      43.149  -9.808   8.119  1.00  0.00    -0.326 N 
HETATM   10  H   UNL     1      42.565  -9.440   7.377  1.00  0.00     0.169 HD
HETATM   11  O   UNL     1      44.944 -11.257   8.457  1.00  0.00    -0.272 OA
BRANCH   9  12
HETATM   12  C   UNL     1      42.978  -9.233   9.396  1.00  0.00     0.037 A 
HETATM   13  C   UNL     1      42.688  -9.977  10.547  1.00  0.00     0.061 A 
HETATM   14  C   UNL     1      42.525  -9.278  11.722  1.00  0.00     0.065 A 
HETATM   15  C   UNL     1      42.641  -7.893  11.791  1.00  0.00     0.063 A 
HETATM   16  N   UNL     1      42.225  -9.746  12.997  1.00  0.00    -0.306 N 
HETATM   17  N   UNL     1      42.416  -7.508  13.108  1.00  0.00    -0.307 N 
HETATM   18  C   UNL     1      42.927  -7.131  10.688  1.00  0.00     0.034 A 
HETATM   19  C   UNL     1      42.154  -8.654  13.873  1.00  0.00     0.325 A 
HETATM   20  H   UNL     1      42.426  -6.575  13.485  1.00  0.00     0.170 HD
HETATM   21  O   UNL     1      41.908  -8.689  15.066  1.00  0.00    -0.247 OA
HETATM   22  C   UNL     1      43.093  -7.819   9.476  1.00  0.00     0.032 A 
HETATM   23  H   UNL     1      42.077 -10.703  13.275  1.00  0.00     0.170 HD
ENDBRANCH   9  12
ENDBRANCH   7   8
ENDBRANCH   6   7
ENDBRANCH   2   6
BRANCH   1  24
HETATM   24  C   UNL     1      41.959 -14.337   3.660  1.00  0.00     0.043 A 
HETATM   25  C   UNL     1      42.524 -13.642   2.581  1.00  0.00     0.030 A 
HETATM   26  C   UNL     1      41.775 -13.410   1.425  1.00  0.00     0.002 A 
HETATM   27  C   UNL     1      40.462 -13.866   1.339  1.00  0.00     0.000 A 
HETATM   28  C   UNL     1      39.894 -14.556   2.408  1.00  0.00     0.002 A 
HETATM   29  C   UNL     1      40.637 -14.793   3.568  1.00  0.00     0.030 A 
ENDBRANCH   1  24
BRANCH   5  30
HETATM   30  C   UNL     1      43.606 -16.958   4.313  1.00  0.00     0.012 A 
HETATM   31  C   UNL     1      43.213 -17.014   2.968  1.00  0.00     0.017 A 
HETATM   32  C   UNL     1      43.288 -18.216   2.257  1.00  0.00     0.025 A 
HETATM   33  C   UNL     1      43.742 -19.370   2.891  1.00  0.00     0.034 A 
HETATM   34 CL   UNL     1      43.834 -20.847   2.015  1.00  0.00    -0.084 Cl
HETATM   35  C   UNL     1      44.115 -19.336   4.232  1.00  0.00     0.025 A 
HETATM   36  C   UNL     1      44.041 -18.135   4.941  1.00  0.00     0.017 A 
ENDBRANCH   5  30
TORSDOF 6
ENDMDL
MODEL 5
REMARK VINA RESULT:      -8.2      5.053      8.529
REMARK  6 active torsions:
REMARK  status: ('A' for Active; 'I' for Inactive)
REMARK    1  A    between atoms: C_4  and  N_5 
REMARK    2  A    between atoms: C_6  and  S_7 
REMARK    3  A    between atoms: S_7  and  C_8 
REMARK    4  A    between atoms: C_8  and  C_9 
REMARK       I    between atoms: C_9  and  N_10 
REMARK    5  A    between atoms: N_10  and  C_11 
REMARK    6  A    between atoms: C_24  and  C_25 
ROOT
HETATM    1  N   UNL     1      42.581 -14.489   4.822  1.00  0.00    -0.271 N 
HETATM    2  C   UNL     1      42.719 -13.522   5.809  1.00  0.00     0.197 A 
HETATM    3  N   UNL     1      43.553 -13.930   6.736  1.00  0.00    -0.122 NA
HETATM    4  N   UNL     1      43.991 -15.173   6.391  1.00  0.00    -0.128 NA
HETATM    5  C   UNL     1      43.392 -15.537   5.269  1.00  0.00     0.169 A 
ENDROOT
BRANCH   2   6
HETATM    6  S   UNL     1      42.056 -11.916   5.770  1.00  0.00    -0.080 SA
BRANCH   6   7
HETATM    7  C   UNL     1      43.413 -10.992   6.557  1.00  0.00     0.185 C 
BRANCH   7   8
HETATM    8  C   UNL     1      42.867  -9.987   7.558  1.00  0.00     0.231 C 
HETATM    9  N   UNL     1      42.953 -10.428   8.871  1.00  0.00    -0.326 N 
HETATM   10  H   UNL     1      43.217 -11.398   8.995  1.00  0.00     0.169 HD
HETATM   11  O   UNL     1      42.454  -8.890   7.190  1.00  0.00    -0.272 OA
BRANCH   9  12
HETATM   12  C   UNL     1      42.648  -9.705  10.044  1.00  0.00     0.037 A 
HETATM   13  C   UNL     1      41.346  -9.347  10.415  1.00  0.00     0.061 A 
HETATM   14  C   UNL     1      41.201  -8.619  11.575  1.00  0.00     0.065 A 
HETATM   15  C   UNL     1      42.285  -8.246  12.364  1.00  0.00     0.063 A 
HETATM   16  N   UNL     1      40.047  -8.125  12.173  1.00  0.00    -0.306 N 
HETATM   17  N   UNL     1      41.799  -7.525  13.449  1.00  0.00    -0.307 N 
HETATM   18  C   UNL     1      43.574  -8.580  12.036  1.00  0.00     0.034 A 
HETATM   19  C   UNL     1      40.403  -7.439  13.343  1.00  0.00     0.325 A 
HETATM   20  H   UNL     1      42.328  -7.113  14.200  1.00  0.00     0.170 HD
HETATM   21  O   UNL     1      39.650  -6.875  14.117  1.00  0.00    -0.247 OA
HETATM   22  C   UNL     1      43.749  -9.317  10.855  1.00  0.00     0.032 A 
HETATM   23  H   UNL     1      39.100  -8.225  11.844  1.00  0.00     0.170 HD
ENDBRANCH   9  12
ENDBRANCH   7   8
ENDBRANCH   6   7
ENDBRANCH   2   6
BRANCH   1  24
HETATM   24  C   UNL     1      41.827 -14.435   3.614  1.00  0.00     0.043 A 
HETATM   25  C   UNL     1      42.354 -13.786   2.488  1.00  0.00     0.030 A 
HETATM   26  C   UNL     1      41.629 -13.752   1.295  1.00  0.00     0.002 A 
HETATM   27  C   UNL     1      40.379 -14.361   1.218  1.00  0.00     0.000 A 
HETATM   28  C   UNL     1      39.850 -15.006   2.334  1.00  0.00     0.002 A 
HETATM   29  C   UNL     1      40.569 -15.045   3.531  1.00  0.00     0.030 A 
ENDBRANCH   1  24
BRANCH   5  30
HETATM   30  C   UNL     1      43.531 -16.876   4.688  1.00  0.00     0.012 A 
HETATM   31  C   UNL     1      43.804 -18.001   5.480  1.00  0.00     0.017 A 
HETATM   32  C   UNL     1      43.949 -19.263   4.895  1.00  0.00     0.025 A 
HETATM   33  C   UNL     1      43.836 -19.403   3.513  1.00  0.00     0.034 A 
HETATM   34 CL   UNL     1      44.015 -20.955   2.794  1.00  0.00    -0.084 Cl
HETATM   35  C   UNL     1      43.588 -18.292   2.710  1.00  0.00     0.025 A 
HETATM   36  C   UNL     1      43.442 -17.033   3.297  1.00  0.00     0.017 A 
ENDBRANCH   5  30
TORSDOF 6
ENDMDL
MODEL 6
REMARK VINA RESULT:      -8.0      6.322      8.311
REMARK  6 active torsions:
REMARK  status: ('A' for Active; 'I' for Inactive)
REMARK    1  A    between atoms: C_4  and  N_5 
REMARK    2  A    between atoms: C_6  and  S_7 
REMARK    3  A    between atoms: S_7  and  C_8 
REMARK    4  A    between atoms: C_8  and  C_9 
REMARK       I    between atoms: C_9  and  N_10 
REMARK    5  A    between atoms: N_10  and  C_11 
REMARK    6  A    between atoms: C_24  and  C_25 
ROOT
HETATM    1  N   UNL     1      42.817  -9.670   9.414  1.00  0.00    -0.271 N 
HETATM    2  C   UNL     1      43.627 -10.445   8.597  1.00  0.00     0.197 A 
HETATM    3  N   UNL     1      44.474 -11.140   9.319  1.00  0.00    -0.122 NA
HETATM    4  N   UNL     1      44.250 -10.846  10.630  1.00  0.00    -0.128 NA
HETATM    5  C   UNL     1      43.288  -9.942  10.703  1.00  0.00     0.169 A 
ENDROOT
BRANCH   2   6
HETATM    6  S   UNL     1      43.457 -10.649   6.879  1.00  0.00    -0.080 SA
BRANCH   6   7
HETATM    7  C   UNL     1      44.027 -12.368   6.703  1.00  0.00     0.185 C 
BRANCH   7   8
HETATM    8  C   UNL     1      43.163 -13.120   5.704  1.00  0.00     0.231 C 
HETATM    9  N   UNL     1      42.412 -12.279   4.894  1.00  0.00    -0.326 N 
HETATM   10  H   UNL     1      42.409 -11.300   5.156  1.00  0.00     0.169 HD
HETATM   11  O   UNL     1      43.206 -14.345   5.630  1.00  0.00    -0.272 OA
BRANCH   9  12
HETATM   12  C   UNL     1      41.602 -12.639   3.797  1.00  0.00     0.037 A 
HETATM   13  C   UNL     1      42.112 -13.043   2.558  1.00  0.00     0.061 A 
HETATM   14  C   UNL     1      41.201 -13.341   1.570  1.00  0.00     0.065 A 
HETATM   15  C   UNL     1      39.826 -13.257   1.770  1.00  0.00     0.063 A 
HETATM   16  N   UNL     1      41.418 -13.752   0.258  1.00  0.00    -0.306 N 
HETATM   17  N   UNL     1      39.197 -13.617   0.584  1.00  0.00    -0.307 N 
HETATM   18  C   UNL     1      39.288 -12.868   2.970  1.00  0.00     0.034 A 
HETATM   19  C   UNL     1      40.177 -13.928  -0.370  1.00  0.00     0.325 A 
HETATM   20  H   UNL     1      38.207 -13.656   0.401  1.00  0.00     0.170 HD
HETATM   21  O   UNL     1      39.984 -14.279  -1.520  1.00  0.00    -0.247 OA
HETATM   22  C   UNL     1      40.196 -12.554   3.991  1.00  0.00     0.032 A 
HETATM   23  H   UNL     1      42.305 -13.904  -0.193  1.00  0.00     0.170 HD
ENDBRANCH   9  12
ENDBRANCH   7   8
ENDBRANCH   6   7
ENDBRANCH   2   6
BRANCH   1  24
HETATM   24  C   UNL     1      41.734  -8.818   9.053  1.00  0.00     0.043 A 
HETATM   25  C   UNL     1      40.426  -9.324   9.018  1.00  0.00     0.030 A 
HETATM   26  C   UNL     1      39.358  -8.487   8.687  1.00  0.00     0.002 A 
HETATM   27  C   UNL     1      39.586  -7.145   8.389  1.00  0.00     0.000 A 
HETATM   28  C   UNL     1      40.883  -6.637   8.421  1.00  0.00     0.002 A 
HETATM   29  C   UNL     1      41.957  -7.468   8.751  1.00  0.00     0.030 A 
ENDBRANCH   1  24
BRANCH   5  30
HETATM   30  C   UNL     1      42.888  -9.300  11.959  1.00  0.00     0.012 A 
HETATM   31  C   UNL     1      43.533  -8.151  12.440  1.00  0.00     0.017 A 
HETATM   32  C   UNL     1      43.141  -7.572  13.651  1.00  0.00     0.025 A 
HETATM   33  C   UNL     1      42.114  -8.147  14.395  1.00  0.00     0.034 A 
HETATM   34 CL   UNL     1      41.633  -7.434  15.884  1.00  0.00    -0.084 Cl
HETATM   35  C   UNL     1      41.478  -9.301  13.942  1.00  0.00     0.025 A 
HETATM   36  C   UNL     1      41.869  -9.878  12.731  1.00  0.00     0.017 A 
ENDBRANCH   5  30
TORSDOF 6
ENDMDL
MODEL 7
REMARK VINA RESULT:      -8.0     16.178     19.129
REMARK  6 active torsions:
REMARK  status: ('A' for Active; 'I' for Inactive)
REMARK    1  A    between atoms: C_4  and  N_5 
REMARK    2  A    between atoms: C_6  and  S_7 
REMARK    3  A    between atoms: S_7  and  C_8 
REMARK    4  A    between atoms: C_8  and  C_9 
REMARK       I    between atoms: C_9  and  N_10 
REMARK    5  A    between atoms: N_10  and  C_11 
REMARK    6  A    between atoms: C_24  and  C_25 
ROOT
HETATM    1  N   UNL     1      45.992 -29.197  -0.238  1.00  0.00    -0.271 N 
HETATM    2  C   UNL     1      46.978 -28.562   0.505  1.00  0.00     0.197 A 
HETATM    3  N   UNL     1      47.796 -27.907  -0.284  1.00  0.00    -0.122 NA
HETATM    4  N   UNL     1      47.377 -28.088  -1.568  1.00  0.00    -0.128 NA
HETATM    5  C   UNL     1      46.323 -28.886  -1.562  1.00  0.00     0.169 A 
ENDROOT
BRANCH   2   6
HETATM    6  S   UNL     1      47.049 -28.460   2.238  1.00  0.00    -0.080 SA
BRANCH   6   7
HETATM    7  C   UNL     1      47.759 -30.091   2.625  1.00  0.00     0.185 C 
BRANCH   7   8
HETATM    8  C   UNL     1      49.132 -30.242   1.993  1.00  0.00     0.231 C 
HETATM    9  N   UNL     1      49.103 -30.934   0.790  1.00  0.00    -0.326 N 
HETATM   10  H   UNL     1      48.222 -31.378   0.557  1.00  0.00     0.169 HD
HETATM   11  O   UNL     1      50.125 -29.737   2.511  1.00  0.00    -0.272 OA
BRANCH   9  12
HETATM   12  C   UNL     1      50.171 -31.149  -0.106  1.00  0.00     0.037 A 
HETATM   13  C   UNL     1      51.224 -32.038   0.144  1.00  0.00     0.061 A 
HETATM   14  C   UNL     1      52.211 -32.127  -0.811  1.00  0.00     0.065 A 
HETATM   15  C   UNL     1      52.186 -31.380  -1.985  1.00  0.00     0.063 A 
HETATM   16  N   UNL     1      53.363 -32.906  -0.825  1.00  0.00    -0.306 N 
HETATM   17  N   UNL     1      53.320 -31.700  -2.723  1.00  0.00    -0.307 N 
HETATM   18  C   UNL     1      51.171 -30.502  -2.267  1.00  0.00     0.034 A 
HETATM   19  C   UNL     1      54.066 -32.651  -2.011  1.00  0.00     0.325 A 
HETATM   20  H   UNL     1      53.596 -31.330  -3.617  1.00  0.00     0.170 HD
HETATM   21  O   UNL     1      55.121 -33.152  -2.357  1.00  0.00    -0.247 OA
HETATM   22  C   UNL     1      50.155 -30.389  -1.307  1.00  0.00     0.032 A 
HETATM   23  H   UNL     1      53.669 -33.553  -0.116  1.00  0.00     0.170 HD
ENDBRANCH   9  12
ENDBRANCH   7   8
ENDBRANCH   6   7
ENDBRANCH   2   6
BRANCH   1  24
HETATM   24  C   UNL     1      44.879 -29.960   0.217  1.00  0.00     0.043 A 
HETATM   25  C   UNL     1      44.967 -31.359   0.278  1.00  0.00     0.030 A 
HETATM   26  C   UNL     1      43.887 -32.111   0.746  1.00  0.00     0.002 A 
HETATM   27  C   UNL     1      42.716 -31.475   1.153  1.00  0.00     0.000 A 
HETATM   28  C   UNL     1      42.622 -30.086   1.093  1.00  0.00     0.002 A 
HETATM   29  C   UNL     1      43.698 -29.327   0.627  1.00  0.00     0.030 A 
ENDBRANCH   1  24
BRANCH   5  30
HETATM   30  C   UNL     1      45.701 -29.398  -2.786  1.00  0.00     0.012 A 
HETATM   31  C   UNL     1      44.489 -28.885  -3.271  1.00  0.00     0.017 A 
HETATM   32  C   UNL     1      43.911 -29.407  -4.432  1.00  0.00     0.025 A 
HETATM   33  C   UNL     1      44.534 -30.456  -5.106  1.00  0.00     0.034 A 
HETATM   34 CL   UNL     1      43.823 -31.097  -6.534  1.00  0.00    -0.084 Cl
HETATM   35  C   UNL     1      45.726 -30.992  -4.625  1.00  0.00     0.025 A 
HETATM   36  C   UNL     1      46.304 -30.468  -3.465  1.00  0.00     0.017 A 
ENDBRANCH   5  30
TORSDOF 6
ENDMDL
MODEL 8
REMARK VINA RESULT:      -7.6     15.599     17.746
REMARK  6 active torsions:
REMARK  status: ('A' for Active; 'I' for Inactive)
REMARK    1  A    between atoms: C_4  and  N_5 
REMARK    2  A    between atoms: C_6  and  S_7 
REMARK    3  A    between atoms: S_7  and  C_8 
REMARK    4  A    between atoms: C_8  and  C_9 
REMARK       I    between atoms: C_9  and  N_10 
REMARK    5  A    between atoms: N_10  and  C_11 
REMARK    6  A    between atoms: C_24  and  C_25 
ROOT
HETATM    1  N   UNL     1      48.293 -29.470   0.921  1.00  0.00    -0.271 N 
HETATM    2  C   UNL     1      47.452 -28.463   0.470  1.00  0.00     0.197 A 
HETATM    3  N   UNL     1      47.060 -27.711   1.472  1.00  0.00    -0.122 NA
HETATM    4  N   UNL     1      47.627 -28.198   2.610  1.00  0.00    -0.128 NA
HETATM    5  C   UNL     1      48.338 -29.270   2.305  1.00  0.00     0.169 A 
ENDROOT
BRANCH   2   6
HETATM    6  S   UNL     1      47.096 -28.091  -1.190  1.00  0.00    -0.080 SA
BRANCH   6   7
HETATM    7  C   UNL     1      45.277 -28.064  -1.128  1.00  0.00     0.185 C 
BRANCH   7   8
HETATM    8  C   UNL     1      44.745 -29.301  -0.423  1.00  0.00     0.231 C 
HETATM    9  N   UNL     1      44.147 -29.016   0.797  1.00  0.00    -0.326 N 
HETATM   10  H   UNL     1      44.266 -28.069   1.137  1.00  0.00     0.169 HD
HETATM   11  O   UNL     1      44.818 -30.408  -0.950  1.00  0.00    -0.272 OA
BRANCH   9  12
HETATM   12  C   UNL     1      43.456 -29.907   1.645  1.00  0.00     0.037 A 
HETATM   13  C   UNL     1      42.081 -30.156   1.550  1.00  0.00     0.061 A 
HETATM   14  C   UNL     1      41.537 -31.032   2.462  1.00  0.00     0.065 A 
HETATM   15  C   UNL     1      42.299 -31.660   3.443  1.00  0.00     0.063 A 
HETATM   16  N   UNL     1      40.220 -31.453   2.610  1.00  0.00    -0.306 N 
HETATM   17  N   UNL     1      41.453 -32.468   4.193  1.00  0.00    -0.307 N 
HETATM   18  C   UNL     1      43.648 -31.444   3.566  1.00  0.00     0.034 A 
HETATM   19  C   UNL     1      40.150 -32.349   3.686  1.00  0.00     0.325 A 
HETATM   20  H   UNL     1      41.695 -33.051   4.978  1.00  0.00     0.170 HD
HETATM   21  O   UNL     1      39.155 -32.913   4.104  1.00  0.00    -0.247 OA
HETATM   22  C   UNL     1      44.226 -30.551   2.652  1.00  0.00     0.032 A 
HETATM   23  H   UNL     1      39.426 -31.177   2.054  1.00  0.00     0.170 HD
ENDBRANCH   9  12
ENDBRANCH   7   8
ENDBRANCH   6   7
ENDBRANCH   2   6
BRANCH   1  24
HETATM   24  C   UNL     1      48.985 -30.463   0.170  1.00  0.00     0.043 A 
HETATM   25  C   UNL     1      50.338 -30.281  -0.153  1.00  0.00     0.030 A 
HETATM   26  C   UNL     1      51.028 -31.261  -0.869  1.00  0.00     0.002 A 
HETATM   27  C   UNL     1      50.375 -32.426  -1.267  1.00  0.00     0.000 A 
HETATM   28  C   UNL     1      49.031 -32.612  -0.951  1.00  0.00     0.002 A 
HETATM   29  C   UNL     1      48.334 -31.636  -0.235  1.00  0.00     0.030 A 
ENDBRANCH   1  24
BRANCH   5  30
HETATM   30  C   UNL     1      48.973 -30.122   3.315  1.00  0.00     0.012 A 
HETATM   31  C   UNL     1      48.247 -31.084   4.034  1.00  0.00     0.017 A 
HETATM   32  C   UNL     1      48.876 -31.869   5.005  1.00  0.00     0.025 A 
HETATM   33  C   UNL     1      50.231 -31.686   5.273  1.00  0.00     0.034 A 
HETATM   34 CL   UNL     1      51.004 -32.652   6.467  1.00  0.00    -0.084 Cl
HETATM   35  C   UNL     1      50.961 -30.720   4.584  1.00  0.00     0.025 A 
HETATM   36  C   UNL     1      50.331 -29.937   3.613  1.00  0.00     0.017 A 
ENDBRANCH   5  30
TORSDOF 6
ENDMDL
MODEL 9
REMARK VINA RESULT:      -7.5      1.691      2.020
REMARK  6 active torsions:
REMARK  status: ('A' for Active; 'I' for Inactive)
REMARK    1  A    between atoms: C_4  and  N_5 
REMARK    2  A    between atoms: C_6  and  S_7 
REMARK    3  A    between atoms: S_7  and  C_8 
REMARK    4  A    between atoms: C_8  and  C_9 
REMARK       I    between atoms: C_9  and  N_10 
REMARK    5  A    between atoms: N_10  and  C_11 
REMARK    6  A    between atoms: C_24  and  C_25 
ROOT
HETATM    1  N   UNL     1      42.685 -13.988   4.757  1.00  0.00    -0.271 N 
HETATM    2  C   UNL     1      42.834 -12.713   5.286  1.00  0.00     0.197 A 
HETATM    3  N   UNL     1      43.577 -12.750   6.367  1.00  0.00    -0.122 NA
HETATM    4  N   UNL     1      43.939 -14.046   6.584  1.00  0.00    -0.128 NA
HETATM    5  C   UNL     1      43.385 -14.803   5.653  1.00  0.00     0.169 A 
ENDROOT
BRANCH   2   6
HETATM    6  S   UNL     1      42.299 -11.230   4.555  1.00  0.00    -0.080 SA
BRANCH   6   7
HETATM    7  C   UNL     1      40.678 -11.043   5.361  1.00  0.00     0.185 C 
BRANCH   7   8
HETATM    8  C   UNL     1      39.586 -10.826   4.326  1.00  0.00     0.231 C 
HETATM    9  N   UNL     1      40.028 -11.008   3.023  1.00  0.00    -0.326 N 
HETATM   10  H   UNL     1      41.030 -11.111   2.907  1.00  0.00     0.169 HD
HETATM   11  O   UNL     1      38.435 -10.568   4.669  1.00  0.00    -0.272 OA
BRANCH   9  12
HETATM   12  C   UNL     1      39.256 -10.998   1.843  1.00  0.00     0.037 A 
HETATM   13  C   UNL     1      39.089 -12.117   1.018  1.00  0.00     0.061 A 
HETATM   14  C   UNL     1      38.326 -11.953  -0.117  1.00  0.00     0.065 A 
HETATM   15  C   UNL     1      37.732 -10.739  -0.450  1.00  0.00     0.063 A 
HETATM   16  N   UNL     1      38.004 -12.872  -1.109  1.00  0.00    -0.306 N 
HETATM   17  N   UNL     1      37.044 -10.911  -1.645  1.00  0.00    -0.307 N 
HETATM   18  C   UNL     1      37.870  -9.622   0.334  1.00  0.00     0.034 A 
HETATM   19  C   UNL     1      37.205 -12.238  -2.070  1.00  0.00     0.325 A 
HETATM   20  H   UNL     1      36.512 -10.223  -2.152  1.00  0.00     0.170 HD
HETATM   21  O   UNL     1      36.742 -12.737  -3.080  1.00  0.00    -0.247 OA
HETATM   22  C   UNL     1      38.647  -9.762   1.493  1.00  0.00     0.032 A 
HETATM   23  H   UNL     1      38.285 -13.839  -1.158  1.00  0.00     0.170 HD
ENDBRANCH   9  12
ENDBRANCH   7   8
ENDBRANCH   6   7
ENDBRANCH   2   6
BRANCH   1  24
HETATM   24  C   UNL     1      42.012 -14.391   3.568  1.00  0.00     0.043 A 
HETATM   25  C   UNL     1      42.665 -14.303   2.330  1.00  0.00     0.030 A 
HETATM   26  C   UNL     1      42.019 -14.719   1.163  1.00  0.00     0.002 A 
HETATM   27  C   UNL     1      40.722 -15.223   1.224  1.00  0.00     0.000 A 
HETATM   28  C   UNL     1      40.067 -15.311   2.451  1.00  0.00     0.002 A 
HETATM   29  C   UNL     1      40.707 -14.897   3.622  1.00  0.00     0.030 A 
ENDBRANCH   1  24
BRANCH   5  30
HETATM   30  C   UNL     1      43.456 -16.267   5.667  1.00  0.00     0.012 A 
HETATM   31  C   UNL     1      43.102 -17.014   6.800  1.00  0.00     0.017 A 
HETATM   32  C   UNL     1      43.199 -18.409   6.789  1.00  0.00     0.025 A 
HETATM   33  C   UNL     1      43.664 -19.063   5.650  1.00  0.00     0.034 A 
HETATM   34 CL   UNL     1      43.782 -20.778   5.638  1.00  0.00    -0.084 Cl
HETATM   35  C   UNL     1      44.041 -18.334   4.524  1.00  0.00     0.025 A 
HETATM   36  C   UNL     1      43.942 -16.941   4.536  1.00  0.00     0.017 A 
ENDBRANCH   5  30
TORSDOF 6
ENDMDL
MODEL 10
REMARK VINA RESULT:      -7.5      5.065      9.144
REMARK  6 active torsions:
REMARK  status: ('A' for Active; 'I' for Inactive)
REMARK    1  A    between atoms: C_4  and  N_5 
REMARK    2  A    between atoms: C_6  and  S_7 
REMARK    3  A    between atoms: S_7  and  C_8 
REMARK    4  A    between atoms: C_8  and  C_9 
REMARK       I    between atoms: C_9  and  N_10 
REMARK    5  A    between atoms: N_10  and  C_11 
REMARK    6  A    between atoms: C_24  and  C_25 
ROOT
HETATM    1  N   UNL     1      42.122 -12.891   1.980  1.00  0.00    -0.271 N 
HETATM    2  C   UNL     1      42.675 -11.837   2.694  1.00  0.00     0.197 A 
HETATM    3  N   UNL     1      42.298 -10.689   2.183  1.00  0.00    -0.122 NA
HETATM    4  N   UNL     1      41.487 -10.949   1.119  1.00  0.00    -0.128 NA
HETATM    5  C   UNL     1      41.401 -12.259   0.961  1.00  0.00     0.169 A 
ENDROOT
BRANCH   2   6
HETATM    6  S   UNL     1      43.582 -11.964   4.171  1.00  0.00    -0.080 SA
BRANCH   6   7
HETATM    7  C   UNL     1      42.239 -11.786   5.387  1.00  0.00     0.185 C 
BRANCH   7   8
HETATM    8  C   UNL     1      42.742 -11.098   6.645  1.00  0.00     0.231 C 
HETATM    9  N   UNL     1      42.065  -9.920   6.928  1.00  0.00    -0.326 N 
HETATM   10  H   UNL     1      41.439  -9.586   6.204  1.00  0.00     0.169 HD
HETATM   11  O   UNL     1      43.625 -11.606   7.332  1.00  0.00    -0.272 OA
BRANCH   9  12
HETATM   12  C   UNL     1      42.199  -9.103   8.070  1.00  0.00     0.037 A 
HETATM   13  C   UNL     1      41.321  -9.148   9.160  1.00  0.00     0.061 A 
HETATM   14  C   UNL     1      41.562  -8.274  10.197  1.00  0.00     0.065 A 
HETATM   15  C   UNL     1      42.626  -7.377  10.188  1.00  0.00     0.063 A 
HETATM   16  N   UNL     1      40.860  -8.091  11.384  1.00  0.00    -0.306 N 
HETATM   17  N   UNL     1      42.582  -6.645  11.368  1.00  0.00    -0.307 N 
HETATM   18  C   UNL     1      43.509  -7.306   9.140  1.00  0.00     0.034 A 
HETATM   19  C   UNL     1      41.483  -7.079  12.126  1.00  0.00     0.325 A 
HETATM   20  H   UNL     1      43.210  -5.916  11.663  1.00  0.00     0.170 HD
HETATM   21  O   UNL     1      41.139  -6.653  13.214  1.00  0.00    -0.247 OA
HETATM   22  C   UNL     1      43.282  -8.183   8.069  1.00  0.00     0.032 A 
HETATM   23  H   UNL     1      40.037  -8.587  11.686  1.00  0.00     0.170 HD
ENDBRANCH   9  12
ENDBRANCH   7   8
ENDBRANCH   6   7
ENDBRANCH   2   6
BRANCH   1  24
HETATM   24  C   UNL     1      42.222 -14.290   2.226  1.00  0.00     0.043 A 
HETATM   25  C   UNL     1      41.299 -14.921   3.072  1.00  0.00     0.030 A 
HETATM   26  C   UNL     1      41.378 -16.297   3.298  1.00  0.00     0.002 A 
HETATM   27  C   UNL     1      42.376 -17.050   2.684  1.00  0.00     0.000 A 
HETATM   28  C   UNL     1      43.297 -16.429   1.842  1.00  0.00     0.002 A 
HETATM   29  C   UNL     1      43.224 -15.053   1.612  1.00  0.00     0.030 A 
ENDBRANCH   1  24
BRANCH   5  30
HETATM   30  C   UNL     1      40.717 -12.883  -0.175  1.00  0.00     0.012 A 
HETATM   31  C   UNL     1      40.722 -12.302  -1.452  1.00  0.00     0.017 A 
HETATM   32  C   UNL     1      40.044 -12.912  -2.512  1.00  0.00     0.025 A 
HETATM   33  C   UNL     1      39.345 -14.097  -2.298  1.00  0.00     0.034 A 
HETATM   34 CL   UNL     1      38.512 -14.847  -3.602  1.00  0.00    -0.084 Cl
HETATM   35  C   UNL     1      39.311 -14.675  -1.030  1.00  0.00     0.025 A 
HETATM   36  C   UNL     1      39.989 -14.066   0.028  1.00  0.00     0.017 A 
ENDBRANCH   5  30
TORSDOF 6
ENDMDL
