MODEL 1
REMARK VINA RESULT:      -8.6      0.000      0.000
REMARK  7 active torsions:
REMARK  status: ('A' for Active; 'I' for Inactive)
REMARK    1  A    between atoms: O_2  and  C_3 
REMARK    2  A    between atoms: C_6  and  C_7 
REMARK    3  A    between atoms: C_7  and  N_8 
REMARK    4  A    between atoms: C_7  and  C_25 
REMARK    5  A    between atoms: N_8  and  C_11 
REMARK    6  A    between atoms: C_11  and  C_12 
REMARK       I    between atoms: C_12  and  N_13 
REMARK    7  A    between atoms: N_13  and  C_14 
ROOT
HETATM    1  N   UNL     1      44.519 -16.531   5.117  1.00  0.00    -0.055 N 
HETATM    2  H   UNL     1      45.352 -17.099   4.897  1.00  0.00     0.278 HD
HETATM    3  H   UNL     1      44.704 -15.642   4.636  1.00  0.00     0.278 HD
ENDROOT
BRANCH   1   4
HETATM    4  C   UNL     1      43.292 -17.145   4.522  1.00  0.00     0.252 C 
BRANCH   4   5
HETATM    5  C   UNL     1      42.547 -16.282   3.505  1.00  0.00    -0.023 A 
HETATM    6  C   UNL     1      41.136 -16.284   3.492  1.00  0.00     0.012 A 
HETATM    7  C   UNL     1      40.406 -15.477   2.610  1.00  0.00     0.037 A 
HETATM    8  C   UNL     1      41.068 -14.623   1.734  1.00  0.00     0.068 A 
HETATM    9  C   UNL     1      42.462 -14.587   1.753  1.00  0.00     0.037 A 
HETATM   10  C   UNL     1      43.195 -15.393   2.631  1.00  0.00     0.012 A 
BRANCH   8  11
HETATM   11  O   UNL     1      40.487 -13.782   0.830  1.00  0.00    -0.356 OA
HETATM   12  C   UNL     1      39.963 -14.365  -0.358  1.00  0.00     0.210 C 
ENDBRANCH   8  11
ENDBRANCH   4   5
BRANCH   4  13
HETATM   13  C   UNL     1      43.602 -18.576   4.094  1.00  0.00    -0.023 A 
HETATM   14  C   UNL     1      43.503 -18.928   2.735  1.00  0.00     0.009 A 
HETATM   15  C   UNL     1      43.724 -20.243   2.322  1.00  0.00     0.001 A 
HETATM   16  C   UNL     1      44.040 -21.225   3.257  1.00  0.00     0.000 A 
HETATM   17  C   UNL     1      44.139 -20.896   4.607  1.00  0.00     0.001 A 
HETATM   18  C   UNL     1      43.919 -19.582   5.026  1.00  0.00     0.009 A 
ENDBRANCH   4  13
ENDBRANCH   1   4
BRANCH   1  19
HETATM   19  C   UNL     1      44.533 -16.258   6.603  1.00  0.00     0.336 C 
BRANCH  19  20
HETATM   20  C   UNL     1      43.468 -15.210   6.927  1.00  0.00     0.248 C 
HETATM   21  N   UNL     1      43.425 -14.147   6.052  1.00  0.00    -0.326 N 
HETATM   22  H   UNL     1      44.073 -14.133   5.272  1.00  0.00     0.169 HD
HETATM   23  O   UNL     1      42.764 -15.404   7.919  1.00  0.00    -0.271 OA
BRANCH  21  24
HETATM   24  C   UNL     1      42.559 -13.029   6.116  1.00  0.00     0.037 A 
HETATM   25  C   UNL     1      41.203 -13.077   5.769  1.00  0.00     0.061 A 
HETATM   26  C   UNL     1      40.483 -11.908   5.887  1.00  0.00     0.065 A 
HETATM   27  C   UNL     1      41.054 -10.717   6.329  1.00  0.00     0.063 A 
HETATM   28  N   UNL     1      39.141 -11.663   5.619  1.00  0.00    -0.306 N 
HETATM   29  N   UNL     1      40.066  -9.741   6.333  1.00  0.00    -0.307 N 
HETATM   30  C   UNL     1      42.378 -10.632   6.676  1.00  0.00     0.034 A 
HETATM   31  C   UNL     1      38.864 -10.315   5.893  1.00  0.00     0.325 A 
HETATM   32  H   UNL     1      40.154  -8.774   6.600  1.00  0.00     0.170 HD
HETATM   33  O   UNL     1      37.790  -9.755   5.771  1.00  0.00    -0.247 OA
HETATM   34  C   UNL     1      43.133 -11.807   6.564  1.00  0.00     0.032 A 
HETATM   35  H   UNL     1      38.448 -12.312   5.282  1.00  0.00     0.170 HD
ENDBRANCH  21  24
ENDBRANCH  19  20
ENDBRANCH   1  19
TORSDOF 7
ENDMDL
MODEL 2
REMARK VINA RESULT:      -8.6      1.670      2.362
REMARK  7 active torsions:
REMARK  status: ('A' for Active; 'I' for Inactive)
REMARK    1  A    between atoms: O_2  and  C_3 
REMARK    2  A    between atoms: C_6  and  C_7 
REMARK    3  A    between atoms: C_7  and  N_8 
REMARK    4  A    between atoms: C_7  and  C_25 
REMARK    5  A    between atoms: N_8  and  C_11 
REMARK    6  A    between atoms: C_11  and  C_12 
REMARK       I    between atoms: C_12  and  N_13 
REMARK    7  A    between atoms: N_13  and  C_14 
ROOT
HETATM    1  N   UNL     1      44.379 -16.687   5.268  1.00  0.00    -0.055 N 
HETATM    2  H   UNL     1      45.218 -17.231   5.012  1.00  0.00     0.278 HD
HETATM    3  H   UNL     1      44.587 -15.747   4.910  1.00  0.00     0.278 HD
ENDROOT
BRANCH   1   4
HETATM    4  C   UNL     1      43.176 -17.211   4.549  1.00  0.00     0.252 C 
BRANCH   4   5
HETATM    5  C   UNL     1      42.474 -16.218   3.623  1.00  0.00    -0.023 A 
HETATM    6  C   UNL     1      43.246 -15.367   2.804  1.00  0.00     0.012 A 
HETATM    7  C   UNL     1      42.651 -14.471   1.906  1.00  0.00     0.037 A 
HETATM    8  C   UNL     1      41.266 -14.421   1.784  1.00  0.00     0.068 A 
HETATM    9  C   UNL     1      40.489 -15.275   2.565  1.00  0.00     0.037 A 
HETATM   10  C   UNL     1      41.079 -16.170   3.465  1.00  0.00     0.012 A 
BRANCH   8  11
HETATM   11  O   UNL     1      40.557 -13.606   0.950  1.00  0.00    -0.356 OA
HETATM   12  C   UNL     1      40.252 -14.108  -0.347  1.00  0.00     0.210 C 
ENDBRANCH   8  11
ENDBRANCH   4   5
BRANCH   4  13
HETATM   13  C   UNL     1      43.501 -18.577   3.951  1.00  0.00    -0.023 A 
HETATM   14  C   UNL     1      43.289 -18.799   2.578  1.00  0.00     0.009 A 
HETATM   15  C   UNL     1      43.523 -20.055   2.016  1.00  0.00     0.001 A 
HETATM   16  C   UNL     1      43.963 -21.106   2.815  1.00  0.00     0.000 A 
HETATM   17  C   UNL     1      44.175 -20.906   4.176  1.00  0.00     0.001 A 
HETATM   18  C   UNL     1      43.943 -19.652   4.744  1.00  0.00     0.009 A 
ENDBRANCH   4  13
ENDBRANCH   1   4
BRANCH   1  19
HETATM   19  C   UNL     1      44.330 -16.603   6.775  1.00  0.00     0.336 C 
BRANCH  19  20
HETATM   20  C   UNL     1      43.644 -15.298   7.179  1.00  0.00     0.248 C 
HETATM   21  N   UNL     1      44.007 -14.203   6.427  1.00  0.00    -0.326 N 
HETATM   22  H   UNL     1      44.675 -14.330   5.673  1.00  0.00     0.169 HD
HETATM   23  O   UNL     1      42.851 -15.341   8.120  1.00  0.00    -0.271 OA
BRANCH  21  24
HETATM   24  C   UNL     1      43.549 -12.872   6.586  1.00  0.00     0.037 A 
HETATM   25  C   UNL     1      44.242 -11.895   7.311  1.00  0.00     0.061 A 
HETATM   26  C   UNL     1      43.675 -10.641   7.374  1.00  0.00     0.065 A 
HETATM   27  C   UNL     1      42.468 -10.332   6.754  1.00  0.00     0.063 A 
HETATM   28  N   UNL     1      44.132  -9.493   8.013  1.00  0.00    -0.306 N 
HETATM   29  N   UNL     1      42.182  -8.997   7.009  1.00  0.00    -0.307 N 
HETATM   30  C   UNL     1      41.761 -11.262   6.037  1.00  0.00     0.034 A 
HETATM   31  C   UNL     1      43.212  -8.457   7.794  1.00  0.00     0.325 A 
HETATM   32  H   UNL     1      41.382  -8.466   6.702  1.00  0.00     0.170 HD
HETATM   33  O   UNL     1      43.292  -7.315   8.206  1.00  0.00    -0.247 OA
HETATM   34  C   UNL     1      42.316 -12.547   5.958  1.00  0.00     0.032 A 
HETATM   35  H   UNL     1      44.974  -9.379   8.553  1.00  0.00     0.170 HD
ENDBRANCH  21  24
ENDBRANCH  19  20
ENDBRANCH   1  19
TORSDOF 7
ENDMDL
MODEL 3
REMARK VINA RESULT:      -8.3      2.722      5.907
REMARK  7 active torsions:
REMARK  status: ('A' for Active; 'I' for Inactive)
REMARK    1  A    between atoms: O_2  and  C_3 
REMARK    2  A    between atoms: C_6  and  C_7 
REMARK    3  A    between atoms: C_7  and  N_8 
REMARK    4  A    between atoms: C_7  and  C_25 
REMARK    5  A    between atoms: N_8  and  C_11 
REMARK    6  A    between atoms: C_11  and  C_12 
REMARK       I    between atoms: C_12  and  N_13 
REMARK    7  A    between atoms: N_13  and  C_14 
ROOT
HETATM    1  N   UNL     1      39.203 -13.692   2.003  1.00  0.00    -0.055 N 
HETATM    2  H   UNL     1      38.384 -13.673   1.375  1.00  0.00     0.278 HD
HETATM    3  H   UNL     1      39.070 -14.558   2.539  1.00  0.00     0.278 HD
ENDROOT
BRANCH   1   4
HETATM    4  C   UNL     1      40.467 -13.814   1.212  1.00  0.00     0.252 C 
BRANCH   4   5
HETATM    5  C   UNL     1      41.403 -14.946   1.633  1.00  0.00    -0.023 A 
HETATM    6  C   UNL     1      40.865 -16.113   2.215  1.00  0.00     0.012 A 
HETATM    7  C   UNL     1      41.676 -17.197   2.577  1.00  0.00     0.037 A 
HETATM    8  C   UNL     1      43.046 -17.154   2.341  1.00  0.00     0.068 A 
HETATM    9  C   UNL     1      43.591 -16.021   1.741  1.00  0.00     0.037 A 
HETATM   10  C   UNL     1      42.786 -14.934   1.379  1.00  0.00     0.012 A 
BRANCH   8  11
HETATM   11  O   UNL     1      43.948 -18.135   2.636  1.00  0.00    -0.356 OA
HETATM   12  C   UNL     1      43.543 -19.481   2.409  1.00  0.00     0.210 C 
ENDBRANCH   8  11
ENDBRANCH   4   5
BRANCH   4  13
HETATM   13  C   UNL     1      40.141 -13.726  -0.276  1.00  0.00    -0.023 A 
HETATM   14  C   UNL     1      40.443 -12.547  -0.981  1.00  0.00     0.009 A 
HETATM   15  C   UNL     1      40.104 -12.417  -2.329  1.00  0.00     0.001 A 
HETATM   16  C   UNL     1      39.454 -13.456  -2.989  1.00  0.00     0.000 A 
HETATM   17  C   UNL     1      39.144 -14.629  -2.306  1.00  0.00     0.001 A 
HETATM   18  C   UNL     1      39.481 -14.765  -0.958  1.00  0.00     0.009 A 
ENDBRANCH   4  13
ENDBRANCH   1   4
BRANCH   1  19
HETATM   19  C   UNL     1      39.071 -12.534   2.963  1.00  0.00     0.336 C 
BRANCH  19  20
HETATM   20  C   UNL     1      40.154 -12.650   4.035  1.00  0.00     0.248 C 
HETATM   21  N   UNL     1      41.050 -11.603   4.060  1.00  0.00    -0.326 N 
HETATM   22  H   UNL     1      40.931 -10.845   3.395  1.00  0.00     0.169 HD
HETATM   23  O   UNL     1      40.133 -13.645   4.760  1.00  0.00    -0.271 OA
BRANCH  21  24
HETATM   24  C   UNL     1      42.159 -11.453   4.928  1.00  0.00     0.037 A 
HETATM   25  C   UNL     1      42.043 -11.150   6.289  1.00  0.00     0.061 A 
HETATM   26  C   UNL     1      43.213 -11.041   7.010  1.00  0.00     0.065 A 
HETATM   27  C   UNL     1      44.467 -11.219   6.434  1.00  0.00     0.063 A 
HETATM   28  N   UNL     1      43.399 -10.754   8.358  1.00  0.00    -0.306 N 
HETATM   29  N   UNL     1      45.425 -11.043   7.424  1.00  0.00    -0.307 N 
HETATM   30  C   UNL     1      44.620 -11.515   5.104  1.00  0.00     0.034 A 
HETATM   31  C   UNL     1      44.775 -10.752   8.633  1.00  0.00     0.325 A 
HETATM   32  H   UNL     1      46.426 -11.105   7.333  1.00  0.00     0.170 HD
HETATM   33  O   UNL     1      45.300 -10.540   9.710  1.00  0.00    -0.247 OA
HETATM   34  C   UNL     1      43.445 -11.631   4.348  1.00  0.00     0.032 A 
HETATM   35  H   UNL     1      42.696 -10.571   9.055  1.00  0.00     0.170 HD
ENDBRANCH  21  24
ENDBRANCH  19  20
ENDBRANCH   1  19
TORSDOF 7
ENDMDL
MODEL 4
REMARK VINA RESULT:      -8.2      1.373      2.040
REMARK  7 active torsions:
REMARK  status: ('A' for Active; 'I' for Inactive)
REMARK    1  A    between atoms: O_2  and  C_3 
REMARK    2  A    between atoms: C_6  and  C_7 
REMARK    3  A    between atoms: C_7  and  N_8 
REMARK    4  A    between atoms: C_7  and  C_25 
REMARK    5  A    between atoms: N_8  and  C_11 
REMARK    6  A    between atoms: C_11  and  C_12 
REMARK       I    between atoms: C_12  and  N_13 
REMARK    7  A    between atoms: N_13  and  C_14 
ROOT
HETATM    1  N   UNL     1      43.865 -16.122   4.949  1.00  0.00    -0.055 N 
HETATM    2  H   UNL     1      44.660 -16.734   5.193  1.00  0.00     0.278 HD
HETATM    3  H   UNL     1      44.277 -15.450   4.290  1.00  0.00     0.278 HD
ENDROOT
BRANCH   1   4
HETATM    4  C   UNL     1      42.805 -16.898   4.233  1.00  0.00     0.252 C 
BRANCH   4   5
HETATM    5  C   UNL     1      42.137 -16.179   3.062  1.00  0.00    -0.023 A 
HETATM    6  C   UNL     1      42.900 -15.316   2.248  1.00  0.00     0.012 A 
HETATM    7  C   UNL     1      42.345 -14.669   1.136  1.00  0.00     0.037 A 
HETATM    8  C   UNL     1      41.016 -14.888   0.792  1.00  0.00     0.068 A 
HETATM    9  C   UNL     1      40.254 -15.760   1.569  1.00  0.00     0.037 A 
HETATM   10  C   UNL     1      40.803 -16.407   2.681  1.00  0.00     0.012 A 
BRANCH   8  11
HETATM   11  O   UNL     1      40.351 -14.332  -0.262  1.00  0.00    -0.356 OA
HETATM   12  C   UNL     1      40.274 -12.911  -0.305  1.00  0.00     0.210 C 
ENDBRANCH   8  11
ENDBRANCH   4   5
BRANCH   4  13
HETATM   13  C   UNL     1      43.315 -18.310   3.956  1.00  0.00    -0.023 A 
HETATM   14  C   UNL     1      43.228 -18.833   2.653  1.00  0.00     0.009 A 
HETATM   15  C   UNL     1      43.633 -20.141   2.382  1.00  0.00     0.001 A 
HETATM   16  C   UNL     1      44.122 -20.946   3.406  1.00  0.00     0.000 A 
HETATM   17  C   UNL     1      44.213 -20.447   4.703  1.00  0.00     0.001 A 
HETATM   18  C   UNL     1      43.810 -19.139   4.980  1.00  0.00     0.009 A 
ENDBRANCH   4  13
ENDBRANCH   1   4
BRANCH   1  19
HETATM   19  C   UNL     1      43.474 -15.361   6.194  1.00  0.00     0.336 C 
BRANCH  19  20
HETATM   20  C   UNL     1      42.854 -14.024   5.787  1.00  0.00     0.248 C 
HETATM   21  N   UNL     1      41.487 -14.054   5.621  1.00  0.00    -0.326 N 
HETATM   22  H   UNL     1      40.996 -14.927   5.782  1.00  0.00     0.169 HD
HETATM   23  O   UNL     1      43.614 -13.066   5.645  1.00  0.00    -0.271 OA
BRANCH  21  24
HETATM   24  C   UNL     1      40.655 -12.976   5.232  1.00  0.00     0.037 A 
HETATM   25  C   UNL     1      40.200 -11.989   6.115  1.00  0.00     0.061 A 
HETATM   26  C   UNL     1      39.400 -10.998   5.591  1.00  0.00     0.065 A 
HETATM   27  C   UNL     1      39.044 -10.955   4.246  1.00  0.00     0.063 A 
HETATM   28  N   UNL     1      38.814  -9.905   6.222  1.00  0.00    -0.306 N 
HETATM   29  N   UNL     1      38.240  -9.840   4.048  1.00  0.00    -0.307 N 
HETATM   30  C   UNL     1      39.469 -11.904   3.352  1.00  0.00     0.034 A 
HETATM   31  C   UNL     1      38.087  -9.172   5.273  1.00  0.00     0.325 A 
HETATM   32  H   UNL     1      37.819  -9.526   3.189  1.00  0.00     0.170 HD
HETATM   33  O   UNL     1      37.448  -8.156   5.473  1.00  0.00    -0.247 OA
HETATM   34  C   UNL     1      40.283 -12.925   3.861  1.00  0.00     0.032 A 
HETATM   35  H   UNL     1      38.873  -9.647   7.193  1.00  0.00     0.170 HD
ENDBRANCH  21  24
ENDBRANCH  19  20
ENDBRANCH   1  19
TORSDOF 7
ENDMDL
MODEL 5
REMARK VINA RESULT:      -8.1      1.771      1.998
REMARK  7 active torsions:
REMARK  status: ('A' for Active; 'I' for Inactive)
REMARK    1  A    between atoms: O_2  and  C_3 
REMARK    2  A    between atoms: C_6  and  C_7 
REMARK    3  A    between atoms: C_7  and  N_8 
REMARK    4  A    between atoms: C_7  and  C_25 
REMARK    5  A    between atoms: N_8  and  C_11 
REMARK    6  A    between atoms: C_11  and  C_12 
REMARK       I    between atoms: C_12  and  N_13 
REMARK    7  A    between atoms: N_13  and  C_14 
ROOT
HETATM    1  N   UNL     1      44.099 -16.374   5.263  1.00  0.00    -0.055 N 
HETATM    2  H   UNL     1      44.870 -17.012   5.516  1.00  0.00     0.278 HD
HETATM    3  H   UNL     1      44.539 -15.721   4.604  1.00  0.00     0.278 HD
ENDROOT
BRANCH   1   4
HETATM    4  C   UNL     1      43.017 -17.116   4.546  1.00  0.00     0.252 C 
BRANCH   4   5
HETATM    5  C   UNL     1      42.405 -16.396   3.345  1.00  0.00    -0.023 A 
HETATM    6  C   UNL     1      41.009 -16.200   3.289  1.00  0.00     0.012 A 
HETATM    7  C   UNL     1      40.404 -15.507   2.232  1.00  0.00     0.037 A 
HETATM    8  C   UNL     1      41.183 -14.966   1.215  1.00  0.00     0.068 A 
HETATM    9  C   UNL     1      42.567 -15.124   1.270  1.00  0.00     0.037 A 
HETATM   10  C   UNL     1      43.175 -15.818   2.321  1.00  0.00     0.012 A 
BRANCH   8  11
HETATM   11  O   UNL     1      40.730 -14.265   0.135  1.00  0.00    -0.356 OA
HETATM   12  C   UNL     1      39.916 -13.126   0.393  1.00  0.00     0.210 C 
ENDBRANCH   8  11
ENDBRANCH   4   5
BRANCH   4  13
HETATM   13  C   UNL     1      43.463 -18.557   4.312  1.00  0.00    -0.023 A 
HETATM   14  C   UNL     1      43.431 -19.088   3.010  1.00  0.00     0.009 A 
HETATM   15  C   UNL     1      43.778 -20.419   2.776  1.00  0.00     0.001 A 
HETATM   16  C   UNL     1      44.154 -21.240   3.836  1.00  0.00     0.000 A 
HETATM   17  C   UNL     1      44.187 -20.733   5.132  1.00  0.00     0.001 A 
HETATM   18  C   UNL     1      43.842 -19.401   5.372  1.00  0.00     0.009 A 
ENDBRANCH   4  13
ENDBRANCH   1   4
BRANCH   1  19
HETATM   19  C   UNL     1      43.729 -15.593   6.502  1.00  0.00     0.336 C 
BRANCH  19  20
HETATM   20  C   UNL     1      42.842 -14.414   6.101  1.00  0.00     0.248 C 
HETATM   21  N   UNL     1      43.463 -13.473   5.308  1.00  0.00    -0.326 N 
HETATM   22  H   UNL     1      44.431 -13.623   5.043  1.00  0.00     0.169 HD
HETATM   23  O   UNL     1      41.683 -14.408   6.515  1.00  0.00    -0.271 OA
BRANCH  21  24
HETATM   24  C   UNL     1      42.895 -12.278   4.805  1.00  0.00     0.037 A 
HETATM   25  C   UNL     1      42.605 -11.162   5.600  1.00  0.00     0.061 A 
HETATM   26  C   UNL     1      42.059 -10.066   4.968  1.00  0.00     0.065 A 
HETATM   27  C   UNL     1      41.796 -10.042   3.601  1.00  0.00     0.063 A 
HETATM   28  N   UNL     1      41.676  -8.838   5.497  1.00  0.00    -0.306 N 
HETATM   29  N   UNL     1      41.254  -8.802   3.288  1.00  0.00    -0.307 N 
HETATM   30  C   UNL     1      42.066 -11.116   2.792  1.00  0.00     0.034 A 
HETATM   31  C   UNL     1      41.172  -8.037   4.461  1.00  0.00     0.325 A 
HETATM   32  H   UNL     1      40.957  -8.468   2.386  1.00  0.00     0.170 HD
HETATM   33  O   UNL     1      40.747  -6.901   4.562  1.00  0.00    -0.247 OA
HETATM   34  C   UNL     1      42.621 -12.244   3.410  1.00  0.00     0.032 A 
HETATM   35  H   UNL     1      41.731  -8.532   6.455  1.00  0.00     0.170 HD
ENDBRANCH  21  24
ENDBRANCH  19  20
ENDBRANCH   1  19
TORSDOF 7
ENDMDL
MODEL 6
REMARK VINA RESULT:      -8.0      2.760      4.615
REMARK  7 active torsions:
REMARK  status: ('A' for Active; 'I' for Inactive)
REMARK    1  A    between atoms: O_2  and  C_3 
REMARK    2  A    between atoms: C_6  and  C_7 
REMARK    3  A    between atoms: C_7  and  N_8 
REMARK    4  A    between atoms: C_7  and  C_25 
REMARK    5  A    between atoms: N_8  and  C_11 
REMARK    6  A    between atoms: C_11  and  C_12 
REMARK       I    between atoms: C_12  and  N_13 
REMARK    7  A    between atoms: N_13  and  C_14 
ROOT
HETATM    1  N   UNL     1      39.024 -14.481   2.673  1.00  0.00    -0.055 N 
HETATM    2  H   UNL     1      38.035 -14.727   2.507  1.00  0.00     0.278 HD
HETATM    3  H   UNL     1      39.226 -14.915   3.582  1.00  0.00     0.278 HD
ENDROOT
BRANCH   1   4
HETATM    4  C   UNL     1      39.902 -15.114   1.641  1.00  0.00     0.252 C 
BRANCH   4   5
HETATM    5  C   UNL     1      40.166 -14.274   0.392  1.00  0.00    -0.023 A 
HETATM    6  C   UNL     1      39.606 -14.667  -0.842  1.00  0.00     0.012 A 
HETATM    7  C   UNL     1      39.781 -13.907  -2.006  1.00  0.00     0.037 A 
HETATM    8  C   UNL     1      40.500 -12.717  -1.961  1.00  0.00     0.068 A 
HETATM    9  C   UNL     1      41.036 -12.298  -0.745  1.00  0.00     0.037 A 
HETATM   10  C   UNL     1      40.866 -13.055   0.420  1.00  0.00     0.012 A 
BRANCH   8  11
HETATM   11  O   UNL     1      40.741 -11.879  -3.011  1.00  0.00    -0.356 OA
HETATM   12  C   UNL     1      39.868 -10.766  -3.169  1.00  0.00     0.210 C 
ENDBRANCH   8  11
ENDBRANCH   4   5
BRANCH   4  13
HETATM   13  C   UNL     1      41.129 -15.714   2.322  1.00  0.00    -0.023 A 
HETATM   14  C   UNL     1      42.286 -15.969   1.563  1.00  0.00     0.009 A 
HETATM   15  C   UNL     1      43.402 -16.570   2.147  1.00  0.00     0.001 A 
HETATM   16  C   UNL     1      43.377 -16.932   3.490  1.00  0.00     0.000 A 
HETATM   17  C   UNL     1      42.240 -16.692   4.256  1.00  0.00     0.001 A 
HETATM   18  C   UNL     1      41.120 -16.090   3.678  1.00  0.00     0.009 A 
ENDBRANCH   4  13
ENDBRANCH   1   4
BRANCH   1  19
HETATM   19  C   UNL     1      39.099 -12.984   2.853  1.00  0.00     0.336 C 
BRANCH  19  20
HETATM   20  C   UNL     1      39.840 -12.675   4.154  1.00  0.00     0.248 C 
HETATM   21  N   UNL     1      41.187 -12.431   4.003  1.00  0.00    -0.326 N 
HETATM   22  H   UNL     1      41.585 -12.463   3.069  1.00  0.00     0.169 HD
HETATM   23  O   UNL     1      39.183 -12.675   5.195  1.00  0.00    -0.271 OA
BRANCH  21  24
HETATM   24  C   UNL     1      42.119 -12.138   5.028  1.00  0.00     0.037 A 
HETATM   25  C   UNL     1      42.191 -10.902   5.680  1.00  0.00     0.061 A 
HETATM   26  C   UNL     1      43.147 -10.765   6.663  1.00  0.00     0.065 A 
HETATM   27  C   UNL     1      44.016 -11.796   7.012  1.00  0.00     0.063 A 
HETATM   28  N   UNL     1      43.443  -9.669   7.466  1.00  0.00    -0.306 N 
HETATM   29  N   UNL     1      44.845 -11.335   8.027  1.00  0.00    -0.307 N 
HETATM   30  C   UNL     1      43.976 -13.019   6.394  1.00  0.00     0.034 A 
HETATM   31  C   UNL     1      44.500 -10.008   8.323  1.00  0.00     0.325 A 
HETATM   32  H   UNL     1      45.581 -11.836   8.498  1.00  0.00     0.170 HD
HETATM   33  O   UNL     1      45.017  -9.291   9.159  1.00  0.00    -0.247 OA
HETATM   34  C   UNL     1      43.012 -13.184   5.389  1.00  0.00     0.032 A 
HETATM   35  H   UNL     1      43.001  -8.764   7.465  1.00  0.00     0.170 HD
ENDBRANCH  21  24
ENDBRANCH  19  20
ENDBRANCH   1  19
TORSDOF 7
ENDMDL
MODEL 7
REMARK VINA RESULT:      -8.0      3.448      7.057
REMARK  7 active torsions:
REMARK  status: ('A' for Active; 'I' for Inactive)
REMARK    1  A    between atoms: O_2  and  C_3 
REMARK    2  A    between atoms: C_6  and  C_7 
REMARK    3  A    between atoms: C_7  and  N_8 
REMARK    4  A    between atoms: C_7  and  C_25 
REMARK    5  A    between atoms: N_8  and  C_11 
REMARK    6  A    between atoms: C_11  and  C_12 
REMARK       I    between atoms: C_12  and  N_13 
REMARK    7  A    between atoms: N_13  and  C_14 
ROOT
HETATM    1  N   UNL     1      40.948 -13.567   4.336  1.00  0.00    -0.055 N 
HETATM    2  H   UNL     1      40.464 -14.245   3.727  1.00  0.00     0.278 HD
HETATM    3  H   UNL     1      40.794 -13.944   5.279  1.00  0.00     0.278 HD
ENDROOT
BRANCH   1   4
HETATM    4  C   UNL     1      42.418 -13.568   4.059  1.00  0.00     0.252 C 
BRANCH   4   5
HETATM    5  C   UNL     1      43.296 -12.950   5.146  1.00  0.00    -0.023 A 
HETATM    6  C   UNL     1      44.260 -11.981   4.794  1.00  0.00     0.012 A 
HETATM    7  C   UNL     1      45.058 -11.352   5.758  1.00  0.00     0.037 A 
HETATM    8  C   UNL     1      44.896 -11.656   7.106  1.00  0.00     0.068 A 
HETATM    9  C   UNL     1      43.929 -12.590   7.474  1.00  0.00     0.037 A 
HETATM   10  C   UNL     1      43.130 -13.223   6.514  1.00  0.00     0.012 A 
BRANCH   8  11
HETATM   11  O   UNL     1      45.597 -11.118   8.146  1.00  0.00    -0.356 OA
HETATM   12  C   UNL     1      45.925  -9.735   8.064  1.00  0.00     0.210 C 
ENDBRANCH   8  11
ENDBRANCH   4   5
BRANCH   4  13
HETATM   13  C   UNL     1      42.835 -14.947   3.557  1.00  0.00    -0.023 A 
HETATM   14  C   UNL     1      42.918 -15.184   2.173  1.00  0.00     0.009 A 
HETATM   15  C   UNL     1      43.241 -16.451   1.686  1.00  0.00     0.001 A 
HETATM   16  C   UNL     1      43.478 -17.500   2.570  1.00  0.00     0.000 A 
HETATM   17  C   UNL     1      43.397 -17.285   3.943  1.00  0.00     0.001 A 
HETATM   18  C   UNL     1      43.075 -16.019   4.437  1.00  0.00     0.009 A 
ENDBRANCH   4  13
ENDBRANCH   1   4
BRANCH   1  19
HETATM   19  C   UNL     1      40.204 -12.255   4.241  1.00  0.00     0.336 C 
BRANCH  19  20
HETATM   20  C   UNL     1      39.529 -12.164   2.872  1.00  0.00     0.248 C 
HETATM   21  N   UNL     1      40.172 -12.853   1.868  1.00  0.00    -0.326 N 
HETATM   22  H   UNL     1      41.018 -13.368   2.096  1.00  0.00     0.169 HD
HETATM   23  O   UNL     1      38.499 -11.495   2.791  1.00  0.00    -0.271 OA
BRANCH  21  24
HETATM   24  C   UNL     1      39.787 -12.930   0.508  1.00  0.00     0.037 A 
HETATM   25  C   UNL     1      39.452 -14.127  -0.137  1.00  0.00     0.061 A 
HETATM   26  C   UNL     1      39.091 -14.045  -1.464  1.00  0.00     0.065 A 
HETATM   27  C   UNL     1      39.053 -12.839  -2.157  1.00  0.00     0.063 A 
HETATM   28  N   UNL     1      38.713 -15.054  -2.344  1.00  0.00    -0.306 N 
HETATM   29  N   UNL     1      38.652 -13.103  -3.461  1.00  0.00    -0.307 N 
HETATM   30  C   UNL     1      39.375 -11.648  -1.560  1.00  0.00     0.034 A 
HETATM   31  C   UNL     1      38.435 -14.483  -3.594  1.00  0.00     0.325 A 
HETATM   32  H   UNL     1      38.526 -12.446  -4.214  1.00  0.00     0.170 HD
HETATM   33  O   UNL     1      38.077 -15.070  -4.598  1.00  0.00    -0.247 OA
HETATM   34  C   UNL     1      39.747 -11.704  -0.209  1.00  0.00     0.032 A 
HETATM   35  H   UNL     1      38.639 -16.041  -2.158  1.00  0.00     0.170 HD
ENDBRANCH  21  24
ENDBRANCH  19  20
ENDBRANCH   1  19
TORSDOF 7
ENDMDL
MODEL 8
REMARK VINA RESULT:      -8.0      3.115      7.388
REMARK  7 active torsions:
REMARK  status: ('A' for Active; 'I' for Inactive)
REMARK    1  A    between atoms: O_2  and  C_3 
REMARK    2  A    between atoms: C_6  and  C_7 
REMARK    3  A    between atoms: C_7  and  N_8 
REMARK    4  A    between atoms: C_7  and  C_25 
REMARK    5  A    between atoms: N_8  and  C_11 
REMARK    6  A    between atoms: C_11  and  C_12 
REMARK       I    between atoms: C_12  and  N_13 
REMARK    7  A    between atoms: N_13  and  C_14 
ROOT
HETATM    1  N   UNL     1      42.823 -11.764   4.611  1.00  0.00    -0.055 N 
HETATM    2  H   UNL     1      43.550 -11.041   4.490  1.00  0.00     0.278 HD
HETATM    3  H   UNL     1      42.983 -12.396   3.818  1.00  0.00     0.278 HD
ENDROOT
BRANCH   1   4
HETATM    4  C   UNL     1      43.048 -12.528   5.878  1.00  0.00     0.252 C 
BRANCH   4   5
HETATM    5  C   UNL     1      43.204 -14.039   5.719  1.00  0.00    -0.023 A 
HETATM    6  C   UNL     1      42.934 -14.639   4.471  1.00  0.00     0.012 A 
HETATM    7  C   UNL     1      43.106 -16.014   4.262  1.00  0.00     0.037 A 
HETATM    8  C   UNL     1      43.578 -16.823   5.290  1.00  0.00     0.068 A 
HETATM    9  C   UNL     1      43.878 -16.242   6.521  1.00  0.00     0.037 A 
HETATM   10  C   UNL     1      43.706 -14.870   6.736  1.00  0.00     0.012 A 
BRANCH   8  11
HETATM   11  O   UNL     1      43.797 -18.169   5.224  1.00  0.00    -0.356 OA
HETATM   12  C   UNL     1      44.526 -18.655   4.102  1.00  0.00     0.210 C 
ENDBRANCH   8  11
ENDBRANCH   4   5
BRANCH   4  13
HETATM   13  C   UNL     1      44.115 -11.822   6.709  1.00  0.00    -0.023 A 
HETATM   14  C   UNL     1      43.781 -11.317   7.979  1.00  0.00     0.009 A 
HETATM   15  C   UNL     1      44.721 -10.618   8.737  1.00  0.00     0.001 A 
HETATM   16  C   UNL     1      46.002 -10.404   8.236  1.00  0.00     0.000 A 
HETATM   17  C   UNL     1      46.350 -10.893   6.980  1.00  0.00     0.001 A 
HETATM   18  C   UNL     1      45.414 -11.595   6.218  1.00  0.00     0.009 A 
ENDBRANCH   4  13
ENDBRANCH   1   4
BRANCH   1  19
HETATM   19  C   UNL     1      41.481 -11.102   4.405  1.00  0.00     0.336 C 
BRANCH  19  20
HETATM   20  C   UNL     1      40.630 -11.976   3.484  1.00  0.00     0.248 C 
HETATM   21  N   UNL     1      41.220 -12.281   2.277  1.00  0.00    -0.326 N 
HETATM   22  H   UNL     1      42.152 -11.926   2.088  1.00  0.00     0.169 HD
HETATM   23  O   UNL     1      39.520 -12.317   3.891  1.00  0.00    -0.271 OA
BRANCH  21  24
HETATM   24  C   UNL     1      40.662 -13.052   1.228  1.00  0.00     0.037 A 
HETATM   25  C   UNL     1      40.327 -12.527  -0.026  1.00  0.00     0.061 A 
HETATM   26  C   UNL     1      39.797 -13.402  -0.950  1.00  0.00     0.065 A 
HETATM   27  C   UNL     1      39.592 -14.751  -0.675  1.00  0.00     0.063 A 
HETATM   28  N   UNL     1      39.379 -13.166  -2.256  1.00  0.00    -0.306 N 
HETATM   29  N   UNL     1      39.051 -15.345  -1.807  1.00  0.00    -0.307 N 
HETATM   30  C   UNL     1      39.907 -15.299   0.542  1.00  0.00     0.034 A 
HETATM   31  C   UNL     1      38.911 -14.368  -2.805  1.00  0.00     0.325 A 
HETATM   32  H   UNL     1      38.789 -16.309  -1.934  1.00  0.00     0.170 HD
HETATM   33  O   UNL     1      38.471 -14.532  -3.928  1.00  0.00    -0.247 OA
HETATM   34  C   UNL     1      40.448 -14.430   1.501  1.00  0.00     0.032 A 
HETATM   35  H   UNL     1      39.391 -12.295  -2.761  1.00  0.00     0.170 HD
ENDBRANCH  21  24
ENDBRANCH  19  20
ENDBRANCH   1  19
TORSDOF 7
ENDMDL
MODEL 9
REMARK VINA RESULT:      -7.9      3.595      6.358
REMARK  7 active torsions:
REMARK  status: ('A' for Active; 'I' for Inactive)
REMARK    1  A    between atoms: O_2  and  C_3 
REMARK    2  A    between atoms: C_6  and  C_7 
REMARK    3  A    between atoms: C_7  and  N_8 
REMARK    4  A    between atoms: C_7  and  C_25 
REMARK    5  A    between atoms: N_8  and  C_11 
REMARK    6  A    between atoms: C_11  and  C_12 
REMARK       I    between atoms: C_12  and  N_13 
REMARK    7  A    between atoms: N_13  and  C_14 
ROOT
HETATM    1  N   UNL     1      40.672 -15.673   3.445  1.00  0.00    -0.055 N 
HETATM    2  H   UNL     1      40.521 -16.526   4.005  1.00  0.00     0.278 HD
HETATM    3  H   UNL     1      40.362 -14.920   4.071  1.00  0.00     0.278 HD
ENDROOT
BRANCH   1   4
HETATM    4  C   UNL     1      42.128 -15.482   3.160  1.00  0.00     0.252 C 
BRANCH   4   5
HETATM    5  C   UNL     1      42.772 -14.255   3.804  1.00  0.00    -0.023 A 
HETATM    6  C   UNL     1      43.190 -13.181   2.990  1.00  0.00     0.012 A 
HETATM    7  C   UNL     1      43.745 -12.016   3.535  1.00  0.00     0.037 A 
HETATM    8  C   UNL     1      43.873 -11.882   4.913  1.00  0.00     0.068 A 
HETATM    9  C   UNL     1      43.439 -12.921   5.734  1.00  0.00     0.037 A 
HETATM   10  C   UNL     1      42.886 -14.088   5.195  1.00  0.00     0.012 A 
BRANCH   8  11
HETATM   11  O   UNL     1      44.387 -10.806   5.577  1.00  0.00    -0.356 OA
HETATM   12  C   UNL     1      44.998 -11.051   6.839  1.00  0.00     0.210 C 
ENDBRANCH   8  11
ENDBRANCH   4   5
BRANCH   4  13
HETATM   13  C   UNL     1      42.858 -16.808   3.355  1.00  0.00    -0.023 A 
HETATM   14  C   UNL     1      43.609 -17.018   4.526  1.00  0.00     0.009 A 
HETATM   15  C   UNL     1      44.333 -18.197   4.705  1.00  0.00     0.001 A 
HETATM   16  C   UNL     1      44.324 -19.179   3.718  1.00  0.00     0.000 A 
HETATM   17  C   UNL     1      43.589 -18.987   2.551  1.00  0.00     0.001 A 
HETATM   18  C   UNL     1      42.862 -17.809   2.367  1.00  0.00     0.009 A 
ENDBRANCH   4  13
ENDBRANCH   1   4
BRANCH   1  19
HETATM   19  C   UNL     1      39.716 -15.719   2.276  1.00  0.00     0.336 C 
BRANCH  19  20
HETATM   20  C   UNL     1      39.767 -14.381   1.538  1.00  0.00     0.248 C 
HETATM   21  N   UNL     1      40.209 -14.461   0.236  1.00  0.00    -0.326 N 
HETATM   22  H   UNL     1      40.455 -15.372  -0.139  1.00  0.00     0.169 HD
HETATM   23  O   UNL     1      39.420 -13.376   2.159  1.00  0.00    -0.271 OA
BRANCH  21  24
HETATM   24  C   UNL     1      40.374 -13.389  -0.674  1.00  0.00     0.037 A 
HETATM   25  C   UNL     1      40.909 -12.145  -0.318  1.00  0.00     0.061 A 
HETATM   26  C   UNL     1      41.014 -11.198  -1.314  1.00  0.00     0.065 A 
HETATM   27  C   UNL     1      40.612 -11.441  -2.624  1.00  0.00     0.063 A 
HETATM   28  N   UNL     1      41.500  -9.897  -1.252  1.00  0.00    -0.306 N 
HETATM   29  N   UNL     1      40.851 -10.293  -3.368  1.00  0.00    -0.307 N 
HETATM   30  C   UNL     1      40.082 -12.646  -3.009  1.00  0.00     0.034 A 
HETATM   31  C   UNL     1      41.406  -9.318  -2.526  1.00  0.00     0.325 A 
HETATM   32  H   UNL     1      40.671 -10.143  -4.348  1.00  0.00     0.170 HD
HETATM   33  O   UNL     1      41.741  -8.191  -2.839  1.00  0.00    -0.247 OA
HETATM   34  C   UNL     1      39.964 -13.626  -2.015  1.00  0.00     0.032 A 
HETATM   35  H   UNL     1      41.867  -9.410  -0.450  1.00  0.00     0.170 HD
ENDBRANCH  21  24
ENDBRANCH  19  20
ENDBRANCH   1  19
TORSDOF 7
ENDMDL
MODEL 10
REMARK VINA RESULT:      -7.8      4.310      9.417
REMARK  7 active torsions:
REMARK  status: ('A' for Active; 'I' for Inactive)
REMARK    1  A    between atoms: O_2  and  C_3 
REMARK    2  A    between atoms: C_6  and  C_7 
REMARK    3  A    between atoms: C_7  and  N_8 
REMARK    4  A    between atoms: C_7  and  C_25 
REMARK    5  A    between atoms: N_8  and  C_11 
REMARK    6  A    between atoms: C_11  and  C_12 
REMARK       I    between atoms: C_12  and  N_13 
REMARK    7  A    between atoms: N_13  and  C_14 
ROOT
HETATM    1  N   UNL     1      41.383  -9.886   8.665  1.00  0.00    -0.055 N 
HETATM    2  H   UNL     1      41.738 -10.801   8.344  1.00  0.00     0.278 HD
HETATM    3  H   UNL     1      40.764 -10.133   9.446  1.00  0.00     0.278 HD
ENDROOT
BRANCH   1   4
HETATM    4  C   UNL     1      42.501  -9.045   9.195  1.00  0.00     0.252 C 
BRANCH   4   5
HETATM    5  C   UNL     1      42.445  -8.737  10.690  1.00  0.00    -0.023 A 
HETATM    6  C   UNL     1      42.363  -9.799  11.616  1.00  0.00     0.012 A 
HETATM    7  C   UNL     1      42.355  -9.571  12.999  1.00  0.00     0.037 A 
HETATM    8  C   UNL     1      42.455  -8.275  13.494  1.00  0.00     0.068 A 
HETATM    9  C   UNL     1      42.565  -7.217  12.594  1.00  0.00     0.037 A 
HETATM   10  C   UNL     1      42.572  -7.439  11.212  1.00  0.00     0.012 A 
BRANCH   8  11
HETATM   11  O   UNL     1      42.465  -7.911  14.809  1.00  0.00    -0.356 OA
HETATM   12  C   UNL     1      41.297  -8.195  15.572  1.00  0.00     0.210 C 
ENDBRANCH   8  11
ENDBRANCH   4   5
BRANCH   4  13
HETATM   13  C   UNL     1      43.828  -9.581   8.665  1.00  0.00    -0.023 A 
HETATM   14  C   UNL     1      44.987  -8.790   8.777  1.00  0.00     0.009 A 
HETATM   15  C   UNL     1      46.202  -9.230   8.251  1.00  0.00     0.001 A 
HETATM   16  C   UNL     1      46.278 -10.457   7.599  1.00  0.00     0.000 A 
HETATM   17  C   UNL     1      45.141 -11.252   7.475  1.00  0.00     0.001 A 
HETATM   18  C   UNL     1      43.922 -10.817   8.001  1.00  0.00     0.009 A 
ENDBRANCH   4  13
ENDBRANCH   1   4
BRANCH   1  19
HETATM   19  C   UNL     1      40.523  -9.317   7.561  1.00  0.00     0.336 C 
BRANCH  19  20
HETATM   20  C   UNL     1      40.740 -10.135   6.288  1.00  0.00     0.248 C 
HETATM   21  N   UNL     1      40.637 -11.498   6.457  1.00  0.00    -0.326 N 
HETATM   22  H   UNL     1      40.421 -11.858   7.381  1.00  0.00     0.169 HD
HETATM   23  O   UNL     1      40.987  -9.517   5.252  1.00  0.00    -0.271 OA
BRANCH  21  24
HETATM   24  C   UNL     1      40.806 -12.493   5.465  1.00  0.00     0.037 A 
HETATM   25  C   UNL     1      39.798 -12.880   4.574  1.00  0.00     0.061 A 
HETATM   26  C   UNL     1      40.113 -13.860   3.656  1.00  0.00     0.065 A 
HETATM   27  C   UNL     1      41.369 -14.455   3.597  1.00  0.00     0.063 A 
HETATM   28  N   UNL     1      39.323 -14.432   2.665  1.00  0.00    -0.306 N 
HETATM   29  N   UNL     1      41.354 -15.392   2.572  1.00  0.00    -0.307 N 
HETATM   30  C   UNL     1      42.381 -14.103   4.454  1.00  0.00     0.034 A 
HETATM   31  C   UNL     1      40.083 -15.390   1.978  1.00  0.00     0.325 A 
HETATM   32  H   UNL     1      42.106 -15.991   2.271  1.00  0.00     0.170 HD
HETATM   33  O   UNL     1      39.712 -16.083   1.050  1.00  0.00    -0.247 OA
HETATM   34  C   UNL     1      42.086 -13.109   5.398  1.00  0.00     0.032 A 
HETATM   35  H   UNL     1      38.362 -14.225   2.443  1.00  0.00     0.170 HD
ENDBRANCH  21  24
ENDBRANCH  19  20
ENDBRANCH   1  19
TORSDOF 7
ENDMDL
