MODEL 1
REMARK VINA RESULT:      -8.3      0.000      0.000
REMARK  6 active torsions:
REMARK  status: ('A' for Active; 'I' for Inactive)
REMARK    1  A    between atoms: C_5  and  C_6 
REMARK    2  A    between atoms: C_6  and  O_7 
REMARK    3  A    between atoms: C_6  and  C_8 
REMARK    4  A    between atoms: C_8  and  N_9 
REMARK       I    between atoms: N_9  and  C_10 
REMARK    5  A    between atoms: C_10  and  C_11 
REMARK    6  A    between atoms: C_11  and  C_12 
ROOT
HETATM    1  N   UNL     1      40.928 -14.018   2.716  1.00  0.00    -0.358 N 
HETATM    2  C   UNL     1      42.240 -13.884   2.316  1.00  0.00     0.222 C 
HETATM    3  O   UNL     1      42.885 -12.855   2.492  1.00  0.00    -0.273 OA
HETATM    4  H   UNL     1      40.542 -14.954   2.773  1.00  0.00     0.162 HD
ENDROOT
BRANCH   1   5
HETATM    5  C   UNL     1      40.294 -12.992   3.545  1.00  0.00     0.159 C 
BRANCH   5   6
HETATM    6  C   UNL     1      40.353 -13.294   5.058  1.00  0.00     0.169 C 
BRANCH   6   7
HETATM    7  C   UNL     1      41.626 -12.745   5.670  1.00  0.00    -0.028 A 
HETATM    8  C   UNL     1      41.935 -11.379   5.649  1.00  0.00     0.010 A 
HETATM    9  C   UNL     1      43.106 -10.901   6.246  1.00  0.00     0.007 A 
HETATM   10  C   UNL     1      43.995 -11.781   6.871  1.00  0.00    -0.062 A 
HETATM   11  C   UNL     1      45.236 -11.271   7.540  1.00  0.00     0.048 C 
HETATM   12  C   UNL     1      43.685 -13.145   6.907  1.00  0.00     0.007 A 
HETATM   13  C   UNL     1      42.516 -13.622   6.309  1.00  0.00     0.010 A 
ENDBRANCH   6   7
BRANCH   6  14
HETATM   14  O   UNL     1      40.265 -14.712   5.249  1.00  0.00    -0.389 OA
HETATM   15  H   UNL     1      41.181 -15.004   5.395  1.00  0.00     0.210 HD
ENDBRANCH   6  14
ENDBRANCH   5   6
ENDBRANCH   1   5
BRANCH   2  16
HETATM   16  C   UNL     1      42.837 -15.113   1.654  1.00  0.00     0.142 C 
BRANCH  16  17
HETATM   17  C   UNL     1      43.120 -16.255   2.595  1.00  0.00    -0.031 A 
HETATM   18  C   UNL     1      43.433 -16.075   3.937  1.00  0.00     0.125 A 
HETATM   19  N   UNL     1      43.728 -17.079   4.795  1.00  0.00    -0.260 NA
HETATM   20  C   UNL     1      43.757 -18.335   4.320  1.00  0.00     0.066 A 
HETATM   21  C   UNL     1      43.483 -18.633   2.971  1.00  0.00    -0.007 A 
HETATM   22  C   UNL     1      44.074 -19.382   5.174  1.00  0.00     0.032 A 
HETATM   23  C   UNL     1      43.163 -17.568   2.113  1.00  0.00     0.022 A 
HETATM   24  C   UNL     1      43.542 -19.962   2.514  1.00  0.00     0.014 A 
HETATM   25  C   UNL     1      43.869 -20.995   3.393  1.00  0.00     0.001 A 
HETATM   26  C   UNL     1      44.134 -20.704   4.726  1.00  0.00     0.002 A 
ENDBRANCH  16  17
ENDBRANCH   2  16
TORSDOF 6
ENDMDL
MODEL 2
REMARK VINA RESULT:      -8.3      1.383      2.020
REMARK  6 active torsions:
REMARK  status: ('A' for Active; 'I' for Inactive)
REMARK    1  A    between atoms: C_5  and  C_6 
REMARK    2  A    between atoms: C_6  and  O_7 
REMARK    3  A    between atoms: C_6  and  C_8 
REMARK    4  A    between atoms: C_8  and  N_9 
REMARK       I    between atoms: N_9  and  C_10 
REMARK    5  A    between atoms: C_10  and  C_11 
REMARK    6  A    between atoms: C_11  and  C_12 
ROOT
HETATM    1  N   UNL     1      42.167 -13.424   2.647  1.00  0.00    -0.358 N 
HETATM    2  C   UNL     1      41.805 -14.483   1.842  1.00  0.00     0.222 C 
HETATM    3  O   UNL     1      40.658 -14.644   1.435  1.00  0.00    -0.273 OA
HETATM    4  H   UNL     1      43.155 -13.211   2.735  1.00  0.00     0.162 HD
ENDROOT
BRANCH   1   5
HETATM    5  C   UNL     1      41.231 -12.331   2.905  1.00  0.00     0.159 C 
BRANCH   5   6
HETATM    6  C   UNL     1      40.322 -12.568   4.130  1.00  0.00     0.169 C 
BRANCH   6   7
HETATM    7  C   UNL     1      41.032 -13.403   5.177  1.00  0.00    -0.028 A 
HETATM    8  C   UNL     1      40.530 -14.635   5.615  1.00  0.00     0.010 A 
HETATM    9  C   UNL     1      41.223 -15.393   6.564  1.00  0.00     0.007 A 
HETATM   10  C   UNL     1      42.430 -14.931   7.098  1.00  0.00    -0.062 A 
HETATM   11  C   UNL     1      43.194 -15.755   8.091  1.00  0.00     0.048 C 
HETATM   12  C   UNL     1      42.944 -13.708   6.654  1.00  0.00     0.007 A 
HETATM   13  C   UNL     1      42.250 -12.949   5.708  1.00  0.00     0.010 A 
ENDBRANCH   6   7
BRANCH   6  14
HETATM   14  O   UNL     1      39.118 -13.212   3.694  1.00  0.00    -0.389 OA
HETATM   15  H   UNL     1      38.486 -12.488   3.544  1.00  0.00     0.210 HD
ENDBRANCH   6  14
ENDBRANCH   5   6
ENDBRANCH   1   5
BRANCH   2  16
HETATM   16  C   UNL     1      42.935 -15.429   1.479  1.00  0.00     0.142 C 
BRANCH  16  17
HETATM   17  C   UNL     1      43.195 -16.513   2.492  1.00  0.00    -0.031 A 
HETATM   18  C   UNL     1      43.471 -16.254   3.829  1.00  0.00     0.125 A 
HETATM   19  N   UNL     1      43.745 -17.204   4.752  1.00  0.00    -0.260 NA
HETATM   20  C   UNL     1      43.788 -18.486   4.352  1.00  0.00     0.066 A 
HETATM   21  C   UNL     1      43.550 -18.863   3.016  1.00  0.00    -0.007 A 
HETATM   22  C   UNL     1      44.083 -19.480   5.275  1.00  0.00     0.032 A 
HETATM   23  C   UNL     1      43.252 -17.851   2.090  1.00  0.00     0.022 A 
HETATM   24  C   UNL     1      43.622 -20.217   2.641  1.00  0.00     0.014 A 
HETATM   25  C   UNL     1      43.927 -21.195   3.586  1.00  0.00     0.001 A 
HETATM   26  C   UNL     1      44.156 -20.826   4.906  1.00  0.00     0.002 A 
ENDBRANCH  16  17
ENDBRANCH   2  16
TORSDOF 6
ENDMDL
MODEL 3
REMARK VINA RESULT:      -8.3      4.122      6.111
REMARK  6 active torsions:
REMARK  status: ('A' for Active; 'I' for Inactive)
REMARK    1  A    between atoms: C_5  and  C_6 
REMARK    2  A    between atoms: C_6  and  O_7 
REMARK    3  A    between atoms: C_6  and  C_8 
REMARK    4  A    between atoms: C_8  and  N_9 
REMARK       I    between atoms: N_9  and  C_10 
REMARK    5  A    between atoms: C_10  and  C_11 
REMARK    6  A    between atoms: C_11  and  C_12 
ROOT
HETATM    1  N   UNL     1      41.238 -14.567   0.141  1.00  0.00    -0.358 N 
HETATM    2  C   UNL     1      41.519 -14.678   1.487  1.00  0.00     0.222 C 
HETATM    3  O   UNL     1      40.655 -14.581   2.354  1.00  0.00    -0.273 OA
HETATM    4  H   UNL     1      41.931 -14.903  -0.517  1.00  0.00     0.162 HD
ENDROOT
BRANCH   1   5
HETATM    5  C   UNL     1      39.854 -14.513  -0.328  1.00  0.00     0.159 C 
BRANCH   5   6
HETATM    6  C   UNL     1      39.721 -14.469  -1.865  1.00  0.00     0.169 C 
BRANCH   6   7
HETATM    7  C   UNL     1      39.720 -13.039  -2.367  1.00  0.00    -0.028 A 
HETATM    8  C   UNL     1      40.885 -12.406  -2.819  1.00  0.00     0.010 A 
HETATM    9  C   UNL     1      40.845 -11.094  -3.300  1.00  0.00     0.007 A 
HETATM   10  C   UNL     1      39.640 -10.386  -3.333  1.00  0.00    -0.062 A 
HETATM   11  C   UNL     1      39.585  -8.990  -3.878  1.00  0.00     0.048 C 
HETATM   12  C   UNL     1      38.470 -11.018  -2.897  1.00  0.00     0.007 A 
HETATM   13  C   UNL     1      38.511 -12.328  -2.414  1.00  0.00     0.010 A 
ENDBRANCH   6   7
BRANCH   6  14
HETATM   14  O   UNL     1      38.514 -15.144  -2.244  1.00  0.00    -0.389 OA
HETATM   15  H   UNL     1      38.784 -16.062  -2.419  1.00  0.00     0.210 HD
ENDBRANCH   6  14
ENDBRANCH   5   6
ENDBRANCH   1   5
BRANCH   2  16
HETATM   16  C   UNL     1      42.976 -14.946   1.817  1.00  0.00     0.142 C 
BRANCH  16  17
HETATM   17  C   UNL     1      43.206 -16.133   2.717  1.00  0.00    -0.031 A 
HETATM   18  C   UNL     1      43.468 -16.017   4.076  1.00  0.00     0.125 A 
HETATM   19  N   UNL     1      43.715 -17.062   4.899  1.00  0.00    -0.260 NA
HETATM   20  C   UNL     1      43.744 -18.296   4.369  1.00  0.00     0.066 A 
HETATM   21  C   UNL     1      43.518 -18.530   2.999  1.00  0.00    -0.007 A 
HETATM   22  C   UNL     1      44.012 -19.385   5.188  1.00  0.00     0.032 A 
HETATM   23  C   UNL     1      43.248 -17.423   2.178  1.00  0.00     0.022 A 
HETATM   24  C   UNL     1      43.576 -19.839   2.487  1.00  0.00     0.014 A 
HETATM   25  C   UNL     1      43.852 -20.914   3.330  1.00  0.00     0.001 A 
HETATM   26  C   UNL     1      44.070 -20.687   4.683  1.00  0.00     0.002 A 
ENDBRANCH  16  17
ENDBRANCH   2  16
TORSDOF 6
ENDMDL
MODEL 4
REMARK VINA RESULT:      -8.3      2.374      3.486
REMARK  6 active torsions:
REMARK  status: ('A' for Active; 'I' for Inactive)
REMARK    1  A    between atoms: C_5  and  C_6 
REMARK    2  A    between atoms: C_6  and  O_7 
REMARK    3  A    between atoms: C_6  and  C_8 
REMARK    4  A    between atoms: C_8  and  N_9 
REMARK       I    between atoms: N_9  and  C_10 
REMARK    5  A    between atoms: C_10  and  C_11 
REMARK    6  A    between atoms: C_11  and  C_12 
ROOT
HETATM    1  N   UNL     1      43.825 -12.427   4.919  1.00  0.00    -0.358 N 
HETATM    2  C   UNL     1      42.722 -13.229   4.713  1.00  0.00     0.222 C 
HETATM    3  O   UNL     1      41.729 -13.189   5.433  1.00  0.00    -0.273 OA
HETATM    4  H   UNL     1      44.488 -12.327   4.159  1.00  0.00     0.162 HD
ENDROOT
BRANCH   1   5
HETATM    5  C   UNL     1      43.786 -11.349   5.907  1.00  0.00     0.159 C 
BRANCH   5   6
HETATM    6  C   UNL     1      44.947 -11.397   6.924  1.00  0.00     0.169 C 
BRANCH   6   7
HETATM    7  C   UNL     1      44.593 -10.636   8.185  1.00  0.00    -0.028 A 
HETATM    8  C   UNL     1      43.301 -10.152   8.427  1.00  0.00     0.010 A 
HETATM    9  C   UNL     1      43.001  -9.475   9.613  1.00  0.00     0.007 A 
HETATM   10  C   UNL     1      43.989  -9.264  10.580  1.00  0.00    -0.062 A 
HETATM   11  C   UNL     1      43.666  -8.568  11.868  1.00  0.00     0.048 C 
HETATM   12  C   UNL     1      45.278  -9.758  10.351  1.00  0.00     0.007 A 
HETATM   13  C   UNL     1      45.578 -10.432   9.164  1.00  0.00     0.010 A 
ENDBRANCH   6   7
BRANCH   6  14
HETATM   14  O   UNL     1      46.121 -10.850   6.309  1.00  0.00    -0.389 OA
HETATM   15  H   UNL     1      45.820 -10.513   5.448  1.00  0.00     0.210 HD
ENDBRANCH   6  14
ENDBRANCH   5   6
ENDBRANCH   1   5
BRANCH   2  16
HETATM   16  C   UNL     1      42.819 -14.156   3.514  1.00  0.00     0.142 C 
BRANCH  16  17
HETATM   17  C   UNL     1      43.118 -15.592   3.856  1.00  0.00    -0.031 A 
HETATM   18  C   UNL     1      43.606 -15.993   5.093  1.00  0.00     0.125 A 
HETATM   19  N   UNL     1      43.918 -17.270   5.415  1.00  0.00    -0.260 NA
HETATM   20  C   UNL     1      43.784 -18.215   4.470  1.00  0.00     0.066 A 
HETATM   21  C   UNL     1      43.323 -17.919   3.172  1.00  0.00    -0.007 A 
HETATM   22  C   UNL     1      44.113 -19.531   4.768  1.00  0.00     0.032 A 
HETATM   23  C   UNL     1      42.992 -16.586   2.880  1.00  0.00     0.022 A 
HETATM   24  C   UNL     1      43.215 -18.940   2.211  1.00  0.00     0.014 A 
HETATM   25  C   UNL     1      43.558 -20.252   2.534  1.00  0.00     0.001 A 
HETATM   26  C   UNL     1      44.007 -20.548   3.816  1.00  0.00     0.002 A 
ENDBRANCH  16  17
ENDBRANCH   2  16
TORSDOF 6
ENDMDL
MODEL 5
REMARK VINA RESULT:      -8.2      3.206      4.913
REMARK  6 active torsions:
REMARK  status: ('A' for Active; 'I' for Inactive)
REMARK    1  A    between atoms: C_5  and  C_6 
REMARK    2  A    between atoms: C_6  and  O_7 
REMARK    3  A    between atoms: C_6  and  C_8 
REMARK    4  A    between atoms: C_8  and  N_9 
REMARK       I    between atoms: N_9  and  C_10 
REMARK    5  A    between atoms: C_10  and  C_11 
REMARK    6  A    between atoms: C_11  and  C_12 
ROOT
HETATM    1  N   UNL     1      44.726 -12.026   7.252  1.00  0.00    -0.358 N 
HETATM    2  C   UNL     1      43.694 -12.508   6.475  1.00  0.00     0.222 C 
HETATM    3  O   UNL     1      43.208 -11.868   5.548  1.00  0.00    -0.273 OA
HETATM    4  H   UNL     1      45.241 -12.689   7.821  1.00  0.00     0.162 HD
ENDROOT
BRANCH   1   5
HETATM    5  C   UNL     1      45.421 -10.793   6.884  1.00  0.00     0.159 C 
BRANCH   5   6
HETATM    6  C   UNL     1      46.192 -10.143   8.053  1.00  0.00     0.169 C 
BRANCH   6   7
HETATM    7  C   UNL     1      45.244  -9.437   9.001  1.00  0.00    -0.028 A 
HETATM    8  C   UNL     1      44.470  -8.340   8.603  1.00  0.00     0.010 A 
HETATM    9  C   UNL     1      43.585  -7.727   9.495  1.00  0.00     0.007 A 
HETATM   10  C   UNL     1      43.460  -8.196  10.807  1.00  0.00    -0.062 A 
HETATM   11  C   UNL     1      42.490  -7.563  11.758  1.00  0.00     0.048 C 
HETATM   12  C   UNL     1      44.220  -9.300  11.206  1.00  0.00     0.007 A 
HETATM   13  C   UNL     1      45.106  -9.911  10.315  1.00  0.00     0.010 A 
ENDBRANCH   6   7
BRANCH   6  14
HETATM   14  O   UNL     1      47.155  -9.226   7.517  1.00  0.00    -0.389 OA
HETATM   15  H   UNL     1      46.630  -8.480   7.179  1.00  0.00     0.210 HD
ENDBRANCH   6  14
ENDBRANCH   5   6
ENDBRANCH   1   5
BRANCH   2  16
HETATM   16  C   UNL     1      43.212 -13.901   6.841  1.00  0.00     0.142 C 
BRANCH  16  17
HETATM   17  C   UNL     1      43.049 -14.835   5.671  1.00  0.00    -0.031 A 
HETATM   18  C   UNL     1      42.085 -14.658   4.686  1.00  0.00     0.125 A 
HETATM   19  N   UNL     1      41.891 -15.500   3.645  1.00  0.00    -0.260 NA
HETATM   20  C   UNL     1      42.654 -16.603   3.568  1.00  0.00     0.066 A 
HETATM   21  C   UNL     1      43.645 -16.898   4.525  1.00  0.00    -0.007 A 
HETATM   22  C   UNL     1      42.465 -17.493   2.520  1.00  0.00     0.032 A 
HETATM   23  C   UNL     1      43.829 -15.992   5.582  1.00  0.00     0.022 A 
HETATM   24  C   UNL     1      44.408 -18.074   4.412  1.00  0.00     0.014 A 
HETATM   25  C   UNL     1      44.194 -18.954   3.353  1.00  0.00     0.001 A 
HETATM   26  C   UNL     1      43.221 -18.662   2.404  1.00  0.00     0.002 A 
ENDBRANCH  16  17
ENDBRANCH   2  16
TORSDOF 6
ENDMDL
MODEL 6
REMARK VINA RESULT:      -8.1      3.740      5.223
REMARK  6 active torsions:
REMARK  status: ('A' for Active; 'I' for Inactive)
REMARK    1  A    between atoms: C_5  and  C_6 
REMARK    2  A    between atoms: C_6  and  O_7 
REMARK    3  A    between atoms: C_6  and  C_8 
REMARK    4  A    between atoms: C_8  and  N_9 
REMARK       I    between atoms: N_9  and  C_10 
REMARK    5  A    between atoms: C_10  and  C_11 
REMARK    6  A    between atoms: C_11  and  C_12 
ROOT
HETATM    1  N   UNL     1      43.242 -11.211   7.544  1.00  0.00    -0.358 N 
HETATM    2  C   UNL     1      44.033 -12.202   7.002  1.00  0.00     0.222 C 
HETATM    3  O   UNL     1      45.067 -11.960   6.386  1.00  0.00    -0.273 OA
HETATM    4  H   UNL     1      42.557 -11.480   8.242  1.00  0.00     0.162 HD
ENDROOT
BRANCH   1   5
HETATM    5  C   UNL     1      43.701  -9.823   7.570  1.00  0.00     0.159 C 
BRANCH   5   6
HETATM    6  C   UNL     1      44.752  -9.538   8.665  1.00  0.00     0.169 C 
BRANCH   6   7
HETATM    7  C   UNL     1      44.093  -9.387  10.021  1.00  0.00    -0.028 A 
HETATM    8  C   UNL     1      43.625  -8.152  10.490  1.00  0.00     0.010 A 
HETATM    9  C   UNL     1      42.999  -8.051  11.736  1.00  0.00     0.007 A 
HETATM   10  C   UNL     1      42.832  -9.183  12.541  1.00  0.00    -0.062 A 
HETATM   11  C   UNL     1      42.132  -9.086  13.864  1.00  0.00     0.048 C 
HETATM   12  C   UNL     1      43.284 -10.421  12.072  1.00  0.00     0.007 A 
HETATM   13  C   UNL     1      43.912 -10.521  10.828  1.00  0.00     0.010 A 
ENDBRANCH   6   7
BRANCH   6  14
HETATM   14  O   UNL     1      45.473  -8.350   8.313  1.00  0.00    -0.389 OA
HETATM   15  H   UNL     1      45.626  -7.889   9.155  1.00  0.00     0.210 HD
ENDBRANCH   6  14
ENDBRANCH   5   6
ENDBRANCH   1   5
BRANCH   2  16
HETATM   16  C   UNL     1      43.540 -13.618   7.238  1.00  0.00     0.142 C 
BRANCH  16  17
HETATM   17  C   UNL     1      43.431 -14.459   5.993  1.00  0.00    -0.031 A 
HETATM   18  C   UNL     1      42.796 -14.026   4.836  1.00  0.00     0.125 A 
HETATM   19  N   UNL     1      42.650 -14.772   3.717  1.00  0.00    -0.260 NA
HETATM   20  C   UNL     1      43.118 -16.032   3.728  1.00  0.00     0.066 A 
HETATM   21  C   UNL     1      43.756 -16.585   4.855  1.00  0.00    -0.007 A 
HETATM   22  C   UNL     1      42.967 -16.826   2.600  1.00  0.00     0.032 A 
HETATM   23  C   UNL     1      43.905 -15.775   5.992  1.00  0.00     0.022 A 
HETATM   24  C   UNL     1      44.215 -17.915   4.825  1.00  0.00     0.014 A 
HETATM   25  C   UNL     1      44.045 -18.693   3.681  1.00  0.00     0.001 A 
HETATM   26  C   UNL     1      43.422 -18.147   2.565  1.00  0.00     0.002 A 
ENDBRANCH  16  17
ENDBRANCH   2  16
TORSDOF 6
ENDMDL
MODEL 7
REMARK VINA RESULT:      -8.1      2.659      7.979
REMARK  6 active torsions:
REMARK  status: ('A' for Active; 'I' for Inactive)
REMARK    1  A    between atoms: C_5  and  C_6 
REMARK    2  A    between atoms: C_6  and  O_7 
REMARK    3  A    between atoms: C_6  and  C_8 
REMARK    4  A    between atoms: C_8  and  N_9 
REMARK       I    between atoms: N_9  and  C_10 
REMARK    5  A    between atoms: C_10  and  C_11 
REMARK    6  A    between atoms: C_11  and  C_12 
ROOT
HETATM    1  N   UNL     1      43.493 -14.077   5.755  1.00  0.00    -0.358 N 
HETATM    2  C   UNL     1      42.926 -13.071   5.001  1.00  0.00     0.222 C 
HETATM    3  O   UNL     1      41.860 -13.206   4.409  1.00  0.00    -0.273 OA
HETATM    4  H   UNL     1      44.224 -13.825   6.410  1.00  0.00     0.162 HD
ENDROOT
BRANCH   1   5
HETATM    5  C   UNL     1      42.749 -15.304   6.037  1.00  0.00     0.159 C 
BRANCH   5   6
HETATM    6  C   UNL     1      43.650 -16.526   6.313  1.00  0.00     0.169 C 
BRANCH   6   7
HETATM    7  C   UNL     1      43.633 -17.487   5.140  1.00  0.00    -0.028 A 
HETATM    8  C   UNL     1      43.283 -17.079   3.847  1.00  0.00     0.010 A 
HETATM    9  C   UNL     1      43.302 -17.985   2.782  1.00  0.00     0.007 A 
HETATM   10  C   UNL     1      43.665 -19.319   2.990  1.00  0.00    -0.062 A 
HETATM   11  C   UNL     1      43.718 -20.286   1.846  1.00  0.00     0.048 C 
HETATM   12  C   UNL     1      44.029 -19.729   4.277  1.00  0.00     0.007 A 
HETATM   13  C   UNL     1      44.008 -18.824   5.342  1.00  0.00     0.010 A 
ENDBRANCH   6   7
BRANCH   6  14
HETATM   14  O   UNL     1      43.197 -17.173   7.509  1.00  0.00    -0.389 OA
HETATM   15  H   UNL     1      43.634 -18.042   7.507  1.00  0.00     0.210 HD
ENDBRANCH   6  14
ENDBRANCH   5   6
ENDBRANCH   1   5
BRANCH   2  16
HETATM   16  C   UNL     1      43.712 -11.772   4.972  1.00  0.00     0.142 C 
BRANCH  16  17
HETATM   17  C   UNL     1      44.113 -11.252   6.328  1.00  0.00    -0.031 A 
HETATM   18  C   UNL     1      45.358 -11.491   6.896  1.00  0.00     0.125 A 
HETATM   19  N   UNL     1      45.732 -11.069   8.126  1.00  0.00    -0.260 NA
HETATM   20  C   UNL     1      44.834 -10.401   8.869  1.00  0.00     0.066 A 
HETATM   21  C   UNL     1      43.533 -10.125   8.405  1.00  0.00    -0.007 A 
HETATM   22  C   UNL     1      45.185  -9.971  10.142  1.00  0.00     0.032 A 
HETATM   23  C   UNL     1      43.186 -10.564   7.117  1.00  0.00     0.022 A 
HETATM   24  C   UNL     1      42.621  -9.438   9.227  1.00  0.00     0.014 A 
HETATM   25  C   UNL     1      42.997  -9.022  10.503  1.00  0.00     0.001 A 
HETATM   26  C   UNL     1      44.282  -9.288  10.961  1.00  0.00     0.002 A 
ENDBRANCH  16  17
ENDBRANCH   2  16
TORSDOF 6
ENDMDL
MODEL 8
REMARK VINA RESULT:      -8.0      2.388      6.597
REMARK  6 active torsions:
REMARK  status: ('A' for Active; 'I' for Inactive)
REMARK    1  A    between atoms: C_5  and  C_6 
REMARK    2  A    between atoms: C_6  and  O_7 
REMARK    3  A    between atoms: C_6  and  C_8 
REMARK    4  A    between atoms: C_8  and  N_9 
REMARK       I    between atoms: N_9  and  C_10 
REMARK    5  A    between atoms: C_10  and  C_11 
REMARK    6  A    between atoms: C_11  and  C_12 
ROOT
HETATM    1  N   UNL     1      41.710 -15.930   6.783  1.00  0.00    -0.358 N 
HETATM    2  C   UNL     1      41.649 -14.566   6.592  1.00  0.00     0.222 C 
HETATM    3  O   UNL     1      42.624 -13.833   6.732  1.00  0.00    -0.273 OA
HETATM    4  H   UNL     1      40.955 -16.495   6.412  1.00  0.00     0.162 HD
ENDROOT
BRANCH   1   5
HETATM    5  C   UNL     1      42.997 -16.597   6.981  1.00  0.00     0.159 C 
BRANCH   5   6
HETATM    6  C   UNL     1      44.000 -16.364   5.831  1.00  0.00     0.169 C 
BRANCH   6   7
HETATM    7  C   UNL     1      43.808 -17.388   4.730  1.00  0.00    -0.028 A 
HETATM    8  C   UNL     1      43.251 -17.054   3.490  1.00  0.00     0.010 A 
HETATM    9  C   UNL     1      43.110 -18.017   2.486  1.00  0.00     0.007 A 
HETATM   10  C   UNL     1      43.520 -19.336   2.705  1.00  0.00    -0.062 A 
HETATM   11  C   UNL     1      43.402 -20.366   1.622  1.00  0.00     0.048 C 
HETATM   12  C   UNL     1      44.091 -19.672   3.938  1.00  0.00     0.007 A 
HETATM   13  C   UNL     1      44.228 -18.710   4.941  1.00  0.00     0.010 A 
ENDBRANCH   6   7
BRANCH   6  14
HETATM   14  O   UNL     1      45.331 -16.426   6.360  1.00  0.00    -0.389 OA
HETATM   15  H   UNL     1      45.289 -17.089   7.070  1.00  0.00     0.210 HD
ENDBRANCH   6  14
ENDBRANCH   5   6
ENDBRANCH   1   5
BRANCH   2  16
HETATM   16  C   UNL     1      40.288 -14.037   6.179  1.00  0.00     0.142 C 
BRANCH  16  17
HETATM   17  C   UNL     1      40.173 -13.674   4.721  1.00  0.00    -0.031 A 
HETATM   18  C   UNL     1      39.877 -12.391   4.279  1.00  0.00     0.125 A 
HETATM   19  N   UNL     1      39.731 -12.044   2.979  1.00  0.00    -0.260 NA
HETATM   20  C   UNL     1      39.844 -13.006   2.048  1.00  0.00     0.066 A 
HETATM   21  C   UNL     1      40.116 -14.347   2.383  1.00  0.00    -0.007 A 
HETATM   22  C   UNL     1      39.682 -12.682   0.708  1.00  0.00     0.032 A 
HETATM   23  C   UNL     1      40.279 -14.665   3.741  1.00  0.00     0.022 A 
HETATM   24  C   UNL     1      40.209 -15.322   1.374  1.00  0.00     0.014 A 
HETATM   25  C   UNL     1      40.036 -14.971   0.036  1.00  0.00     0.001 A 
HETATM   26  C   UNL     1      39.774 -13.648  -0.298  1.00  0.00     0.002 A 
ENDBRANCH  16  17
ENDBRANCH   2  16
TORSDOF 6
ENDMDL
MODEL 9
REMARK VINA RESULT:      -8.0      2.398      3.270
REMARK  6 active torsions:
REMARK  status: ('A' for Active; 'I' for Inactive)
REMARK    1  A    between atoms: C_5  and  C_6 
REMARK    2  A    between atoms: C_6  and  O_7 
REMARK    3  A    between atoms: C_6  and  C_8 
REMARK    4  A    between atoms: C_8  and  N_9 
REMARK       I    between atoms: N_9  and  C_10 
REMARK    5  A    between atoms: C_10  and  C_11 
REMARK    6  A    between atoms: C_11  and  C_12 
ROOT
HETATM    1  N   UNL     1      39.055 -13.805   2.636  1.00  0.00    -0.358 N 
HETATM    2  C   UNL     1      39.639 -14.534   1.622  1.00  0.00     0.222 C 
HETATM    3  O   UNL     1      39.890 -14.055   0.520  1.00  0.00    -0.273 OA
HETATM    4  H   UNL     1      39.109 -14.175   3.578  1.00  0.00     0.162 HD
ENDROOT
BRANCH   1   5
HETATM    5  C   UNL     1      38.875 -12.359   2.503  1.00  0.00     0.159 C 
BRANCH   5   6
HETATM    6  C   UNL     1      40.202 -11.574   2.423  1.00  0.00     0.169 C 
BRANCH   6   7
HETATM    7  C   UNL     1      41.147 -11.993   3.530  1.00  0.00    -0.028 A 
HETATM    8  C   UNL     1      42.397 -12.567   3.267  1.00  0.00     0.010 A 
HETATM    9  C   UNL     1      43.257 -12.920   4.311  1.00  0.00     0.007 A 
HETATM   10  C   UNL     1      42.881 -12.711   5.642  1.00  0.00    -0.062 A 
HETATM   11  C   UNL     1      43.812 -13.058   6.765  1.00  0.00     0.048 C 
HETATM   12  C   UNL     1      41.639 -12.125   5.911  1.00  0.00     0.007 A 
HETATM   13  C   UNL     1      40.779 -11.775   4.867  1.00  0.00     0.010 A 
ENDBRANCH   6   7
BRANCH   6  14
HETATM   14  O   UNL     1      39.913 -10.172   2.502  1.00  0.00    -0.389 OA
HETATM   15  H   UNL     1      39.312  -9.996   1.757  1.00  0.00     0.210 HD
ENDBRANCH   6  14
ENDBRANCH   5   6
ENDBRANCH   1   5
BRANCH   2  16
HETATM   16  C   UNL     1      39.967 -15.974   1.975  1.00  0.00     0.142 C 
BRANCH  16  17
HETATM   17  C   UNL     1      41.136 -16.138   2.911  1.00  0.00    -0.031 A 
HETATM   18  C   UNL     1      42.423 -16.428   2.476  1.00  0.00     0.125 A 
HETATM   19  N   UNL     1      43.483 -16.618   3.296  1.00  0.00    -0.260 NA
HETATM   20  C   UNL     1      43.281 -16.558   4.622  1.00  0.00     0.066 A 
HETATM   21  C   UNL     1      42.013 -16.296   5.176  1.00  0.00    -0.007 A 
HETATM   22  C   UNL     1      44.347 -16.766   5.486  1.00  0.00     0.032 A 
HETATM   23  C   UNL     1      40.940 -16.087   4.295  1.00  0.00     0.022 A 
HETATM   24  C   UNL     1      41.846 -16.259   6.572  1.00  0.00     0.014 A 
HETATM   25  C   UNL     1      42.932 -16.477   7.418  1.00  0.00     0.001 A 
HETATM   26  C   UNL     1      44.186 -16.729   6.874  1.00  0.00     0.002 A 
ENDBRANCH  16  17
ENDBRANCH   2  16
TORSDOF 6
ENDMDL
MODEL 10
REMARK VINA RESULT:      -8.0      2.339      5.051
REMARK  6 active torsions:
REMARK  status: ('A' for Active; 'I' for Inactive)
REMARK    1  A    between atoms: C_5  and  C_6 
REMARK    2  A    between atoms: C_6  and  O_7 
REMARK    3  A    between atoms: C_6  and  C_8 
REMARK    4  A    between atoms: C_8  and  N_9 
REMARK       I    between atoms: N_9  and  C_10 
REMARK    5  A    between atoms: C_10  and  C_11 
REMARK    6  A    between atoms: C_11  and  C_12 
ROOT
HETATM    1  N   UNL     1      41.538 -12.207   2.161  1.00  0.00    -0.358 N 
HETATM    2  C   UNL     1      40.608 -11.700   3.043  1.00  0.00     0.222 C 
HETATM    3  O   UNL     1      39.484 -11.352   2.694  1.00  0.00    -0.273 OA
HETATM    4  H   UNL     1      42.335 -12.702   2.545  1.00  0.00     0.162 HD
ENDROOT
BRANCH   1   5
HETATM    5  C   UNL     1      41.160 -12.531   0.786  1.00  0.00     0.159 C 
BRANCH   5   6
HETATM    6  C   UNL     1      40.549 -13.940   0.626  1.00  0.00     0.169 C 
BRANCH   6   7
HETATM    7  C   UNL     1      41.325 -14.960   1.433  1.00  0.00    -0.028 A 
HETATM    8  C   UNL     1      40.732 -15.709   2.457  1.00  0.00     0.010 A 
HETATM    9  C   UNL     1      41.470 -16.662   3.167  1.00  0.00     0.007 A 
HETATM   10  C   UNL     1      42.819 -16.881   2.870  1.00  0.00    -0.062 A 
HETATM   11  C   UNL     1      43.606 -17.924   3.605  1.00  0.00     0.048 C 
HETATM   12  C   UNL     1      43.413 -16.146   1.838  1.00  0.00     0.007 A 
HETATM   13  C   UNL     1      42.676 -15.193   1.131  1.00  0.00     0.010 A 
ENDBRANCH   6   7
BRANCH   6  14
HETATM   14  O   UNL     1      40.545 -14.285  -0.765  1.00  0.00    -0.389 OA
HETATM   15  H   UNL     1      40.425 -13.441  -1.234  1.00  0.00     0.210 HD
ENDBRANCH   6  14
ENDBRANCH   5   6
ENDBRANCH   1   5
BRANCH   2  16
HETATM   16  C   UNL     1      41.071 -11.619   4.487  1.00  0.00     0.142 C 
BRANCH  16  17
HETATM   17  C   UNL     1      41.358 -12.951   5.129  1.00  0.00    -0.031 A 
HETATM   18  C   UNL     1      40.373 -13.748   5.699  1.00  0.00     0.125 A 
HETATM   19  N   UNL     1      40.606 -14.930   6.314  1.00  0.00    -0.260 NA
HETATM   20  C   UNL     1      41.876 -15.355   6.416  1.00  0.00     0.066 A 
HETATM   21  C   UNL     1      42.958 -14.616   5.898  1.00  0.00    -0.007 A 
HETATM   22  C   UNL     1      42.146 -16.556   7.057  1.00  0.00     0.032 A 
HETATM   23  C   UNL     1      42.676 -13.403   5.250  1.00  0.00     0.022 A 
HETATM   24  C   UNL     1      44.273 -15.093   6.043  1.00  0.00     0.014 A 
HETATM   25  C   UNL     1      44.517 -16.300   6.697  1.00  0.00     0.001 A 
HETATM   26  C   UNL     1      43.451 -17.034   7.204  1.00  0.00     0.002 A 
ENDBRANCH  16  17
ENDBRANCH   2  16
TORSDOF 6
ENDMDL
