MODEL 1
REMARK VINA RESULT:      -8.6      0.000      0.000
REMARK  3 active torsions:
REMARK  status: ('A' for Active; 'I' for Inactive)
REMARK    1  A    between atoms: C_2  and  O_3 
REMARK    2  A    between atoms: O_3  and  C_4 
REMARK    3  A    between atoms: C_8  and  N_9 
REMARK       I    between atoms: N_9  and  C_10 
REMARK       I    between atoms: C_10  and  N_11 
ROOT
HETATM    1  N   UNL     1      42.610 -12.683   6.491  1.00  0.00    -0.309 N 
HETATM    2  C   UNL     1      42.957 -13.913   7.002  1.00  0.00     0.323 C 
HETATM    3  N   UNL     1      42.657 -15.006   6.193  1.00  0.00    -0.328 N 
HETATM    4  C   UNL     1      42.883 -16.330   6.798  1.00  0.00     0.185 C 
HETATM    5  C   UNL     1      43.136 -17.336   5.733  1.00  0.00     0.035 A 
HETATM    6  C   UNL     1      43.025 -17.155   4.372  1.00  0.00    -0.020 A 
HETATM    7  C   UNL     1      42.640 -15.839   3.806  1.00  0.00     0.061 C 
HETATM    8  C   UNL     1      41.950 -14.980   4.887  1.00  0.00     0.132 C 
HETATM    9  N   UNL     1      43.537 -18.624   5.958  1.00  0.00    -0.357 N 
HETATM   10  H   UNL     1      43.717 -19.037   6.863  1.00  0.00     0.166 HD
HETATM   11  C   UNL     1      43.684 -19.285   4.756  1.00  0.00     0.043 A 
HETATM   12  C   UNL     1      43.366 -18.380   3.739  1.00  0.00    -0.001 A 
HETATM   13  C   UNL     1      44.080 -20.602   4.495  1.00  0.00     0.030 A 
HETATM   14  C   UNL     1      44.150 -21.006   3.158  1.00  0.00     0.002 A 
HETATM   15  C   UNL     1      43.838 -20.125   2.125  1.00  0.00     0.001 A 
HETATM   16  C   UNL     1      43.445 -18.811   2.401  1.00  0.00     0.014 A 
HETATM   17  O   UNL     1      43.501 -14.064   8.095  1.00  0.00    -0.247 OA
HETATM   18  H   UNL     1      41.860 -12.675   5.823  1.00  0.00     0.170 HD
ENDROOT
BRANCH   1  19
HETATM   19  C   UNL     1      43.008 -11.415   6.968  1.00  0.00     0.038 A 
HETATM   20  C   UNL     1      44.297 -11.113   7.404  1.00  0.00     0.056 A 
HETATM   21  C   UNL     1      44.616  -9.817   7.831  1.00  0.00     0.069 A 
HETATM   22  C   UNL     1      43.657  -8.795   7.812  1.00  0.00     0.090 A 
HETATM   23 CL   UNL     1      46.237  -9.513   8.361  1.00  0.00    -0.081 Cl
HETATM   24  C   UNL     1      42.365  -9.099   7.379  1.00  0.00     0.041 A 
HETATM   25  C   UNL     1      42.047 -10.397   6.958  1.00  0.00     0.032 A 
BRANCH  22  26
HETATM   26  O   UNL     1      44.056  -7.556   8.240  1.00  0.00    -0.350 OA
BRANCH  26  27
HETATM   27  C   UNL     1      43.127  -6.788   9.001  1.00  0.00     0.171 C 
HETATM   28  C   UNL     1      43.079  -7.369  10.403  1.00  0.00     0.034 C 
ENDBRANCH  26  27
ENDBRANCH  22  26
ENDBRANCH   1  19
TORSDOF 3
ENDMDL
MODEL 2
REMARK VINA RESULT:      -8.1      3.237      4.916
REMARK  3 active torsions:
REMARK  status: ('A' for Active; 'I' for Inactive)
REMARK    1  A    between atoms: C_2  and  O_3 
REMARK    2  A    between atoms: O_3  and  C_4 
REMARK    3  A    between atoms: C_8  and  N_9 
REMARK       I    between atoms: N_9  and  C_10 
REMARK       I    between atoms: C_10  and  N_11 
ROOT
HETATM    1  N   UNL     1      43.430 -10.507   8.920  1.00  0.00    -0.309 N 
HETATM    2  C   UNL     1      43.223 -10.311   7.574  1.00  0.00     0.323 C 
HETATM    3  N   UNL     1      43.548 -11.389   6.753  1.00  0.00    -0.328 N 
HETATM    4  C   UNL     1      43.475 -11.132   5.304  1.00  0.00     0.185 C 
HETATM    5  C   UNL     1      43.224 -12.406   4.578  1.00  0.00     0.035 A 
HETATM    6  C   UNL     1      43.217 -13.679   5.104  1.00  0.00    -0.020 A 
HETATM    7  C   UNL     1      43.452 -13.907   6.550  1.00  0.00     0.061 C 
HETATM    8  C   UNL     1      44.150 -12.679   7.173  1.00  0.00     0.132 C 
HETATM    9  N   UNL     1      42.945 -12.498   3.242  1.00  0.00    -0.357 N 
HETATM   10  H   UNL     1      42.868 -11.721   2.600  1.00  0.00     0.166 HD
HETATM   11  C   UNL     1      42.762 -13.820   2.892  1.00  0.00     0.043 A 
HETATM   12  C   UNL     1      42.929 -14.586   4.050  1.00  0.00    -0.001 A 
HETATM   13  C   UNL     1      42.454 -14.389   1.651  1.00  0.00     0.030 A 
HETATM   14  C   UNL     1      42.316 -15.779   1.591  1.00  0.00     0.002 A 
HETATM   15  C   UNL     1      42.478 -16.566   2.728  1.00  0.00     0.001 A 
HETATM   16  C   UNL     1      42.784 -15.984   3.963  1.00  0.00     0.014 A 
HETATM   17  O   UNL     1      42.776  -9.267   7.101  1.00  0.00    -0.247 OA
HETATM   18  H   UNL     1      44.125 -11.189   9.168  1.00  0.00     0.170 HD
ENDROOT
BRANCH   1  19
HETATM   19  C   UNL     1      42.970  -9.701   9.983  1.00  0.00     0.038 A 
HETATM   20  C   UNL     1      41.628  -9.391  10.205  1.00  0.00     0.056 A 
HETATM   21  C   UNL     1      41.253  -8.610  11.306  1.00  0.00     0.069 A 
HETATM   22  C   UNL     1      42.211  -8.139  12.216  1.00  0.00     0.090 A 
HETATM   23 CL   UNL     1      39.570  -8.264  11.520  1.00  0.00    -0.081 Cl
HETATM   24  C   UNL     1      43.554  -8.446  11.991  1.00  0.00     0.041 A 
HETATM   25  C   UNL     1      43.927  -9.223  10.886  1.00  0.00     0.032 A 
BRANCH  22  26
HETATM   26  O   UNL     1      41.756  -7.388  13.268  1.00  0.00    -0.350 OA
BRANCH  26  27
HETATM   27  C   UNL     1      42.418  -7.536  14.521  1.00  0.00     0.171 C 
HETATM   28  C   UNL     1      41.460  -8.226  15.476  1.00  0.00     0.034 C 
ENDBRANCH  26  27
ENDBRANCH  22  26
ENDBRANCH   1  19
TORSDOF 3
ENDMDL
MODEL 3
REMARK VINA RESULT:      -8.0      2.916      9.950
REMARK  3 active torsions:
REMARK  status: ('A' for Active; 'I' for Inactive)
REMARK    1  A    between atoms: C_2  and  O_3 
REMARK    2  A    between atoms: O_3  and  C_4 
REMARK    3  A    between atoms: C_8  and  N_9 
REMARK       I    between atoms: N_9  and  C_10 
REMARK       I    between atoms: C_10  and  N_11 
ROOT
HETATM    1  N   UNL     1      42.742 -12.284   5.847  1.00  0.00    -0.309 N 
HETATM    2  C   UNL     1      43.568 -12.037   6.919  1.00  0.00     0.323 C 
HETATM    3  N   UNL     1      43.304 -10.865   7.624  1.00  0.00    -0.328 N 
HETATM    4  C   UNL     1      44.277 -10.518   8.674  1.00  0.00     0.185 C 
HETATM    5  C   UNL     1      43.621  -9.682   9.715  1.00  0.00     0.035 A 
HETATM    6  C   UNL     1      42.353  -9.146   9.676  1.00  0.00    -0.020 A 
HETATM    7  C   UNL     1      41.456  -9.392   8.521  1.00  0.00     0.061 C 
HETATM    8  C   UNL     1      42.281  -9.840   7.297  1.00  0.00     0.132 C 
HETATM    9  N   UNL     1      44.197  -9.323  10.902  1.00  0.00    -0.357 N 
HETATM   10  H   UNL     1      45.122  -9.588  11.213  1.00  0.00     0.166 HD
HETATM   11  C   UNL     1      43.318  -8.553  11.635  1.00  0.00     0.043 A 
HETATM   12  C   UNL     1      42.146  -8.426  10.883  1.00  0.00    -0.001 A 
HETATM   13  C   UNL     1      43.468  -7.973  12.900  1.00  0.00     0.030 A 
HETATM   14  C   UNL     1      42.391  -7.240  13.409  1.00  0.00     0.002 A 
HETATM   15  C   UNL     1      41.212  -7.096  12.681  1.00  0.00     0.001 A 
HETATM   16  C   UNL     1      41.076  -7.683  11.418  1.00  0.00     0.014 A 
HETATM   17  O   UNL     1      44.482 -12.787   7.258  1.00  0.00    -0.247 OA
HETATM   18  H   UNL     1      42.311 -11.481   5.424  1.00  0.00     0.170 HD
ENDROOT
BRANCH   1  19
HETATM   19  C   UNL     1      42.620 -13.487   5.119  1.00  0.00     0.038 A 
HETATM   20  C   UNL     1      43.099 -13.668   3.822  1.00  0.00     0.056 A 
HETATM   21  C   UNL     1      42.966 -14.908   3.184  1.00  0.00     0.069 A 
HETATM   22  C   UNL     1      42.370 -15.996   3.838  1.00  0.00     0.090 A 
HETATM   23 CL   UNL     1      43.581 -15.062   1.572  1.00  0.00    -0.081 Cl
HETATM   24  C   UNL     1      41.887 -15.813   5.135  1.00  0.00     0.041 A 
HETATM   25  C   UNL     1      42.016 -14.570   5.769  1.00  0.00     0.032 A 
BRANCH  22  26
HETATM   26  O   UNL     1      42.287 -17.174   3.142  1.00  0.00    -0.350 OA
BRANCH  26  27
HETATM   27  C   UNL     1      43.344 -18.116   3.309  1.00  0.00     0.171 C 
HETATM   28  C   UNL     1      43.214 -19.161   2.215  1.00  0.00     0.034 C 
ENDBRANCH  26  27
ENDBRANCH  22  26
ENDBRANCH   1  19
TORSDOF 3
ENDMDL
MODEL 4
REMARK VINA RESULT:      -8.0      7.514     10.613
REMARK  3 active torsions:
REMARK  status: ('A' for Active; 'I' for Inactive)
REMARK    1  A    between atoms: C_2  and  O_3 
REMARK    2  A    between atoms: O_3  and  C_4 
REMARK    3  A    between atoms: C_8  and  N_9 
REMARK       I    between atoms: N_9  and  C_10 
REMARK       I    between atoms: C_10  and  N_11 
ROOT
HETATM    1  N   UNL     1      41.083 -14.753   0.390  1.00  0.00    -0.309 N 
HETATM    2  C   UNL     1      40.796 -13.411   0.293  1.00  0.00     0.323 C 
HETATM    3  N   UNL     1      40.012 -13.041  -0.798  1.00  0.00    -0.328 N 
HETATM    4  C   UNL     1      39.832 -11.592  -0.993  1.00  0.00     0.185 C 
HETATM    5  C   UNL     1      38.561 -11.335  -1.722  1.00  0.00     0.035 A 
HETATM    6  C   UNL     1      37.725 -12.267  -2.295  1.00  0.00    -0.020 A 
HETATM    7  C   UNL     1      38.026 -13.717  -2.210  1.00  0.00     0.061 C 
HETATM    8  C   UNL     1      39.520 -13.928  -1.882  1.00  0.00     0.132 C 
HETATM    9  N   UNL     1      38.017 -10.097  -1.925  1.00  0.00    -0.357 N 
HETATM   10  H   UNL     1      38.405  -9.221  -1.599  1.00  0.00     0.166 HD
HETATM   11  C   UNL     1      36.837 -10.214  -2.629  1.00  0.00     0.043 A 
HETATM   12  C   UNL     1      36.630 -11.574  -2.876  1.00  0.00    -0.001 A 
HETATM   13  C   UNL     1      35.940  -9.226  -3.055  1.00  0.00     0.030 A 
HETATM   14  C   UNL     1      34.803  -9.641  -3.755  1.00  0.00     0.002 A 
HETATM   15  C   UNL     1      34.573 -10.990  -4.016  1.00  0.00     0.001 A 
HETATM   16  C   UNL     1      35.476 -11.966  -3.582  1.00  0.00     0.014 A 
HETATM   17  O   UNL     1      41.190 -12.573   1.102  1.00  0.00    -0.247 OA
HETATM   18  H   UNL     1      41.065 -15.275  -0.469  1.00  0.00     0.170 HD
ENDROOT
BRANCH   1  19
HETATM   19  C   UNL     1      41.635 -15.432   1.498  1.00  0.00     0.038 A 
HETATM   20  C   UNL     1      40.998 -15.564   2.730  1.00  0.00     0.056 A 
HETATM   21  C   UNL     1      41.603 -16.285   3.768  1.00  0.00     0.069 A 
HETATM   22  C   UNL     1      42.849 -16.903   3.587  1.00  0.00     0.090 A 
HETATM   23 CL   UNL     1      40.755 -16.407   5.273  1.00  0.00    -0.081 Cl
HETATM   24  C   UNL     1      43.488 -16.766   2.353  1.00  0.00     0.041 A 
HETATM   25  C   UNL     1      42.883 -16.040   1.319  1.00  0.00     0.032 A 
BRANCH  22  26
HETATM   26  O   UNL     1      43.364 -17.593   4.652  1.00  0.00    -0.350 OA
BRANCH  26  27
HETATM   27  C   UNL     1      44.377 -18.560   4.386  1.00  0.00     0.171 C 
HETATM   28  C   UNL     1      44.039 -19.816   5.169  1.00  0.00     0.034 C 
ENDBRANCH  26  27
ENDBRANCH  22  26
ENDBRANCH   1  19
TORSDOF 3
ENDMDL
MODEL 5
REMARK VINA RESULT:      -8.0      3.093      3.856
REMARK  3 active torsions:
REMARK  status: ('A' for Active; 'I' for Inactive)
REMARK    1  A    between atoms: C_2  and  O_3 
REMARK    2  A    between atoms: O_3  and  C_4 
REMARK    3  A    between atoms: C_8  and  N_9 
REMARK       I    between atoms: N_9  and  C_10 
REMARK       I    between atoms: C_10  and  N_11 
ROOT
HETATM    1  N   UNL     1      41.896 -12.335   5.436  1.00  0.00    -0.309 N 
HETATM    2  C   UNL     1      41.995 -13.093   4.292  1.00  0.00     0.323 C 
HETATM    3  N   UNL     1      42.771 -14.245   4.401  1.00  0.00    -0.328 N 
HETATM    4  C   UNL     1      43.008 -14.977   3.144  1.00  0.00     0.185 C 
HETATM    5  C   UNL     1      43.268 -16.412   3.436  1.00  0.00     0.035 A 
HETATM    6  C   UNL     1      43.438 -16.994   4.673  1.00  0.00    -0.020 A 
HETATM    7  C   UNL     1      43.346 -16.187   5.914  1.00  0.00     0.061 C 
HETATM    8  C   UNL     1      43.542 -14.691   5.589  1.00  0.00     0.132 C 
HETATM    9  N   UNL     1      43.369 -17.393   2.489  1.00  0.00    -0.357 N 
HETATM   10  H   UNL     1      43.270 -17.262   1.491  1.00  0.00     0.166 HD
HETATM   11  C   UNL     1      43.608 -18.608   3.097  1.00  0.00     0.043 A 
HETATM   12  C   UNL     1      43.657 -18.383   4.476  1.00  0.00    -0.001 A 
HETATM   13  C   UNL     1      43.774 -19.879   2.535  1.00  0.00     0.030 A 
HETATM   14  C   UNL     1      43.999 -20.949   3.406  1.00  0.00     0.002 A 
HETATM   15  C   UNL     1      44.053 -20.753   4.785  1.00  0.00     0.001 A 
HETATM   16  C   UNL     1      43.884 -19.477   5.332  1.00  0.00     0.014 A 
HETATM   17  O   UNL     1      41.443 -12.799   3.233  1.00  0.00    -0.247 OA
HETATM   18  H   UNL     1      42.649 -12.422   6.095  1.00  0.00     0.170 HD
ENDROOT
BRANCH   1  19
HETATM   19  C   UNL     1      40.998 -11.274   5.683  1.00  0.00     0.038 A 
HETATM   20  C   UNL     1      41.371  -9.931   5.737  1.00  0.00     0.056 A 
HETATM   21  C   UNL     1      40.409  -8.936   5.955  1.00  0.00     0.069 A 
HETATM   22  C   UNL     1      39.053  -9.264   6.104  1.00  0.00     0.090 A 
HETATM   23 CL   UNL     1      40.942  -7.290   6.012  1.00  0.00    -0.081 Cl
HETATM   24  C   UNL     1      38.681 -10.608   6.054  1.00  0.00     0.041 A 
HETATM   25  C   UNL     1      39.647 -11.602   5.842  1.00  0.00     0.032 A 
BRANCH  22  26
HETATM   26  O   UNL     1      38.179  -8.228   6.307  1.00  0.00    -0.350 OA
BRANCH  26  27
HETATM   27  C   UNL     1      37.513  -7.693   5.166  1.00  0.00     0.171 C 
HETATM   28  C   UNL     1      37.411  -6.189   5.350  1.00  0.00     0.034 C 
ENDBRANCH  26  27
ENDBRANCH  22  26
ENDBRANCH   1  19
TORSDOF 3
ENDMDL
MODEL 6
REMARK VINA RESULT:      -7.9      6.247      7.008
REMARK  3 active torsions:
REMARK  status: ('A' for Active; 'I' for Inactive)
REMARK    1  A    between atoms: C_2  and  O_3 
REMARK    2  A    between atoms: O_3  and  C_4 
REMARK    3  A    between atoms: C_8  and  N_9 
REMARK       I    between atoms: N_9  and  C_10 
REMARK       I    between atoms: C_10  and  N_11 
ROOT
HETATM    1  N   UNL     1      41.131 -11.522   0.604  1.00  0.00    -0.309 N 
HETATM    2  C   UNL     1      41.856 -11.874   1.720  1.00  0.00     0.323 C 
HETATM    3  N   UNL     1      41.742 -13.205   2.115  1.00  0.00    -0.328 N 
HETATM    4  C   UNL     1      42.389 -13.550   3.393  1.00  0.00     0.185 C 
HETATM    5  C   UNL     1      42.745 -14.994   3.405  1.00  0.00     0.035 A 
HETATM    6  C   UNL     1      42.402 -15.945   2.470  1.00  0.00    -0.020 A 
HETATM    7  C   UNL     1      41.611 -15.584   1.269  1.00  0.00     0.061 C 
HETATM    8  C   UNL     1      40.878 -14.246   1.501  1.00  0.00     0.132 C 
HETATM    9  N   UNL     1      43.497 -15.601   4.372  1.00  0.00    -0.357 N 
HETATM   10  H   UNL     1      43.903 -15.145   5.178  1.00  0.00     0.166 HD
HETATM   11  C   UNL     1      43.643 -16.941   4.079  1.00  0.00     0.043 A 
HETATM   12  C   UNL     1      42.960 -17.184   2.883  1.00  0.00    -0.001 A 
HETATM   13  C   UNL     1      44.329 -17.946   4.771  1.00  0.00     0.030 A 
HETATM   14  C   UNL     1      44.315 -19.234   4.228  1.00  0.00     0.002 A 
HETATM   15  C   UNL     1      43.642 -19.505   3.039  1.00  0.00     0.001 A 
HETATM   16  C   UNL     1      42.962 -18.490   2.356  1.00  0.00     0.014 A 
HETATM   17  O   UNL     1      42.567 -11.088   2.342  1.00  0.00    -0.247 OA
HETATM   18  H   UNL     1      40.319 -12.080   0.407  1.00  0.00     0.170 HD
ENDROOT
BRANCH   1  19
HETATM   19  C   UNL     1      41.245 -10.334  -0.151  1.00  0.00     0.038 A 
HETATM   20  C   UNL     1      41.287  -9.056   0.405  1.00  0.00     0.056 A 
HETATM   21  C   UNL     1      41.436  -7.931  -0.416  1.00  0.00     0.069 A 
HETATM   22  C   UNL     1      41.565  -8.064  -1.806  1.00  0.00     0.090 A 
HETATM   23 CL   UNL     1      41.478  -6.374   0.341  1.00  0.00    -0.081 Cl
HETATM   24  C   UNL     1      41.519  -9.343  -2.362  1.00  0.00     0.041 A 
HETATM   25  C   UNL     1      41.364 -10.467  -1.539  1.00  0.00     0.032 A 
BRANCH  22  26
HETATM   26  O   UNL     1      41.713  -6.911  -2.532  1.00  0.00    -0.350 OA
BRANCH  26  27
HETATM   27  C   UNL     1      43.013  -6.609  -3.034  1.00  0.00     0.171 C 
HETATM   28  C   UNL     1      42.984  -6.792  -4.542  1.00  0.00     0.034 C 
ENDBRANCH  26  27
ENDBRANCH  22  26
ENDBRANCH   1  19
TORSDOF 3
ENDMDL
MODEL 7
REMARK VINA RESULT:      -7.8      3.280     10.238
REMARK  3 active torsions:
REMARK  status: ('A' for Active; 'I' for Inactive)
REMARK    1  A    between atoms: C_2  and  O_3 
REMARK    2  A    between atoms: O_3  and  C_4 
REMARK    3  A    between atoms: C_8  and  N_9 
REMARK       I    between atoms: N_9  and  C_10 
REMARK       I    between atoms: C_10  and  N_11 
ROOT
HETATM    1  N   UNL     1      42.830 -11.524   6.932  1.00  0.00    -0.309 N 
HETATM    2  C   UNL     1      43.669 -11.083   7.929  1.00  0.00     0.323 C 
HETATM    3  N   UNL     1      43.161 -10.069   8.737  1.00  0.00    -0.328 N 
HETATM    4  C   UNL     1      44.108  -9.487   9.703  1.00  0.00     0.185 C 
HETATM    5  C   UNL     1      43.365  -8.923  10.862  1.00  0.00     0.035 A 
HETATM    6  C   UNL     1      42.001  -8.787  10.992  1.00  0.00    -0.020 A 
HETATM    7  C   UNL     1      41.084  -9.247   9.921  1.00  0.00     0.061 C 
HETATM    8  C   UNL     1      41.852  -9.384   8.589  1.00  0.00     0.132 C 
HETATM    9  N   UNL     1      43.949  -8.453  12.006  1.00  0.00    -0.357 N 
HETATM   10  H   UNL     1      44.941  -8.441  12.201  1.00  0.00     0.166 HD
HETATM   11  C   UNL     1      42.977  -8.007  12.878  1.00  0.00     0.043 A 
HETATM   12  C   UNL     1      41.738  -8.207  12.261  1.00  0.00    -0.001 A 
HETATM   13  C   UNL     1      43.100  -7.456  14.158  1.00  0.00     0.030 A 
HETATM   14  C   UNL     1      41.925  -7.095  14.826  1.00  0.00     0.002 A 
HETATM   15  C   UNL     1      40.678  -7.282  14.234  1.00  0.00     0.001 A 
HETATM   16  C   UNL     1      40.570  -7.837  12.954  1.00  0.00     0.014 A 
HETATM   17  O   UNL     1      44.796 -11.539   8.118  1.00  0.00    -0.247 OA
HETATM   18  H   UNL     1      42.136 -10.872   6.613  1.00  0.00     0.170 HD
ENDROOT
BRANCH   1  19
HETATM   19  C   UNL     1      42.979 -12.682   6.138  1.00  0.00     0.038 A 
HETATM   20  C   UNL     1      43.095 -13.973   6.652  1.00  0.00     0.056 A 
HETATM   21  C   UNL     1      43.206 -15.073   5.791  1.00  0.00     0.069 A 
HETATM   22  C   UNL     1      43.184 -14.903   4.398  1.00  0.00     0.090 A 
HETATM   23 CL   UNL     1      43.348 -16.647   6.498  1.00  0.00    -0.081 Cl
HETATM   24  C   UNL     1      43.071 -13.611   3.885  1.00  0.00     0.041 A 
HETATM   25  C   UNL     1      42.967 -12.512   4.748  1.00  0.00     0.032 A 
BRANCH  22  26
HETATM   26  O   UNL     1      43.291 -16.033   3.631  1.00  0.00    -0.350 OA
BRANCH  26  27
HETATM   27  C   UNL     1      42.094 -16.568   3.071  1.00  0.00     0.171 C 
HETATM   28  C   UNL     1      42.449 -17.863   2.362  1.00  0.00     0.034 C 
ENDBRANCH  26  27
ENDBRANCH  22  26
ENDBRANCH   1  19
TORSDOF 3
ENDMDL
MODEL 8
REMARK VINA RESULT:      -7.7     17.131     19.362
REMARK  3 active torsions:
REMARK  status: ('A' for Active; 'I' for Inactive)
REMARK    1  A    between atoms: C_2  and  O_3 
REMARK    2  A    between atoms: O_3  and  C_4 
REMARK    3  A    between atoms: C_8  and  N_9 
REMARK       I    between atoms: N_9  and  C_10 
REMARK       I    between atoms: C_10  and  N_11 
ROOT
HETATM    1  N   UNL     1      41.145 -32.366   3.538  1.00  0.00    -0.309 N 
HETATM    2  C   UNL     1      41.665 -31.123   3.260  1.00  0.00     0.323 C 
HETATM    3  N   UNL     1      42.610 -31.082   2.237  1.00  0.00    -0.328 N 
HETATM    4  C   UNL     1      43.283 -29.786   2.040  1.00  0.00     0.185 C 
HETATM    5  C   UNL     1      43.751 -29.668   0.633  1.00  0.00     0.035 A 
HETATM    6  C   UNL     1      43.737 -30.648  -0.335  1.00  0.00    -0.020 A 
HETATM    7  C   UNL     1      43.191 -31.996  -0.047  1.00  0.00     0.061 C 
HETATM    8  C   UNL     1      43.150 -32.237   1.477  1.00  0.00     0.132 C 
HETATM    9  N   UNL     1      44.271 -28.532   0.079  1.00  0.00    -0.357 N 
HETATM   10  H   UNL     1      44.388 -27.645   0.550  1.00  0.00     0.166 HD
HETATM   11  C   UNL     1      44.600 -28.763  -1.241  1.00  0.00     0.043 A 
HETATM   12  C   UNL     1      44.273 -30.093  -1.526  1.00  0.00    -0.001 A 
HETATM   13  C   UNL     1      45.149 -27.901  -2.197  1.00  0.00     0.030 A 
HETATM   14  C   UNL     1      45.374 -28.412  -3.479  1.00  0.00     0.002 A 
HETATM   15  C   UNL     1      45.058 -29.732  -3.791  1.00  0.00     0.001 A 
HETATM   16  C   UNL     1      44.508 -30.583  -2.826  1.00  0.00     0.014 A 
HETATM   17  O   UNL     1      41.333 -30.099   3.856  1.00  0.00    -0.247 OA
HETATM   18  H   UNL     1      41.722 -33.153   3.299  1.00  0.00     0.170 HD
ENDROOT
BRANCH   1  19
HETATM   19  C   UNL     1      40.017 -32.663   4.334  1.00  0.00     0.038 A 
HETATM   20  C   UNL     1      38.756 -32.964   3.822  1.00  0.00     0.056 A 
HETATM   21  C   UNL     1      37.698 -33.281   4.683  1.00  0.00     0.069 A 
HETATM   22  C   UNL     1      37.886 -33.322   6.073  1.00  0.00     0.090 A 
HETATM   23 CL   UNL     1      36.158 -33.642   3.979  1.00  0.00    -0.081 Cl
HETATM   24  C   UNL     1      39.148 -33.017   6.585  1.00  0.00     0.041 A 
HETATM   25  C   UNL     1      40.204 -32.695   5.721  1.00  0.00     0.032 A 
BRANCH  22  26
HETATM   26  O   UNL     1      36.799 -33.648   6.841  1.00  0.00    -0.350 OA
BRANCH  26  27
HETATM   27  C   UNL     1      36.908 -34.788   7.690  1.00  0.00     0.171 C 
HETATM   28  C   UNL     1      35.765 -34.735   8.689  1.00  0.00     0.034 C 
ENDBRANCH  26  27
ENDBRANCH  22  26
ENDBRANCH   1  19
TORSDOF 3
ENDMDL
MODEL 9
REMARK VINA RESULT:      -7.6      2.953      4.634
REMARK  3 active torsions:
REMARK  status: ('A' for Active; 'I' for Inactive)
REMARK    1  A    between atoms: C_2  and  O_3 
REMARK    2  A    between atoms: O_3  and  C_4 
REMARK    3  A    between atoms: C_8  and  N_9 
REMARK       I    between atoms: N_9  and  C_10 
REMARK       I    between atoms: C_10  and  N_11 
ROOT
HETATM    1  N   UNL     1      42.513 -10.066   8.304  1.00  0.00    -0.309 N 
HETATM    2  C   UNL     1      42.533 -10.094   6.928  1.00  0.00     0.323 C 
HETATM    3  N   UNL     1      43.067 -11.248   6.359  1.00  0.00    -0.328 N 
HETATM    4  C   UNL     1      43.234 -11.219   4.895  1.00  0.00     0.185 C 
HETATM    5  C   UNL     1      43.196 -12.604   4.355  1.00  0.00     0.035 A 
HETATM    6  C   UNL     1      43.179 -13.779   5.074  1.00  0.00    -0.020 A 
HETATM    7  C   UNL     1      43.169 -13.766   6.557  1.00  0.00     0.061 C 
HETATM    8  C   UNL     1      43.667 -12.400   7.077  1.00  0.00     0.132 C 
HETATM    9  N   UNL     1      43.163 -12.921   3.025  1.00  0.00    -0.357 N 
HETATM   10  H   UNL     1      43.151 -12.259   2.261  1.00  0.00     0.166 HD
HETATM   11  C   UNL     1      43.129 -14.291   2.871  1.00  0.00     0.043 A 
HETATM   12  C   UNL     1      43.139 -14.857   4.150  1.00  0.00    -0.001 A 
HETATM   13  C   UNL     1      43.082 -15.065   1.706  1.00  0.00     0.030 A 
HETATM   14  C   UNL     1      43.047 -16.456   1.851  1.00  0.00     0.002 A 
HETATM   15  C   UNL     1      43.056 -17.046   3.113  1.00  0.00     0.001 A 
HETATM   16  C   UNL     1      43.102 -16.259   4.269  1.00  0.00     0.014 A 
HETATM   17  O   UNL     1      42.111  -9.177   6.225  1.00  0.00    -0.247 OA
HETATM   18  H   UNL     1      43.196 -10.637   8.770  1.00  0.00     0.170 HD
ENDROOT
BRANCH   1  19
HETATM   19  C   UNL     1      41.822  -9.154   9.131  1.00  0.00     0.038 A 
HETATM   20  C   UNL     1      42.397  -8.013   9.689  1.00  0.00     0.056 A 
HETATM   21  C   UNL     1      41.629  -7.143  10.473  1.00  0.00     0.069 A 
HETATM   22  C   UNL     1      40.266  -7.386  10.698  1.00  0.00     0.090 A 
HETATM   23 CL   UNL     1      42.408  -5.745  11.135  1.00  0.00    -0.081 Cl
HETATM   24  C   UNL     1      39.692  -8.531  10.142  1.00  0.00     0.041 A 
HETATM   25  C   UNL     1      40.464  -9.404   9.364  1.00  0.00     0.032 A 
BRANCH  22  26
HETATM   26  O   UNL     1      39.589  -6.480  11.470  1.00  0.00    -0.350 OA
BRANCH  26  27
HETATM   27  C   UNL     1      39.326  -6.832  12.826  1.00  0.00     0.171 C 
HETATM   28  C   UNL     1      37.832  -7.068  12.965  1.00  0.00     0.034 C 
ENDBRANCH  26  27
ENDBRANCH  22  26
ENDBRANCH   1  19
TORSDOF 3
ENDMDL
MODEL 10
REMARK VINA RESULT:      -7.5      4.989      5.607
REMARK  3 active torsions:
REMARK  status: ('A' for Active; 'I' for Inactive)
REMARK    1  A    between atoms: C_2  and  O_3 
REMARK    2  A    between atoms: O_3  and  C_4 
REMARK    3  A    between atoms: C_8  and  N_9 
REMARK       I    between atoms: N_9  and  C_10 
REMARK       I    between atoms: C_10  and  N_11 
ROOT
HETATM    1  N   UNL     1      41.573 -12.381   2.521  1.00  0.00    -0.309 N 
HETATM    2  C   UNL     1      41.731 -13.541   1.797  1.00  0.00     0.323 C 
HETATM    3  N   UNL     1      42.538 -14.512   2.388  1.00  0.00    -0.328 N 
HETATM    4  C   UNL     1      42.836 -15.688   1.552  1.00  0.00     0.185 C 
HETATM    5  C   UNL     1      43.129 -16.861   2.418  1.00  0.00     0.035 A 
HETATM    6  C   UNL     1      43.278 -16.871   3.787  1.00  0.00    -0.020 A 
HETATM    7  C   UNL     1      43.123 -15.627   4.580  1.00  0.00     0.061 C 
HETATM    8  C   UNL     1      43.284 -14.394   3.666  1.00  0.00     0.132 C 
HETATM    9  N   UNL     1      43.289 -18.142   1.966  1.00  0.00    -0.357 N 
HETATM   10  H   UNL     1      43.218 -18.441   1.002  1.00  0.00     0.166 HD
HETATM   11  C   UNL     1      43.545 -18.984   3.027  1.00  0.00     0.043 A 
HETATM   12  C   UNL     1      43.544 -18.206   4.189  1.00  0.00    -0.001 A 
HETATM   13  C   UNL     1      43.767 -20.367   3.047  1.00  0.00     0.030 A 
HETATM   14  C   UNL     1      43.997 -20.969   4.288  1.00  0.00     0.002 A 
HETATM   15  C   UNL     1      44.002 -20.218   5.461  1.00  0.00     0.001 A 
HETATM   16  C   UNL     1      43.777 -18.837   5.426  1.00  0.00     0.014 A 
HETATM   17  O   UNL     1      41.204 -13.735   0.703  1.00  0.00    -0.247 OA
HETATM   18  H   UNL     1      42.308 -12.157   3.169  1.00  0.00     0.170 HD
ENDROOT
BRANCH   1  19
HETATM   19  C   UNL     1      40.637 -11.350   2.291  1.00  0.00     0.038 A 
HETATM   20  C   UNL     1      40.891 -10.222   1.511  1.00  0.00     0.056 A 
HETATM   21  C   UNL     1      39.893  -9.261   1.307  1.00  0.00     0.069 A 
HETATM   22  C   UNL     1      38.614  -9.420   1.862  1.00  0.00     0.090 A 
HETATM   23 CL   UNL     1      40.279  -7.885   0.329  1.00  0.00    -0.081 Cl
HETATM   24  C   UNL     1      38.362 -10.547   2.645  1.00  0.00     0.041 A 
HETATM   25  C   UNL     1      39.364 -11.504   2.853  1.00  0.00     0.032 A 
BRANCH  22  26
HETATM   26  O   UNL     1      37.696  -8.436   1.605  1.00  0.00    -0.350 OA
BRANCH  26  27
HETATM   27  C   UNL     1      37.109  -7.772   2.722  1.00  0.00     0.171 C 
HETATM   28  C   UNL     1      38.066  -6.683   3.173  1.00  0.00     0.034 C 
ENDBRANCH  26  27
ENDBRANCH  22  26
ENDBRANCH   1  19
TORSDOF 3
ENDMDL
