MODEL 1
REMARK VINA RESULT:      -8.9      0.000      0.000
REMARK  4 active torsions:
REMARK  status: ('A' for Active; 'I' for Inactive)
REMARK    1  A    between atoms: C_6  and  C_7 
REMARK       I    between atoms: C_7  and  N_8 
REMARK    2  A    between atoms: N_8  and  C_9 
REMARK    3  A    between atoms: C_10  and  C_11 
REMARK    4  A    between atoms: C_11  and  C_12 
ROOT
HETATM    1  C   UNL     1      41.077 -13.001   2.547  1.00  0.00     0.259 C 
HETATM    2  N   UNL     1      42.355 -13.346   2.940  1.00  0.00    -0.322 N 
HETATM    3  O   UNL     1      40.190 -12.595   3.290  1.00  0.00    -0.267 OA
HETATM    4  H   UNL     1      42.935 -13.809   2.253  1.00  0.00     0.169 HD
ENDROOT
BRANCH   2   5
HETATM    5  C   UNL     1      42.940 -13.126   4.207  1.00  0.00     0.041 A 
HETATM    6  C   UNL     1      42.942 -14.162   5.165  1.00  0.00    -0.027 A 
HETATM    7  C   UNL     1      43.631 -13.971   6.380  1.00  0.00     0.010 A 
HETATM    8  C   UNL     1      44.282 -12.770   6.655  1.00  0.00     0.001 A 
HETATM    9  C   UNL     1      44.248 -11.740   5.723  1.00  0.00     0.002 A 
HETATM   10  C   UNL     1      43.581 -11.917   4.508  1.00  0.00     0.030 A 
BRANCH   6  11
HETATM   11  C   UNL     1      42.160 -15.451   4.999  1.00  0.00     0.079 C 
BRANCH  11  12
HETATM   12  C   UNL     1      42.875 -16.590   4.308  1.00  0.00    -0.054 A 
HETATM   13  C   UNL     1      43.789 -17.367   5.039  1.00  0.00     0.007 A 
HETATM   14  C   UNL     1      44.430 -18.459   4.453  1.00  0.00     0.001 A 
HETATM   15  C   UNL     1      44.157 -18.797   3.130  1.00  0.00     0.000 A 
HETATM   16  C   UNL     1      43.243 -18.045   2.396  1.00  0.00     0.001 A 
HETATM   17  C   UNL     1      42.602 -16.951   2.981  1.00  0.00     0.007 A 
ENDBRANCH  11  12
ENDBRANCH   6  11
ENDBRANCH   2   5
BRANCH   1  18
HETATM   18  C   UNL     1      40.801 -13.255   1.140  1.00  0.00     0.081 A 
HETATM   19  C   UNL     1      40.274 -14.438   0.645  1.00  0.00     0.068 A 
HETATM   20  C   UNL     1      39.900 -15.721   1.279  1.00  0.00     0.078 C 
HETATM   21  O   UNL     1      40.085 -14.359  -0.703  1.00  0.00    -0.295 OA
HETATM   22  C   UNL     1      40.470 -13.116  -1.098  1.00  0.00     0.187 A 
HETATM   23  C   UNL     1      40.928 -12.415  -0.001  1.00  0.00     0.103 A 
HETATM   24  N   UNL     1      40.379 -12.674  -2.376  1.00  0.00    -0.219 NA
HETATM   25  C   UNL     1      41.363 -11.063  -0.208  1.00  0.00     0.262 A 
HETATM   26  N   UNL     1      41.218 -10.634  -1.510  1.00  0.00    -0.317 N 
HETATM   27  O   UNL     1      41.843 -10.354   0.668  1.00  0.00    -0.267 OA
HETATM   28  C   UNL     1      40.752 -11.444  -2.521  1.00  0.00     0.212 A 
HETATM   29  H   UNL     1      41.508  -9.686  -1.701  1.00  0.00     0.170 HD
ENDBRANCH   1  18
TORSDOF 4
ENDMDL
MODEL 2
REMARK VINA RESULT:      -8.8      2.177      4.485
REMARK  4 active torsions:
REMARK  status: ('A' for Active; 'I' for Inactive)
REMARK    1  A    between atoms: C_6  and  C_7 
REMARK       I    between atoms: C_7  and  N_8 
REMARK    2  A    between atoms: N_8  and  C_9 
REMARK    3  A    between atoms: C_10  and  C_11 
REMARK    4  A    between atoms: C_11  and  C_12 
ROOT
HETATM    1  C   UNL     1      42.791 -15.066   1.943  1.00  0.00     0.259 C 
HETATM    2  N   UNL     1      42.297 -16.095   2.720  1.00  0.00    -0.322 N 
HETATM    3  O   UNL     1      43.941 -14.979   1.527  1.00  0.00    -0.267 OA
HETATM    4  H   UNL     1      41.378 -15.965   3.120  1.00  0.00     0.169 HD
ENDROOT
BRANCH   2   5
HETATM    5  C   UNL     1      42.944 -17.314   3.023  1.00  0.00     0.041 A 
HETATM    6  C   UNL     1      43.563 -17.483   4.281  1.00  0.00    -0.027 A 
HETATM    7  C   UNL     1      44.102 -18.742   4.615  1.00  0.00     0.010 A 
HETATM    8  C   UNL     1      44.055 -19.805   3.715  1.00  0.00     0.001 A 
HETATM    9  C   UNL     1      43.476 -19.624   2.466  1.00  0.00     0.002 A 
HETATM   10  C   UNL     1      42.926 -18.387   2.122  1.00  0.00     0.030 A 
BRANCH   6  11
HETATM   11  C   UNL     1      43.765 -16.350   5.268  1.00  0.00     0.079 C 
BRANCH  11  12
HETATM   12  C   UNL     1      42.520 -15.616   5.716  1.00  0.00    -0.054 A 
HETATM   13  C   UNL     1      42.482 -14.215   5.623  1.00  0.00     0.007 A 
HETATM   14  C   UNL     1      41.333 -13.505   5.977  1.00  0.00     0.001 A 
HETATM   15  C   UNL     1      40.204 -14.188   6.418  1.00  0.00     0.000 A 
HETATM   16  C   UNL     1      40.222 -15.578   6.504  1.00  0.00     0.001 A 
HETATM   17  C   UNL     1      41.370 -16.289   6.150  1.00  0.00     0.007 A 
ENDBRANCH  11  12
ENDBRANCH   6  11
ENDBRANCH   2   5
BRANCH   1  18
HETATM   18  C   UNL     1      41.842 -13.985   1.719  1.00  0.00     0.081 A 
HETATM   19  C   UNL     1      40.622 -14.134   1.078  1.00  0.00     0.068 A 
HETATM   20  C   UNL     1      39.954 -15.283   0.427  1.00  0.00     0.078 C 
HETATM   21  O   UNL     1      39.936 -12.956   1.061  1.00  0.00    -0.295 OA
HETATM   22  C   UNL     1      40.693 -12.031   1.708  1.00  0.00     0.187 A 
HETATM   23  C   UNL     1      41.875 -12.619   2.112  1.00  0.00     0.103 A 
HETATM   24  N   UNL     1      40.299 -10.751   1.916  1.00  0.00    -0.219 NA
HETATM   25  C   UNL     1      42.809 -11.806   2.839  1.00  0.00     0.262 A 
HETATM   26  N   UNL     1      42.358 -10.525   3.069  1.00  0.00    -0.317 N 
HETATM   27  O   UNL     1      43.913 -12.189   3.205  1.00  0.00    -0.267 OA
HETATM   28  C   UNL     1      41.151 -10.056   2.598  1.00  0.00     0.212 A 
HETATM   29  H   UNL     1      42.982  -9.918   3.580  1.00  0.00     0.170 HD
ENDBRANCH   1  18
TORSDOF 4
ENDMDL
MODEL 3
REMARK VINA RESULT:      -8.6      1.849      2.957
REMARK  4 active torsions:
REMARK  status: ('A' for Active; 'I' for Inactive)
REMARK    1  A    between atoms: C_6  and  C_7 
REMARK       I    between atoms: C_7  and  N_8 
REMARK    2  A    between atoms: N_8  and  C_9 
REMARK    3  A    between atoms: C_10  and  C_11 
REMARK    4  A    between atoms: C_11  and  C_12 
ROOT
HETATM    1  C   UNL     1      40.354 -13.449   2.295  1.00  0.00     0.259 C 
HETATM    2  N   UNL     1      41.448 -13.919   2.994  1.00  0.00    -0.322 N 
HETATM    3  O   UNL     1      39.185 -13.731   2.530  1.00  0.00    -0.267 OA
HETATM    4  H   UNL     1      42.359 -13.730   2.600  1.00  0.00     0.169 HD
ENDROOT
BRANCH   2   5
HETATM    5  C   UNL     1      41.430 -14.646   4.206  1.00  0.00     0.041 A 
HETATM    6  C   UNL     1      42.334 -15.713   4.395  1.00  0.00    -0.027 A 
HETATM    7  C   UNL     1      42.386 -16.353   5.650  1.00  0.00     0.010 A 
HETATM    8  C   UNL     1      41.543 -15.966   6.689  1.00  0.00     0.001 A 
HETATM    9  C   UNL     1      40.630 -14.938   6.488  1.00  0.00     0.002 A 
HETATM   10  C   UNL     1      40.573 -14.284   5.254  1.00  0.00     0.030 A 
BRANCH   6  11
HETATM   11  C   UNL     1      43.199 -16.276   3.284  1.00  0.00     0.079 C 
BRANCH  11  12
HETATM   12  C   UNL     1      43.377 -17.778   3.263  1.00  0.00    -0.054 A 
HETATM   13  C   UNL     1      42.853 -18.513   2.187  1.00  0.00     0.007 A 
HETATM   14  C   UNL     1      43.042 -19.894   2.105  1.00  0.00     0.001 A 
HETATM   15  C   UNL     1      43.767 -20.556   3.091  1.00  0.00     0.000 A 
HETATM   16  C   UNL     1      44.305 -19.839   4.157  1.00  0.00     0.001 A 
HETATM   17  C   UNL     1      44.116 -18.458   4.241  1.00  0.00     0.007 A 
ENDBRANCH  11  12
ENDBRANCH   6  11
ENDBRANCH   2   5
BRANCH   1  18
HETATM   18  C   UNL     1      40.698 -12.634   1.138  1.00  0.00     0.081 A 
HETATM   19  C   UNL     1      41.260 -11.368   1.210  1.00  0.00     0.068 A 
HETATM   20  C   UNL     1      41.617 -10.482   2.340  1.00  0.00     0.078 C 
HETATM   21  O   UNL     1      41.510 -10.877  -0.037  1.00  0.00    -0.295 OA
HETATM   22  C   UNL     1      41.131 -11.826  -0.935  1.00  0.00     0.187 A 
HETATM   23  C   UNL     1      40.615 -12.910  -0.254  1.00  0.00     0.103 A 
HETATM   24  N   UNL     1      41.276 -11.690  -2.275  1.00  0.00    -0.219 NA
HETATM   25  C   UNL     1      40.176 -14.036  -1.030  1.00  0.00     0.262 A 
HETATM   26  N   UNL     1      40.377 -13.880  -2.384  1.00  0.00    -0.317 N 
HETATM   27  O   UNL     1      39.649 -15.034  -0.554  1.00  0.00    -0.267 OA
HETATM   28  C   UNL     1      40.898 -12.733  -2.940  1.00  0.00     0.212 A 
HETATM   29  H   UNL     1      40.086 -14.650  -2.968  1.00  0.00     0.170 HD
ENDBRANCH   1  18
TORSDOF 4
ENDMDL
MODEL 4
REMARK VINA RESULT:      -8.6      3.123      7.180
REMARK  4 active torsions:
REMARK  status: ('A' for Active; 'I' for Inactive)
REMARK    1  A    between atoms: C_6  and  C_7 
REMARK       I    between atoms: C_7  and  N_8 
REMARK    2  A    between atoms: N_8  and  C_9 
REMARK    3  A    between atoms: C_10  and  C_11 
REMARK    4  A    between atoms: C_11  and  C_12 
ROOT
HETATM    1  C   UNL     1      42.911 -16.053   2.946  1.00  0.00     0.259 C 
HETATM    2  N   UNL     1      41.541 -15.883   2.920  1.00  0.00    -0.322 N 
HETATM    3  O   UNL     1      43.705 -15.548   2.158  1.00  0.00    -0.267 OA
HETATM    4  H   UNL     1      40.996 -16.477   3.530  1.00  0.00     0.169 HD
ENDROOT
BRANCH   2   5
HETATM    5  C   UNL     1      40.815 -14.969   2.123  1.00  0.00     0.041 A 
HETATM    6  C   UNL     1      40.396 -13.740   2.676  1.00  0.00    -0.027 A 
HETATM    7  C   UNL     1      39.776 -12.789   1.840  1.00  0.00     0.010 A 
HETATM    8  C   UNL     1      39.550 -13.058   0.492  1.00  0.00     0.001 A 
HETATM    9  C   UNL     1      39.934 -14.283  -0.040  1.00  0.00     0.002 A 
HETATM   10  C   UNL     1      40.560 -15.232   0.771  1.00  0.00     0.030 A 
BRANCH   6  11
HETATM   11  C   UNL     1      40.493 -13.416   4.155  1.00  0.00     0.079 C 
BRANCH  11  12
HETATM   12  C   UNL     1      41.700 -12.618   4.593  1.00  0.00    -0.054 A 
HETATM   13  C   UNL     1      41.762 -12.143   5.913  1.00  0.00     0.007 A 
HETATM   14  C   UNL     1      42.884 -11.448   6.372  1.00  0.00     0.001 A 
HETATM   15  C   UNL     1      43.962 -11.230   5.519  1.00  0.00     0.000 A 
HETATM   16  C   UNL     1      43.921 -11.707   4.212  1.00  0.00     0.001 A 
HETATM   17  C   UNL     1      42.800 -12.401   3.751  1.00  0.00     0.007 A 
ENDBRANCH  11  12
ENDBRANCH   6  11
ENDBRANCH   2   5
BRANCH   1  18
HETATM   18  C   UNL     1      43.373 -16.994   3.956  1.00  0.00     0.081 A 
HETATM   19  C   UNL     1      43.640 -16.660   5.275  1.00  0.00     0.068 A 
HETATM   20  C   UNL     1      43.610 -15.383   6.021  1.00  0.00     0.078 C 
HETATM   21  O   UNL     1      44.010 -17.761   5.989  1.00  0.00    -0.295 OA
HETATM   22  C   UNL     1      43.968 -18.828   5.147  1.00  0.00     0.187 A 
HETATM   23  C   UNL     1      43.597 -18.397   3.889  1.00  0.00     0.103 A 
HETATM   24  N   UNL     1      44.238 -20.099   5.533  1.00  0.00    -0.219 NA
HETATM   25  C   UNL     1      43.473 -19.385   2.855  1.00  0.00     0.262 A 
HETATM   26  N   UNL     1      43.713 -20.670   3.293  1.00  0.00    -0.317 N 
HETATM   27  O   UNL     1      43.207 -19.128   1.688  1.00  0.00    -0.267 OA
HETATM   28  C   UNL     1      44.089 -20.966   4.585  1.00  0.00     0.212 A 
HETATM   29  H   UNL     1      43.634 -21.398   2.599  1.00  0.00     0.170 HD
ENDBRANCH   1  18
TORSDOF 4
ENDMDL
MODEL 5
REMARK VINA RESULT:      -8.5     15.838     17.669
REMARK  4 active torsions:
REMARK  status: ('A' for Active; 'I' for Inactive)
REMARK    1  A    between atoms: C_6  and  C_7 
REMARK       I    between atoms: C_7  and  N_8 
REMARK    2  A    between atoms: N_8  and  C_9 
REMARK    3  A    between atoms: C_10  and  C_11 
REMARK    4  A    between atoms: C_11  and  C_12 
ROOT
HETATM    1  C   UNL     1      47.269 -29.027   1.578  1.00  0.00     0.259 C 
HETATM    2  N   UNL     1      46.242 -29.860   1.181  1.00  0.00    -0.322 N 
HETATM    3  O   UNL     1      47.130 -27.907   2.059  1.00  0.00    -0.267 OA
HETATM    4  H   UNL     1      46.500 -30.688   0.662  1.00  0.00     0.169 HD
ENDROOT
BRANCH   2   5
HETATM    5  C   UNL     1      44.861 -29.675   1.416  1.00  0.00     0.041 A 
HETATM    6  C   UNL     1      44.032 -29.199   0.377  1.00  0.00    -0.027 A 
HETATM    7  C   UNL     1      42.640 -29.130   0.588  1.00  0.00     0.010 A 
HETATM    8  C   UNL     1      42.081 -29.498   1.810  1.00  0.00     0.001 A 
HETATM    9  C   UNL     1      42.904 -29.933   2.841  1.00  0.00     0.002 A 
HETATM   10  C   UNL     1      44.284 -30.019   2.646  1.00  0.00     0.030 A 
BRANCH   6  11
HETATM   11  C   UNL     1      44.569 -28.666  -0.937  1.00  0.00     0.079 C 
BRANCH  11  12
HETATM   12  C   UNL     1      44.396 -29.556  -2.148  1.00  0.00    -0.054 A 
HETATM   13  C   UNL     1      44.316 -28.968  -3.421  1.00  0.00     0.007 A 
HETATM   14  C   UNL     1      44.209 -29.758  -4.568  1.00  0.00     0.001 A 
HETATM   15  C   UNL     1      44.193 -31.145  -4.457  1.00  0.00     0.000 A 
HETATM   16  C   UNL     1      44.285 -31.742  -3.202  1.00  0.00     0.001 A 
HETATM   17  C   UNL     1      44.391 -30.954  -2.055  1.00  0.00     0.007 A 
ENDBRANCH  11  12
ENDBRANCH   6  11
ENDBRANCH   2   5
BRANCH   1  18
HETATM   18  C   UNL     1      48.598 -29.545   1.287  1.00  0.00     0.081 A 
HETATM   19  C   UNL     1      49.502 -29.970   2.249  1.00  0.00     0.068 A 
HETATM   20  C   UNL     1      49.468 -29.997   3.728  1.00  0.00     0.078 C 
HETATM   21  O   UNL     1      50.641 -30.444   1.668  1.00  0.00    -0.295 OA
HETATM   22  C   UNL     1      50.483 -30.352   0.321  1.00  0.00     0.187 A 
HETATM   23  C   UNL     1      49.251 -29.792   0.049  1.00  0.00     0.103 A 
HETATM   24  N   UNL     1      51.410 -30.774  -0.573  1.00  0.00    -0.219 NA
HETATM   25  C   UNL     1      48.884 -29.629  -1.330  1.00  0.00     0.262 A 
HETATM   26  N   UNL     1      49.831 -30.107  -2.210  1.00  0.00    -0.317 N 
HETATM   27  O   UNL     1      47.847 -29.096  -1.706  1.00  0.00    -0.267 OA
HETATM   28  C   UNL     1      51.034 -30.639  -1.803  1.00  0.00     0.212 A 
HETATM   29  H   UNL     1      49.612 -30.016  -3.191  1.00  0.00     0.170 HD
ENDBRANCH   1  18
TORSDOF 4
ENDMDL
MODEL 6
REMARK VINA RESULT:      -8.5      3.180      6.046
REMARK  4 active torsions:
REMARK  status: ('A' for Active; 'I' for Inactive)
REMARK    1  A    between atoms: C_6  and  C_7 
REMARK       I    between atoms: C_7  and  N_8 
REMARK    2  A    between atoms: N_8  and  C_9 
REMARK    3  A    between atoms: C_10  and  C_11 
REMARK    4  A    between atoms: C_11  and  C_12 
ROOT
HETATM    1  C   UNL     1      41.725 -14.784   5.276  1.00  0.00     0.259 C 
HETATM    2  N   UNL     1      42.951 -15.341   4.971  1.00  0.00    -0.322 N 
HETATM    3  O   UNL     1      40.660 -15.389   5.317  1.00  0.00    -0.267 OA
HETATM    4  H   UNL     1      43.720 -14.702   4.823  1.00  0.00     0.169 HD
ENDROOT
BRANCH   2   5
HETATM    5  C   UNL     1      43.247 -16.717   4.838  1.00  0.00     0.041 A 
HETATM    6  C   UNL     1      43.679 -17.222   3.592  1.00  0.00    -0.027 A 
HETATM    7  C   UNL     1      44.082 -18.569   3.501  1.00  0.00     0.010 A 
HETATM    8  C   UNL     1      44.035 -19.409   4.612  1.00  0.00     0.001 A 
HETATM    9  C   UNL     1      43.578 -18.917   5.828  1.00  0.00     0.002 A 
HETATM   10  C   UNL     1      43.185 -17.581   5.939  1.00  0.00     0.030 A 
BRANCH   6  11
HETATM   11  C   UNL     1      43.645 -16.412   2.310  1.00  0.00     0.079 C 
BRANCH  11  12
HETATM   12  C   UNL     1      42.316 -15.796   1.936  1.00  0.00    -0.054 A 
HETATM   13  C   UNL     1      42.287 -14.480   1.443  1.00  0.00     0.007 A 
HETATM   14  C   UNL     1      41.086 -13.894   1.037  1.00  0.00     0.001 A 
HETATM   15  C   UNL     1      39.900 -14.620   1.108  1.00  0.00     0.000 A 
HETATM   16  C   UNL     1      39.915 -15.929   1.581  1.00  0.00     0.001 A 
HETATM   17  C   UNL     1      41.115 -16.517   1.988  1.00  0.00     0.007 A 
ENDBRANCH  11  12
ENDBRANCH   6  11
ENDBRANCH   2   5
BRANCH   1  18
HETATM   18  C   UNL     1      41.761 -13.340   5.457  1.00  0.00     0.081 A 
HETATM   19  C   UNL     1      40.801 -12.465   4.972  1.00  0.00     0.068 A 
HETATM   20  C   UNL     1      39.582 -12.652   4.154  1.00  0.00     0.078 C 
HETATM   21  O   UNL     1      41.082 -11.183   5.341  1.00  0.00    -0.295 OA
HETATM   22  C   UNL     1      42.218 -11.211   6.088  1.00  0.00     0.187 A 
HETATM   23  C   UNL     1      42.672 -12.512   6.169  1.00  0.00     0.103 A 
HETATM   24  N   UNL     1      42.768 -10.111   6.658  1.00  0.00    -0.219 NA
HETATM   25  C   UNL     1      43.858 -12.757   6.940  1.00  0.00     0.262 A 
HETATM   26  N   UNL     1      44.366 -11.624   7.539  1.00  0.00    -0.317 N 
HETATM   27  O   UNL     1      44.395 -13.852   7.045  1.00  0.00    -0.267 OA
HETATM   28  C   UNL     1      43.817 -10.372   7.367  1.00  0.00     0.212 A 
HETATM   29  H   UNL     1      45.199 -11.750   8.094  1.00  0.00     0.170 HD
ENDBRANCH   1  18
TORSDOF 4
ENDMDL
MODEL 7
REMARK VINA RESULT:      -8.3      1.226      2.542
REMARK  4 active torsions:
REMARK  status: ('A' for Active; 'I' for Inactive)
REMARK    1  A    between atoms: C_6  and  C_7 
REMARK       I    between atoms: C_7  and  N_8 
REMARK    2  A    between atoms: N_8  and  C_9 
REMARK    3  A    between atoms: C_10  and  C_11 
REMARK    4  A    between atoms: C_11  and  C_12 
ROOT
HETATM    1  C   UNL     1      41.309 -11.720   2.468  1.00  0.00     0.259 C 
HETATM    2  N   UNL     1      42.337 -12.548   2.873  1.00  0.00    -0.322 N 
HETATM    3  O   UNL     1      40.668 -10.973   3.199  1.00  0.00    -0.267 OA
HETATM    4  H   UNL     1      42.675 -13.222   2.198  1.00  0.00     0.169 HD
ENDROOT
BRANCH   2   5
HETATM    5  C   UNL     1      42.967 -12.561   4.138  1.00  0.00     0.041 A 
HETATM    6  C   UNL     1      42.871 -13.709   4.955  1.00  0.00    -0.027 A 
HETATM    7  C   UNL     1      43.599 -13.754   6.161  1.00  0.00     0.010 A 
HETATM    8  C   UNL     1      44.385 -12.676   6.566  1.00  0.00     0.001 A 
HETATM    9  C   UNL     1      44.449 -11.536   5.775  1.00  0.00     0.002 A 
HETATM   10  C   UNL     1      43.743 -11.479   4.571  1.00  0.00     0.030 A 
BRANCH   6  11
HETATM   11  C   UNL     1      41.947 -14.872   4.650  1.00  0.00     0.079 C 
BRANCH  11  12
HETATM   12  C   UNL     1      42.600 -16.137   4.138  1.00  0.00    -0.054 A 
HETATM   13  C   UNL     1      42.591 -16.400   2.759  1.00  0.00     0.007 A 
HETATM   14  C   UNL     1      43.229 -17.529   2.242  1.00  0.00     0.001 A 
HETATM   15  C   UNL     1      43.894 -18.404   3.096  1.00  0.00     0.000 A 
HETATM   16  C   UNL     1      43.922 -18.150   4.465  1.00  0.00     0.001 A 
HETATM   17  C   UNL     1      43.284 -17.021   4.984  1.00  0.00     0.007 A 
ENDBRANCH  11  12
ENDBRANCH   6  11
ENDBRANCH   2   5
BRANCH   1  18
HETATM   18  C   UNL     1      40.948 -11.868   1.065  1.00  0.00     0.081 A 
HETATM   19  C   UNL     1      41.179 -10.908   0.091  1.00  0.00     0.068 A 
HETATM   20  C   UNL     1      41.751  -9.544   0.130  1.00  0.00     0.078 C 
HETATM   21  O   UNL     1      40.773 -11.352  -1.133  1.00  0.00    -0.295 OA
HETATM   22  C   UNL     1      40.292 -12.613  -0.972  1.00  0.00     0.187 A 
HETATM   23  C   UNL     1      40.368 -12.959   0.362  1.00  0.00     0.103 A 
HETATM   24  N   UNL     1      39.839 -13.378  -1.995  1.00  0.00    -0.219 NA
HETATM   25  C   UNL     1      39.926 -14.273   0.736  1.00  0.00     0.262 A 
HETATM   26  N   UNL     1      39.512 -15.037  -0.334  1.00  0.00    -0.317 N 
HETATM   27  O   UNL     1      39.889 -14.682   1.889  1.00  0.00    -0.267 OA
HETATM   28  C   UNL     1      39.476 -14.564  -1.627  1.00  0.00     0.212 A 
HETATM   29  H   UNL     1      39.195 -15.970  -0.117  1.00  0.00     0.170 HD
ENDBRANCH   1  18
TORSDOF 4
ENDMDL
MODEL 8
REMARK VINA RESULT:      -8.2      2.801      6.524
REMARK  4 active torsions:
REMARK  status: ('A' for Active; 'I' for Inactive)
REMARK    1  A    between atoms: C_6  and  C_7 
REMARK       I    between atoms: C_7  and  N_8 
REMARK    2  A    between atoms: N_8  and  C_9 
REMARK    3  A    between atoms: C_10  and  C_11 
REMARK    4  A    between atoms: C_11  and  C_12 
ROOT
HETATM    1  C   UNL     1      42.754 -13.194   4.435  1.00  0.00     0.259 C 
HETATM    2  N   UNL     1      42.307 -14.441   4.825  1.00  0.00    -0.322 N 
HETATM    3  O   UNL     1      43.550 -12.976   3.528  1.00  0.00    -0.267 OA
HETATM    4  H   UNL     1      41.774 -14.487   5.683  1.00  0.00     0.169 HD
ENDROOT
BRANCH   2   5
HETATM    5  C   UNL     1      42.523 -15.666   4.155  1.00  0.00     0.041 A 
HETATM    6  C   UNL     1      41.696 -16.023   3.067  1.00  0.00    -0.027 A 
HETATM    7  C   UNL     1      41.994 -17.189   2.334  1.00  0.00     0.010 A 
HETATM    8  C   UNL     1      43.070 -18.002   2.684  1.00  0.00     0.001 A 
HETATM    9  C   UNL     1      43.861 -17.665   3.776  1.00  0.00     0.002 A 
HETATM   10  C   UNL     1      43.587 -16.506   4.507  1.00  0.00     0.030 A 
BRANCH   6  11
HETATM   11  C   UNL     1      40.437 -15.263   2.695  1.00  0.00     0.079 C 
BRANCH  11  12
HETATM   12  C   UNL     1      40.446 -14.556   1.359  1.00  0.00    -0.054 A 
HETATM   13  C   UNL     1      39.792 -15.151   0.267  1.00  0.00     0.007 A 
HETATM   14  C   UNL     1      39.733 -14.505  -0.970  1.00  0.00     0.001 A 
HETATM   15  C   UNL     1      40.316 -13.251  -1.128  1.00  0.00     0.000 A 
HETATM   16  C   UNL     1      40.956 -12.643  -0.050  1.00  0.00     0.001 A 
HETATM   17  C   UNL     1      41.017 -13.288   1.187  1.00  0.00     0.007 A 
ENDBRANCH  11  12
ENDBRANCH   6  11
ENDBRANCH   2   5
BRANCH   1  18
HETATM   18  C   UNL     1      42.274 -12.104   5.273  1.00  0.00     0.081 A 
HETATM   19  C   UNL     1      41.014 -11.534   5.172  1.00  0.00     0.068 A 
HETATM   20  C   UNL     1      39.871 -11.761   4.260  1.00  0.00     0.078 C 
HETATM   21  O   UNL     1      40.841 -10.570   6.120  1.00  0.00    -0.295 OA
HETATM   22  C   UNL     1      41.979 -10.514   6.861  1.00  0.00     0.187 A 
HETATM   23  C   UNL     1      42.886 -11.428   6.363  1.00  0.00     0.103 A 
HETATM   24  N   UNL     1      42.143  -9.689   7.923  1.00  0.00    -0.219 NA
HETATM   25  C   UNL     1      44.154 -11.539   7.029  1.00  0.00     0.262 A 
HETATM   26  N   UNL     1      44.269 -10.716   8.129  1.00  0.00    -0.317 N 
HETATM   27  O   UNL     1      45.064 -12.268   6.656  1.00  0.00    -0.267 OA
HETATM   28  C   UNL     1      43.283  -9.835   8.516  1.00  0.00     0.212 A 
HETATM   29  H   UNL     1      45.144 -10.764   8.630  1.00  0.00     0.170 HD
ENDBRANCH   1  18
TORSDOF 4
ENDMDL
MODEL 9
REMARK VINA RESULT:      -8.2      2.877      6.901
REMARK  4 active torsions:
REMARK  status: ('A' for Active; 'I' for Inactive)
REMARK    1  A    between atoms: C_6  and  C_7 
REMARK       I    between atoms: C_7  and  N_8 
REMARK    2  A    between atoms: N_8  and  C_9 
REMARK    3  A    between atoms: C_10  and  C_11 
REMARK    4  A    between atoms: C_11  and  C_12 
ROOT
HETATM    1  C   UNL     1      42.475 -14.738   4.374  1.00  0.00     0.259 C 
HETATM    2  N   UNL     1      41.109 -14.677   4.185  1.00  0.00    -0.322 N 
HETATM    3  O   UNL     1      43.277 -13.867   4.054  1.00  0.00    -0.267 OA
HETATM    4  H   UNL     1      40.586 -15.526   4.354  1.00  0.00     0.169 HD
ENDROOT
BRANCH   2   5
HETATM    5  C   UNL     1      40.360 -13.553   3.770  1.00  0.00     0.041 A 
HETATM    6  C   UNL     1      39.784 -13.533   2.482  1.00  0.00    -0.027 A 
HETATM    7  C   UNL     1      38.943 -12.459   2.124  1.00  0.00     0.010 A 
HETATM    8  C   UNL     1      38.698 -11.414   3.011  1.00  0.00     0.001 A 
HETATM    9  C   UNL     1      39.293 -11.421   4.266  1.00  0.00     0.002 A 
HETATM   10  C   UNL     1      40.120 -12.482   4.642  1.00  0.00     0.030 A 
BRANCH   6  11
HETATM   11  C   UNL     1      40.096 -14.565   1.415  1.00  0.00     0.079 C 
BRANCH  11  12
HETATM   12  C   UNL     1      40.180 -14.060  -0.008  1.00  0.00    -0.054 A 
HETATM   13  C   UNL     1      39.505 -14.759  -1.022  1.00  0.00     0.007 A 
HETATM   14  C   UNL     1      39.514 -14.296  -2.339  1.00  0.00     0.001 A 
HETATM   15  C   UNL     1      40.191 -13.122  -2.658  1.00  0.00     0.000 A 
HETATM   16  C   UNL     1      40.855 -12.411  -1.661  1.00  0.00     0.001 A 
HETATM   17  C   UNL     1      40.846 -12.873  -0.343  1.00  0.00     0.007 A 
ENDBRANCH  11  12
ENDBRANCH   6  11
ENDBRANCH   2   5
BRANCH   1  18
HETATM   18  C   UNL     1      42.942 -16.006   4.916  1.00  0.00     0.081 A 
HETATM   19  C   UNL     1      43.030 -16.296   6.269  1.00  0.00     0.068 A 
HETATM   20  C   UNL     1      42.766 -15.506   7.492  1.00  0.00     0.078 C 
HETATM   21  O   UNL     1      43.456 -17.576   6.464  1.00  0.00    -0.295 OA
HETATM   22  C   UNL     1      43.632 -18.141   5.240  1.00  0.00     0.187 A 
HETATM   23  C   UNL     1      43.342 -17.206   4.267  1.00  0.00     0.103 A 
HETATM   24  N   UNL     1      44.014 -19.428   5.056  1.00  0.00    -0.219 NA
HETATM   25  C   UNL     1      43.448 -17.618   2.895  1.00  0.00     0.262 A 
HETATM   26  N   UNL     1      43.797 -18.943   2.746  1.00  0.00    -0.317 N 
HETATM   27  O   UNL     1      43.273 -16.873   1.939  1.00  0.00    -0.267 OA
HETATM   28  C   UNL     1      44.071 -19.773   3.811  1.00  0.00     0.212 A 
HETATM   29  H   UNL     1      43.879 -19.277   1.797  1.00  0.00     0.170 HD
ENDBRANCH   1  18
TORSDOF 4
ENDMDL
MODEL 10
REMARK VINA RESULT:      -8.2      1.946      4.341
REMARK  4 active torsions:
REMARK  status: ('A' for Active; 'I' for Inactive)
REMARK    1  A    between atoms: C_6  and  C_7 
REMARK       I    between atoms: C_7  and  N_8 
REMARK    2  A    between atoms: N_8  and  C_9 
REMARK    3  A    between atoms: C_10  and  C_11 
REMARK    4  A    between atoms: C_11  and  C_12 
ROOT
HETATM    1  C   UNL     1      40.269 -14.804   2.021  1.00  0.00     0.259 C 
HETATM    2  N   UNL     1      41.635 -14.872   2.215  1.00  0.00    -0.322 N 
HETATM    3  O   UNL     1      39.472 -15.704   2.262  1.00  0.00    -0.267 OA
HETATM    4  H   UNL     1      42.188 -14.117   1.832  1.00  0.00     0.169 HD
ENDROOT
BRANCH   2   5
HETATM    5  C   UNL     1      42.346 -15.891   2.887  1.00  0.00     0.041 A 
HETATM    6  C   UNL     1      42.380 -15.906   4.298  1.00  0.00    -0.027 A 
HETATM    7  C   UNL     1      42.993 -16.991   4.957  1.00  0.00     0.010 A 
HETATM    8  C   UNL     1      43.583 -18.027   4.237  1.00  0.00     0.001 A 
HETATM    9  C   UNL     1      43.576 -17.992   2.849  1.00  0.00     0.002 A 
HETATM   10  C   UNL     1      42.964 -16.930   2.179  1.00  0.00     0.030 A 
BRANCH   6  11
HETATM   11  C   UNL     1      41.872 -14.762   5.155  1.00  0.00     0.079 C 
BRANCH  11  12
HETATM   12  C   UNL     1      42.829 -13.615   5.386  1.00  0.00    -0.054 A 
HETATM   13  C   UNL     1      43.620 -13.608   6.547  1.00  0.00     0.007 A 
HETATM   14  C   UNL     1      44.554 -12.595   6.771  1.00  0.00     0.001 A 
HETATM   15  C   UNL     1      44.717 -11.580   5.833  1.00  0.00     0.000 A 
HETATM   16  C   UNL     1      43.949 -11.580   4.670  1.00  0.00     0.001 A 
HETATM   17  C   UNL     1      43.014 -12.593   4.445  1.00  0.00     0.007 A 
ENDBRANCH  11  12
ENDBRANCH   6  11
ENDBRANCH   2   5
BRANCH   1  18
HETATM   18  C   UNL     1      39.821 -13.571   1.390  1.00  0.00     0.081 A 
HETATM   19  C   UNL     1      39.730 -13.380   0.020  1.00  0.00     0.068 A 
HETATM   20  C   UNL     1      40.063 -14.230  -1.144  1.00  0.00     0.078 C 
HETATM   21  O   UNL     1      39.235 -12.142  -0.265  1.00  0.00    -0.295 OA
HETATM   22  C   UNL     1      38.980 -11.520   0.917  1.00  0.00     0.187 A 
HETATM   23  C   UNL     1      39.340 -12.357   1.953  1.00  0.00     0.103 A 
HETATM   24  N   UNL     1      38.440 -10.281   1.010  1.00  0.00    -0.219 NA
HETATM   25  C   UNL     1      39.126 -11.888   3.293  1.00  0.00     0.262 A 
HETATM   26  N   UNL     1      38.536 -10.644   3.351  1.00  0.00    -0.317 N 
HETATM   27  O   UNL     1      39.452 -12.508   4.298  1.00  0.00    -0.267 OA
HETATM   28  C   UNL     1      38.234  -9.902   2.230  1.00  0.00     0.212 A 
HETATM   29  H   UNL     1      38.363 -10.276   4.275  1.00  0.00     0.170 HD
ENDBRANCH   1  18
TORSDOF 4
ENDMDL
