MODEL 1
REMARK VINA RESULT:      -8.2      0.000      0.000
REMARK  8 active torsions:
REMARK  status: ('A' for Active; 'I' for Inactive)
REMARK    1  A    between atoms: C_3  and  O_4 
REMARK    2  A    between atoms: C_11  and  C_12 
REMARK    3  A    between atoms: C_12  and  C_13 
REMARK    4  A    between atoms: C_13  and  S_14 
REMARK    5  A    between atoms: S_14  and  C_15 
REMARK    6  A    between atoms: N_16  and  C_17 
REMARK    7  A    between atoms: C_17  and  C_18 
REMARK    8  A    between atoms: C_24  and  C_25 
ROOT
HETATM    1  C   UNL     1      43.484 -15.238   6.116  1.00  0.00     0.192 A 
HETATM    2  N   UNL     1      42.988 -16.229   5.309  1.00  0.00    -0.303 N 
HETATM    3  C   UNL     1      43.988 -17.183   5.241  1.00  0.00     0.166 A 
HETATM    4  N   UNL     1      44.999 -16.775   5.989  1.00  0.00    -0.128 NA
HETATM    5  N   UNL     1      44.690 -15.552   6.520  1.00  0.00    -0.122 NA
ENDROOT
BRANCH   1   6
HETATM    6  S   UNL     1      42.636 -13.789   6.525  1.00  0.00    -0.082 SA
BRANCH   6   7
HETATM    7  C   UNL     1      43.280 -12.678   5.239  1.00  0.00     0.166 C 
BRANCH   7   8
HETATM    8  C   UNL     1      42.333 -11.529   4.945  1.00  0.00     0.169 C 
HETATM    9  O   UNL     1      42.396 -10.432   5.500  1.00  0.00    -0.291 OA
BRANCH   8  10
HETATM   10  C   UNL     1      41.248 -11.760   3.939  1.00  0.00     0.011 A 
HETATM   11  C   UNL     1      40.063 -12.433   4.261  1.00  0.00     0.017 A 
HETATM   12  C   UNL     1      39.072 -12.655   3.297  1.00  0.00     0.031 A 
HETATM   13  C   UNL     1      39.302 -12.176   2.005  1.00  0.00     0.045 A 
HETATM   14  N   UNL     1      38.520 -12.251   0.878  1.00  0.00    -0.336 N 
HETATM   15  C   UNL     1      40.460 -11.488   1.647  1.00  0.00     0.002 A 
HETATM   16  C   UNL     1      39.132 -11.632  -0.175  1.00  0.00     0.147 A 
HETATM   17  H   UNL     1      37.615 -12.693   0.822  1.00  0.00     0.168 HD
HETATM   18  C   UNL     1      40.348 -11.142   0.259  1.00  0.00     0.001 A 
HETATM   19  C   UNL     1      41.358 -10.389  -0.532  1.00  0.00     0.054 C 
HETATM   20  C   UNL     1      41.445 -11.275   2.633  1.00  0.00     0.029 A 
BRANCH  16  21
HETATM   21  O   UNL     1      38.515 -11.601  -1.347  1.00  0.00    -0.346 OA
HETATM   22  H   UNL     1      37.742 -11.017  -1.256  1.00  0.00     0.219 HD
ENDBRANCH  16  21
ENDBRANCH   8  10
ENDBRANCH   7   8
ENDBRANCH   6   7
ENDBRANCH   1   6
BRANCH   2  23
HETATM   23  C   UNL     1      41.634 -16.339   4.792  1.00  0.00     0.171 C 
BRANCH  23  24
HETATM   24  C   UNL     1      41.469 -15.868   3.364  1.00  0.00    -0.040 A 
HETATM   25  C   UNL     1      42.445 -15.129   2.678  1.00  0.00     0.009 A 
HETATM   26  C   UNL     1      42.225 -14.698   1.368  1.00  0.00     0.001 A 
HETATM   27  C   UNL     1      41.020 -14.982   0.731  1.00  0.00     0.000 A 
HETATM   28  C   UNL     1      40.032 -15.694   1.402  1.00  0.00     0.001 A 
HETATM   29  C   UNL     1      40.252 -16.130   2.711  1.00  0.00     0.009 A 
ENDBRANCH  23  24
ENDBRANCH   2  23
BRANCH   3  30
HETATM   30  C   UNL     1      43.945 -18.465   4.549  1.00  0.00     0.029 A 
HETATM   31  C   UNL     1      43.951 -19.688   5.211  1.00  0.00     0.131 A 
HETATM   32  N   UNL     1      43.904 -20.894   4.591  1.00  0.00    -0.272 NA
HETATM   33  C   UNL     1      43.808 -20.882   3.245  1.00  0.00     0.116 A 
HETATM   34  C   UNL     1      43.761 -19.723   2.490  1.00  0.00     0.020 A 
HETATM   35  C   UNL     1      43.829 -18.501   3.155  1.00  0.00     0.018 A 
ENDBRANCH   3  30
TORSDOF 8
ENDMDL
MODEL 2
REMARK VINA RESULT:      -8.0      2.608      6.527
REMARK  8 active torsions:
REMARK  status: ('A' for Active; 'I' for Inactive)
REMARK    1  A    between atoms: C_3  and  O_4 
REMARK    2  A    between atoms: C_11  and  C_12 
REMARK    3  A    between atoms: C_12  and  C_13 
REMARK    4  A    between atoms: C_13  and  S_14 
REMARK    5  A    between atoms: S_14  and  C_15 
REMARK    6  A    between atoms: N_16  and  C_17 
REMARK    7  A    between atoms: C_17  and  C_18 
REMARK    8  A    between atoms: C_24  and  C_25 
ROOT
HETATM    1  C   UNL     1      42.195 -11.466   3.705  1.00  0.00     0.192 A 
HETATM    2  N   UNL     1      41.016 -11.922   3.174  1.00  0.00    -0.303 N 
HETATM    3  C   UNL     1      41.221 -11.966   1.807  1.00  0.00     0.166 A 
HETATM    4  N   UNL     1      42.462 -11.580   1.562  1.00  0.00    -0.128 NA
HETATM    5  N   UNL     1      43.063 -11.250   2.747  1.00  0.00    -0.122 NA
ENDROOT
BRANCH   1   6
HETATM    6  S   UNL     1      42.479 -11.211   5.391  1.00  0.00    -0.082 SA
BRANCH   6   7
HETATM    7  C   UNL     1      43.967 -12.230   5.612  1.00  0.00     0.166 C 
BRANCH   7   8
HETATM    8  C   UNL     1      43.753 -13.351   6.612  1.00  0.00     0.169 C 
HETATM    9  O   UNL     1      43.594 -13.172   7.818  1.00  0.00    -0.291 OA
BRANCH   8  10
HETATM   10  C   UNL     1      43.762 -14.757   6.093  1.00  0.00     0.011 A 
HETATM   11  C   UNL     1      43.950 -15.861   6.934  1.00  0.00     0.017 A 
HETATM   12  C   UNL     1      43.974 -17.165   6.424  1.00  0.00     0.031 A 
HETATM   13  C   UNL     1      43.797 -17.326   5.047  1.00  0.00     0.045 A 
HETATM   14  N   UNL     1      43.778 -18.468   4.283  1.00  0.00    -0.336 N 
HETATM   15  C   UNL     1      43.593 -16.256   4.177  1.00  0.00     0.002 A 
HETATM   16  C   UNL     1      43.562 -18.165   2.968  1.00  0.00     0.147 A 
HETATM   17  H   UNL     1      43.900 -19.407   4.631  1.00  0.00     0.168 HD
HETATM   18  C   UNL     1      43.442 -16.793   2.856  1.00  0.00     0.001 A 
HETATM   19  C   UNL     1      43.192 -16.003   1.621  1.00  0.00     0.054 C 
HETATM   20  C   UNL     1      43.571 -14.952   4.714  1.00  0.00     0.029 A 
BRANCH  16  21
HETATM   21  O   UNL     1      43.506 -19.149   2.084  1.00  0.00    -0.346 OA
HETATM   22  H   UNL     1      44.417 -19.347   1.806  1.00  0.00     0.219 HD
ENDBRANCH  16  21
ENDBRANCH   8  10
ENDBRANCH   7   8
ENDBRANCH   6   7
ENDBRANCH   1   6
BRANCH   2  23
HETATM   23  C   UNL     1      39.866 -12.426   3.906  1.00  0.00     0.171 C 
BRANCH  23  24
HETATM   24  C   UNL     1      40.050 -13.810   4.486  1.00  0.00    -0.040 A 
HETATM   25  C   UNL     1      40.115 -14.972   3.703  1.00  0.00     0.009 A 
HETATM   26  C   UNL     1      40.259 -16.228   4.298  1.00  0.00     0.001 A 
HETATM   27  C   UNL     1      40.322 -16.343   5.684  1.00  0.00     0.000 A 
HETATM   28  C   UNL     1      40.236 -15.204   6.478  1.00  0.00     0.001 A 
HETATM   29  C   UNL     1      40.096 -13.948   5.885  1.00  0.00     0.009 A 
ENDBRANCH  23  24
ENDBRANCH   2  23
BRANCH   3  30
HETATM   30  C   UNL     1      40.291 -12.432   0.785  1.00  0.00     0.029 A 
HETATM   31  C   UNL     1      39.257 -11.649   0.285  1.00  0.00     0.131 A 
HETATM   32  N   UNL     1      38.383 -12.056  -0.670  1.00  0.00    -0.272 NA
HETATM   33  C   UNL     1      38.572 -13.290  -1.182  1.00  0.00     0.116 A 
HETATM   34  C   UNL     1      39.589 -14.138  -0.779  1.00  0.00     0.020 A 
HETATM   35  C   UNL     1      40.458 -13.698   0.216  1.00  0.00     0.018 A 
ENDBRANCH   3  30
TORSDOF 8
ENDMDL
MODEL 3
REMARK VINA RESULT:      -7.9      2.856      4.691
REMARK  8 active torsions:
REMARK  status: ('A' for Active; 'I' for Inactive)
REMARK    1  A    between atoms: C_3  and  O_4 
REMARK    2  A    between atoms: C_11  and  C_12 
REMARK    3  A    between atoms: C_12  and  C_13 
REMARK    4  A    between atoms: C_13  and  S_14 
REMARK    5  A    between atoms: S_14  and  C_15 
REMARK    6  A    between atoms: N_16  and  C_17 
REMARK    7  A    between atoms: C_17  and  C_18 
REMARK    8  A    between atoms: C_24  and  C_25 
ROOT
HETATM    1  C   UNL     1      41.290 -11.154   4.109  1.00  0.00     0.192 A 
HETATM    2  N   UNL     1      41.306 -12.520   4.218  1.00  0.00    -0.303 N 
HETATM    3  C   UNL     1      41.985 -12.789   5.393  1.00  0.00     0.166 A 
HETATM    4  N   UNL     1      42.323 -11.636   5.946  1.00  0.00    -0.128 NA
HETATM    5  N   UNL     1      41.904 -10.616   5.134  1.00  0.00    -0.122 NA
ENDROOT
BRANCH   1   6
HETATM    6  S   UNL     1      40.569 -10.281   2.803  1.00  0.00    -0.082 SA
BRANCH   6   7
HETATM    7  C   UNL     1      41.832 -10.541   1.522  1.00  0.00     0.166 C 
BRANCH   7   8
HETATM    8  C   UNL     1      41.442  -9.917   0.194  1.00  0.00     0.169 C 
HETATM    9  O   UNL     1      41.647  -8.739  -0.095  1.00  0.00    -0.291 OA
BRANCH   8  10
HETATM   10  C   UNL     1      40.744 -10.788  -0.806  1.00  0.00     0.011 A 
HETATM   11  C   UNL     1      40.332 -10.306  -2.055  1.00  0.00     0.017 A 
HETATM   12  C   UNL     1      39.664 -11.134  -2.965  1.00  0.00     0.031 A 
HETATM   13  C   UNL     1      39.427 -12.458  -2.587  1.00  0.00     0.045 A 
HETATM   14  N   UNL     1      38.801 -13.476  -3.265  1.00  0.00    -0.336 N 
HETATM   15  C   UNL     1      39.832 -12.980  -1.360  1.00  0.00     0.002 A 
HETATM   16  C   UNL     1      38.801 -14.622  -2.521  1.00  0.00     0.147 A 
HETATM   17  H   UNL     1      38.398 -13.404  -4.187  1.00  0.00     0.168 HD
HETATM   18  C   UNL     1      39.434 -14.358  -1.321  1.00  0.00     0.001 A 
HETATM   19  C   UNL     1      39.679 -15.301  -0.199  1.00  0.00     0.054 C 
HETATM   20  C   UNL     1      40.504 -12.129  -0.459  1.00  0.00     0.029 A 
BRANCH  16  21
HETATM   21  O   UNL     1      38.243 -15.713  -3.024  1.00  0.00    -0.346 OA
HETATM   22  H   UNL     1      38.842 -16.060  -3.708  1.00  0.00     0.219 HD
ENDBRANCH  16  21
ENDBRANCH   8  10
ENDBRANCH   7   8
ENDBRANCH   6   7
ENDBRANCH   1   6
BRANCH   2  23
HETATM   23  C   UNL     1      40.598 -13.472   3.377  1.00  0.00     0.171 C 
BRANCH  23  24
HETATM   24  C   UNL     1      41.453 -14.606   2.858  1.00  0.00    -0.040 A 
HETATM   25  C   UNL     1      41.184 -15.957   3.123  1.00  0.00     0.009 A 
HETATM   26  C   UNL     1      42.025 -16.962   2.638  1.00  0.00     0.001 A 
HETATM   27  C   UNL     1      43.157 -16.630   1.898  1.00  0.00     0.000 A 
HETATM   28  C   UNL     1      43.453 -15.295   1.645  1.00  0.00     0.001 A 
HETATM   29  C   UNL     1      42.610 -14.290   2.124  1.00  0.00     0.009 A 
ENDBRANCH  23  24
ENDBRANCH   2  23
BRANCH   3  30
HETATM   30  C   UNL     1      42.233 -14.092   5.996  1.00  0.00     0.029 A 
HETATM   31  C   UNL     1      41.242 -14.845   6.615  1.00  0.00     0.131 A 
HETATM   32  N   UNL     1      41.445 -16.062   7.178  1.00  0.00    -0.272 NA
HETATM   33  C   UNL     1      42.690 -16.575   7.085  1.00  0.00     0.116 A 
HETATM   34  C   UNL     1      43.742 -15.925   6.462  1.00  0.00     0.020 A 
HETATM   35  C   UNL     1      43.505 -14.668   5.911  1.00  0.00     0.018 A 
ENDBRANCH   3  30
TORSDOF 8
ENDMDL
MODEL 4
REMARK VINA RESULT:      -7.9      3.230      8.611
REMARK  8 active torsions:
REMARK  status: ('A' for Active; 'I' for Inactive)
REMARK    1  A    between atoms: C_3  and  O_4 
REMARK    2  A    between atoms: C_11  and  C_12 
REMARK    3  A    between atoms: C_12  and  C_13 
REMARK    4  A    between atoms: C_13  and  S_14 
REMARK    5  A    between atoms: S_14  and  C_15 
REMARK    6  A    between atoms: N_16  and  C_17 
REMARK    7  A    between atoms: C_17  and  C_18 
REMARK    8  A    between atoms: C_24  and  C_25 
ROOT
HETATM    1  C   UNL     1      41.064 -11.705   1.804  1.00  0.00     0.192 A 
HETATM    2  N   UNL     1      40.152 -11.376   0.834  1.00  0.00    -0.303 N 
HETATM    3  C   UNL     1      40.755 -10.384   0.082  1.00  0.00     0.166 A 
HETATM    4  N   UNL     1      41.963 -10.167   0.577  1.00  0.00    -0.128 NA
HETATM    5  N   UNL     1      42.147 -10.980   1.663  1.00  0.00    -0.122 NA
ENDROOT
BRANCH   1   6
HETATM    6  S   UNL     1      40.807 -12.896   3.030  1.00  0.00    -0.082 SA
BRANCH   6   7
HETATM    7  C   UNL     1      41.316 -14.387   2.125  1.00  0.00     0.166 C 
BRANCH   7   8
HETATM    8  C   UNL     1      42.783 -14.715   2.336  1.00  0.00     0.169 C 
HETATM    9  O   UNL     1      43.706 -14.086   1.820  1.00  0.00    -0.291 OA
BRANCH   8  10
HETATM   10  C   UNL     1      43.116 -15.889   3.206  1.00  0.00     0.011 A 
HETATM   11  C   UNL     1      43.329 -15.759   4.584  1.00  0.00     0.017 A 
HETATM   12  C   UNL     1      43.659 -16.868   5.373  1.00  0.00     0.031 A 
HETATM   13  C   UNL     1      43.761 -18.109   4.740  1.00  0.00     0.045 A 
HETATM   14  N   UNL     1      44.067 -19.345   5.255  1.00  0.00    -0.336 N 
HETATM   15  C   UNL     1      43.542 -18.284   3.374  1.00  0.00     0.002 A 
HETATM   16  C   UNL     1      44.044 -20.295   4.273  1.00  0.00     0.147 A 
HETATM   17  H   UNL     1      44.278 -19.541   6.221  1.00  0.00     0.168 HD
HETATM   18  C   UNL     1      43.721 -19.676   3.080  1.00  0.00     0.001 A 
HETATM   19  C   UNL     1      43.570 -20.308   1.742  1.00  0.00     0.054 C 
HETATM   20  C   UNL     1      43.211 -17.154   2.599  1.00  0.00     0.029 A 
BRANCH  16  21
HETATM   21  O   UNL     1      44.309 -21.553   4.591  1.00  0.00    -0.346 OA
HETATM   22  H   UNL     1      45.277 -21.644   4.645  1.00  0.00     0.219 HD
ENDBRANCH  16  21
ENDBRANCH   8  10
ENDBRANCH   7   8
ENDBRANCH   6   7
ENDBRANCH   1   6
BRANCH   2  23
HETATM   23  C   UNL     1      38.900 -12.056   0.546  1.00  0.00     0.171 C 
BRANCH  23  24
HETATM   24  C   UNL     1      38.891 -12.830  -0.753  1.00  0.00    -0.040 A 
HETATM   25  C   UNL     1      39.949 -13.655  -1.165  1.00  0.00     0.009 A 
HETATM   26  C   UNL     1      39.896 -14.326  -2.389  1.00  0.00     0.001 A 
HETATM   27  C   UNL     1      38.795 -14.168  -3.227  1.00  0.00     0.000 A 
HETATM   28  C   UNL     1      37.748 -13.337  -2.845  1.00  0.00     0.001 A 
HETATM   29  C   UNL     1      37.796 -12.669  -1.620  1.00  0.00     0.009 A 
ENDBRANCH  23  24
ENDBRANCH   2  23
BRANCH   3  30
HETATM   30  C   UNL     1      40.226  -9.725  -1.106  1.00  0.00     0.029 A 
HETATM   31  C   UNL     1      39.386  -8.618  -1.051  1.00  0.00     0.131 A 
HETATM   32  N   UNL     1      38.887  -7.983  -2.141  1.00  0.00    -0.272 NA
HETATM   33  C   UNL     1      39.273  -8.449  -3.347  1.00  0.00     0.116 A 
HETATM   34  C   UNL     1      40.130  -9.523  -3.515  1.00  0.00     0.020 A 
HETATM   35  C   UNL     1      40.611 -10.165  -2.376  1.00  0.00     0.018 A 
ENDBRANCH   3  30
TORSDOF 8
ENDMDL
MODEL 5
REMARK VINA RESULT:      -7.9      3.230      8.157
REMARK  8 active torsions:
REMARK  status: ('A' for Active; 'I' for Inactive)
REMARK    1  A    between atoms: C_3  and  O_4 
REMARK    2  A    between atoms: C_11  and  C_12 
REMARK    3  A    between atoms: C_12  and  C_13 
REMARK    4  A    between atoms: C_13  and  S_14 
REMARK    5  A    between atoms: S_14  and  C_15 
REMARK    6  A    between atoms: N_16  and  C_17 
REMARK    7  A    between atoms: C_17  and  C_18 
REMARK    8  A    between atoms: C_24  and  C_25 
ROOT
HETATM    1  C   UNL     1      40.076 -13.098   2.664  1.00  0.00     0.192 A 
HETATM    2  N   UNL     1      39.939 -12.529   3.903  1.00  0.00    -0.303 N 
HETATM    3  C   UNL     1      39.993 -11.163   3.690  1.00  0.00     0.166 A 
HETATM    4  N   UNL     1      40.129 -10.953   2.391  1.00  0.00    -0.128 NA
HETATM    5  N   UNL     1      40.199 -12.162   1.754  1.00  0.00    -0.122 NA
ENDROOT
BRANCH   1   6
HETATM    6  S   UNL     1      40.090 -14.799   2.360  1.00  0.00    -0.082 SA
BRANCH   6   7
HETATM    7  C   UNL     1      41.532 -14.905   1.260  1.00  0.00     0.166 C 
BRANCH   7   8
HETATM    8  C   UNL     1      42.843 -14.886   2.026  1.00  0.00     0.169 C 
HETATM    9  O   UNL     1      43.631 -13.941   2.009  1.00  0.00    -0.291 OA
BRANCH   8  10
HETATM   10  C   UNL     1      43.200 -16.101   2.826  1.00  0.00     0.011 A 
HETATM   11  C   UNL     1      43.560 -16.025   4.177  1.00  0.00     0.017 A 
HETATM   12  C   UNL     1      43.909 -17.173   4.899  1.00  0.00     0.031 A 
HETATM   13  C   UNL     1      43.880 -18.397   4.226  1.00  0.00     0.045 A 
HETATM   14  N   UNL     1      44.171 -19.663   4.675  1.00  0.00    -0.336 N 
HETATM   15  C   UNL     1      43.513 -18.519   2.887  1.00  0.00     0.002 A 
HETATM   16  C   UNL     1      43.997 -20.580   3.677  1.00  0.00     0.147 A 
HETATM   17  H   UNL     1      44.469 -19.899   5.609  1.00  0.00     0.168 HD
HETATM   18  C   UNL     1      43.587 -19.908   2.541  1.00  0.00     0.001 A 
HETATM   19  C   UNL     1      43.267 -20.490   1.210  1.00  0.00     0.054 C 
HETATM   20  C   UNL     1      43.165 -17.350   2.180  1.00  0.00     0.029 A 
BRANCH  16  21
HETATM   21  O   UNL     1      44.226 -21.859   3.934  1.00  0.00    -0.346 OA
HETATM   22  H   UNL     1      44.744 -22.219   3.192  1.00  0.00     0.219 HD
ENDBRANCH  16  21
ENDBRANCH   8  10
ENDBRANCH   7   8
ENDBRANCH   6   7
ENDBRANCH   1   6
BRANCH   2  23
HETATM   23  C   UNL     1      39.619 -13.210   5.147  1.00  0.00     0.171 C 
BRANCH  23  24
HETATM   24  C   UNL     1      40.819 -13.745   5.896  1.00  0.00    -0.040 A 
HETATM   25  C   UNL     1      40.831 -14.989   6.545  1.00  0.00     0.009 A 
HETATM   26  C   UNL     1      41.961 -15.419   7.245  1.00  0.00     0.001 A 
HETATM   27  C   UNL     1      43.088 -14.606   7.321  1.00  0.00     0.000 A 
HETATM   28  C   UNL     1      43.088 -13.361   6.702  1.00  0.00     0.001 A 
HETATM   29  C   UNL     1      41.961 -12.931   5.999  1.00  0.00     0.009 A 
ENDBRANCH  23  24
ENDBRANCH   2  23
BRANCH   3  30
HETATM   30  C   UNL     1      39.844 -10.104   4.681  1.00  0.00     0.029 A 
HETATM   31  C   UNL     1      38.611  -9.691   5.174  1.00  0.00     0.131 A 
HETATM   32  N   UNL     1      38.446  -8.713   6.100  1.00  0.00    -0.272 NA
HETATM   33  C   UNL     1      39.567  -8.144   6.589  1.00  0.00     0.116 A 
HETATM   34  C   UNL     1      40.844  -8.502   6.193  1.00  0.00     0.020 A 
HETATM   35  C   UNL     1      40.979  -9.496   5.226  1.00  0.00     0.018 A 
ENDBRANCH   3  30
TORSDOF 8
ENDMDL
MODEL 6
REMARK VINA RESULT:      -7.8      2.880      5.470
REMARK  8 active torsions:
REMARK  status: ('A' for Active; 'I' for Inactive)
REMARK    1  A    between atoms: C_3  and  O_4 
REMARK    2  A    between atoms: C_11  and  C_12 
REMARK    3  A    between atoms: C_12  and  C_13 
REMARK    4  A    between atoms: C_13  and  S_14 
REMARK    5  A    between atoms: S_14  and  C_15 
REMARK    6  A    between atoms: N_16  and  C_17 
REMARK    7  A    between atoms: C_17  and  C_18 
REMARK    8  A    between atoms: C_24  and  C_25 
ROOT
HETATM    1  C   UNL     1      43.160 -15.107   5.939  1.00  0.00     0.192 A 
HETATM    2  N   UNL     1      42.763 -16.212   5.233  1.00  0.00    -0.303 N 
HETATM    3  C   UNL     1      43.790 -17.129   5.374  1.00  0.00     0.166 A 
HETATM    4  N   UNL     1      44.722 -16.589   6.142  1.00  0.00    -0.128 NA
HETATM    5  N   UNL     1      44.335 -15.320   6.479  1.00  0.00    -0.122 NA
ENDROOT
BRANCH   1   6
HETATM    6  S   UNL     1      42.241 -13.650   6.082  1.00  0.00    -0.082 SA
BRANCH   6   7
HETATM    7  C   UNL     1      42.941 -12.705   4.696  1.00  0.00     0.166 C 
BRANCH   7   8
HETATM    8  C   UNL     1      43.108 -11.234   5.030  1.00  0.00     0.169 C 
HETATM    9  O   UNL     1      42.791 -10.320   4.270  1.00  0.00    -0.291 OA
BRANCH   8  10
HETATM   10  C   UNL     1      43.719 -10.886   6.353  1.00  0.00     0.011 A 
HETATM   11  C   UNL     1      45.051 -11.187   6.662  1.00  0.00     0.017 A 
HETATM   12  C   UNL     1      45.594 -10.870   7.913  1.00  0.00     0.031 A 
HETATM   13  C   UNL     1      44.762 -10.236   8.840  1.00  0.00     0.045 A 
HETATM   14  N   UNL     1      45.021  -9.817  10.123  1.00  0.00    -0.336 N 
HETATM   15  C   UNL     1      43.436  -9.905   8.568  1.00  0.00     0.002 A 
HETATM   16  C   UNL     1      43.915  -9.228  10.670  1.00  0.00     0.147 A 
HETATM   17  H   UNL     1      45.900  -9.919  10.606  1.00  0.00     0.168 HD
HETATM   18  C   UNL     1      42.900  -9.263   9.733  1.00  0.00     0.001 A 
HETATM   19  C   UNL     1      41.518  -8.733   9.874  1.00  0.00     0.054 C 
HETATM   20  C   UNL     1      42.910 -10.233   7.301  1.00  0.00     0.029 A 
BRANCH  16  21
HETATM   21  O   UNL     1      43.985  -8.757  11.905  1.00  0.00    -0.346 OA
HETATM   22  H   UNL     1      43.518  -9.383  12.486  1.00  0.00     0.219 HD
ENDBRANCH  16  21
ENDBRANCH   8  10
ENDBRANCH   7   8
ENDBRANCH   6   7
ENDBRANCH   1   6
BRANCH   2  23
HETATM   23  C   UNL     1      41.462 -16.440   4.625  1.00  0.00     0.171 C 
BRANCH  23  24
HETATM   24  C   UNL     1      41.330 -15.916   3.213  1.00  0.00    -0.040 A 
HETATM   25  C   UNL     1      42.431 -15.590   2.406  1.00  0.00     0.009 A 
HETATM   26  C   UNL     1      42.247 -15.085   1.116  1.00  0.00     0.001 A 
HETATM   27  C   UNL     1      40.962 -14.880   0.621  1.00  0.00     0.000 A 
HETATM   28  C   UNL     1      39.859 -15.177   1.415  1.00  0.00     0.001 A 
HETATM   29  C   UNL     1      40.041 -15.686   2.702  1.00  0.00     0.009 A 
ENDBRANCH  23  24
ENDBRANCH   2  23
BRANCH   3  30
HETATM   30  C   UNL     1      43.841 -18.490   4.857  1.00  0.00     0.029 A 
HETATM   31  C   UNL     1      43.794 -19.616   5.671  1.00  0.00     0.131 A 
HETATM   32  N   UNL     1      43.833 -20.893   5.215  1.00  0.00    -0.272 NA
HETATM   33  C   UNL     1      43.883 -21.059   3.877  1.00  0.00     0.116 A 
HETATM   34  C   UNL     1      43.901 -20.009   2.974  1.00  0.00     0.020 A 
HETATM   35  C   UNL     1      43.879 -18.710   3.476  1.00  0.00     0.018 A 
ENDBRANCH   3  30
TORSDOF 8
ENDMDL
MODEL 7
REMARK VINA RESULT:      -7.8      5.817      9.608
REMARK  8 active torsions:
REMARK  status: ('A' for Active; 'I' for Inactive)
REMARK    1  A    between atoms: C_3  and  O_4 
REMARK    2  A    between atoms: C_11  and  C_12 
REMARK    3  A    between atoms: C_12  and  C_13 
REMARK    4  A    between atoms: C_13  and  S_14 
REMARK    5  A    between atoms: S_14  and  C_15 
REMARK    6  A    between atoms: N_16  and  C_17 
REMARK    7  A    between atoms: C_17  and  C_18 
REMARK    8  A    between atoms: C_24  and  C_25 
ROOT
HETATM    1  C   UNL     1      44.082 -10.530   8.660  1.00  0.00     0.192 A 
HETATM    2  N   UNL     1      43.137  -9.916   9.440  1.00  0.00    -0.303 N 
HETATM    3  C   UNL     1      43.625  -9.984  10.733  1.00  0.00     0.166 A 
HETATM    4  N   UNL     1      44.803 -10.585  10.698  1.00  0.00    -0.128 NA
HETATM    5  N   UNL     1      45.078 -10.941   9.406  1.00  0.00    -0.122 NA
ENDROOT
BRANCH   1   6
HETATM    6  S   UNL     1      43.962 -10.732   6.948  1.00  0.00    -0.082 SA
BRANCH   6   7
HETATM    7  C   UNL     1      44.290 -12.514   6.822  1.00  0.00     0.166 C 
BRANCH   7   8
HETATM    8  C   UNL     1      43.110 -13.277   6.247  1.00  0.00     0.169 C 
HETATM    9  O   UNL     1      41.990 -12.792   6.097  1.00  0.00    -0.291 OA
BRANCH   8  10
HETATM   10  C   UNL     1      43.327 -14.710   5.866  1.00  0.00     0.011 A 
HETATM   11  C   UNL     1      43.665 -15.689   6.809  1.00  0.00     0.017 A 
HETATM   12  C   UNL     1      43.881 -17.018   6.426  1.00  0.00     0.031 A 
HETATM   13  C   UNL     1      43.743 -17.335   5.072  1.00  0.00     0.045 A 
HETATM   14  N   UNL     1      43.896 -18.536   4.422  1.00  0.00    -0.336 N 
HETATM   15  C   UNL     1      43.393 -16.395   4.104  1.00  0.00     0.002 A 
HETATM   16  C   UNL     1      43.650 -18.395   3.085  1.00  0.00     0.147 A 
HETATM   17  H   UNL     1      44.149 -19.410   4.857  1.00  0.00     0.168 HD
HETATM   18  C   UNL     1      43.334 -17.072   2.842  1.00  0.00     0.001 A 
HETATM   19  C   UNL     1      42.984 -16.448   1.538  1.00  0.00     0.054 C 
HETATM   20  C   UNL     1      43.179 -15.062   4.513  1.00  0.00     0.029 A 
BRANCH  16  21
HETATM   21  O   UNL     1      43.744 -19.457   2.300  1.00  0.00    -0.346 OA
HETATM   22  H   UNL     1      43.061 -20.091   2.580  1.00  0.00     0.219 HD
ENDBRANCH  16  21
ENDBRANCH   8  10
ENDBRANCH   7   8
ENDBRANCH   6   7
ENDBRANCH   1   6
BRANCH   2  23
HETATM   23  C   UNL     1      41.966  -9.186   8.982  1.00  0.00     0.171 C 
BRANCH  23  24
HETATM   24  C   UNL     1      41.898  -7.751   9.454  1.00  0.00    -0.040 A 
HETATM   25  C   UNL     1      42.934  -6.826   9.258  1.00  0.00     0.009 A 
HETATM   26  C   UNL     1      42.826  -5.519   9.740  1.00  0.00     0.001 A 
HETATM   27  C   UNL     1      41.690  -5.123  10.439  1.00  0.00     0.000 A 
HETATM   28  C   UNL     1      40.662  -6.033  10.663  1.00  0.00     0.001 A 
HETATM   29  C   UNL     1      40.766  -7.338  10.178  1.00  0.00     0.009 A 
ENDBRANCH  23  24
ENDBRANCH   2  23
BRANCH   3  30
HETATM   30  C   UNL     1      43.022  -9.431  11.939  1.00  0.00     0.029 A 
HETATM   31  C   UNL     1      41.944 -10.019  12.590  1.00  0.00     0.131 A 
HETATM   32  N   UNL     1      41.370  -9.528  13.717  1.00  0.00    -0.272 NA
HETATM   33  C   UNL     1      41.922  -8.416  14.245  1.00  0.00     0.116 A 
HETATM   34  C   UNL     1      43.016  -7.769  13.698  1.00  0.00     0.020 A 
HETATM   35  C   UNL     1      43.571  -8.288  12.530  1.00  0.00     0.018 A 
ENDBRANCH   3  30
TORSDOF 8
ENDMDL
MODEL 8
REMARK VINA RESULT:      -7.8      2.758      5.777
REMARK  8 active torsions:
REMARK  status: ('A' for Active; 'I' for Inactive)
REMARK    1  A    between atoms: C_3  and  O_4 
REMARK    2  A    between atoms: C_11  and  C_12 
REMARK    3  A    between atoms: C_12  and  C_13 
REMARK    4  A    between atoms: C_13  and  S_14 
REMARK    5  A    between atoms: S_14  and  C_15 
REMARK    6  A    between atoms: N_16  and  C_17 
REMARK    7  A    between atoms: C_17  and  C_18 
REMARK    8  A    between atoms: C_24  and  C_25 
ROOT
HETATM    1  C   UNL     1      42.058 -14.576   2.343  1.00  0.00     0.192 A 
HETATM    2  N   UNL     1      41.986 -15.772   3.010  1.00  0.00    -0.303 N 
HETATM    3  C   UNL     1      42.962 -16.571   2.440  1.00  0.00     0.166 A 
HETATM    4  N   UNL     1      43.581 -15.864   1.509  1.00  0.00    -0.128 NA
HETATM    5  N   UNL     1      43.004 -14.626   1.437  1.00  0.00    -0.122 NA
ENDROOT
BRANCH   1   6
HETATM    6  S   UNL     1      41.040 -13.215   2.656  1.00  0.00    -0.082 SA
BRANCH   6   7
HETATM    7  C   UNL     1      42.302 -11.922   2.850  1.00  0.00     0.166 C 
BRANCH   7   8
HETATM    8  C   UNL     1      42.027 -11.024   4.042  1.00  0.00     0.169 C 
HETATM    9  O   UNL     1      41.028 -10.313   4.147  1.00  0.00    -0.291 OA
BRANCH   8  10
HETATM   10  C   UNL     1      43.047 -10.989   5.138  1.00  0.00     0.011 A 
HETATM   11  C   UNL     1      44.345 -11.487   4.965  1.00  0.00     0.017 A 
HETATM   12  C   UNL     1      45.276 -11.462   6.010  1.00  0.00     0.031 A 
HETATM   13  C   UNL     1      44.867 -10.918   7.231  1.00  0.00     0.045 A 
HETATM   14  N   UNL     1      45.556 -10.769   8.411  1.00  0.00    -0.336 N 
HETATM   15  C   UNL     1      43.591 -10.399   7.441  1.00  0.00     0.002 A 
HETATM   16  C   UNL     1      44.770 -10.171   9.355  1.00  0.00     0.147 A 
HETATM   17  H   UNL     1      46.511 -11.052   8.571  1.00  0.00     0.168 HD
HETATM   18  C   UNL     1      43.532  -9.923   8.793  1.00  0.00     0.001 A 
HETATM   19  C   UNL     1      42.356  -9.279   9.436  1.00  0.00     0.054 C 
HETATM   20  C   UNL     1      42.670 -10.434   6.374  1.00  0.00     0.029 A 
BRANCH  16  21
HETATM   21  O   UNL     1      45.275  -9.940  10.557  1.00  0.00    -0.346 OA
HETATM   22  H   UNL     1      46.222 -10.163  10.525  1.00  0.00     0.219 HD
ENDBRANCH  16  21
ENDBRANCH   8  10
ENDBRANCH   7   8
ENDBRANCH   6   7
ENDBRANCH   1   6
BRANCH   2  23
HETATM   23  C   UNL     1      41.185 -16.070   4.186  1.00  0.00     0.171 C 
BRANCH  23  24
HETATM   24  C   UNL     1      41.859 -15.749   5.501  1.00  0.00    -0.040 A 
HETATM   25  C   UNL     1      42.184 -14.445   5.902  1.00  0.00     0.009 A 
HETATM   26  C   UNL     1      42.831 -14.211   7.118  1.00  0.00     0.001 A 
HETATM   27  C   UNL     1      43.179 -15.278   7.942  1.00  0.00     0.000 A 
HETATM   28  C   UNL     1      42.885 -16.580   7.550  1.00  0.00     0.001 A 
HETATM   29  C   UNL     1      42.234 -16.815   6.337  1.00  0.00     0.009 A 
ENDBRANCH  23  24
ENDBRANCH   2  23
BRANCH   3  30
HETATM   30  C   UNL     1      43.334 -17.927   2.824  1.00  0.00     0.029 A 
HETATM   31  C   UNL     1      44.066 -18.220   3.969  1.00  0.00     0.131 A 
HETATM   32  N   UNL     1      44.419 -19.473   4.352  1.00  0.00    -0.272 NA
HETATM   33  C   UNL     1      43.988 -20.489   3.576  1.00  0.00     0.116 A 
HETATM   34  C   UNL     1      43.226 -20.312   2.434  1.00  0.00     0.020 A 
HETATM   35  C   UNL     1      42.897 -19.012   2.058  1.00  0.00     0.018 A 
ENDBRANCH   3  30
TORSDOF 8
ENDMDL
MODEL 9
REMARK VINA RESULT:      -7.8      1.959      2.733
REMARK  8 active torsions:
REMARK  status: ('A' for Active; 'I' for Inactive)
REMARK    1  A    between atoms: C_3  and  O_4 
REMARK    2  A    between atoms: C_11  and  C_12 
REMARK    3  A    between atoms: C_12  and  C_13 
REMARK    4  A    between atoms: C_13  and  S_14 
REMARK    5  A    between atoms: S_14  and  C_15 
REMARK    6  A    between atoms: N_16  and  C_17 
REMARK    7  A    between atoms: C_17  and  C_18 
REMARK    8  A    between atoms: C_24  and  C_25 
ROOT
HETATM    1  C   UNL     1      43.364 -15.250   6.036  1.00  0.00     0.192 A 
HETATM    2  N   UNL     1      42.913 -16.287   5.261  1.00  0.00    -0.303 N 
HETATM    3  C   UNL     1      43.928 -17.227   5.276  1.00  0.00     0.166 A 
HETATM    4  N   UNL     1      44.905 -16.767   6.040  1.00  0.00    -0.128 NA
HETATM    5  N   UNL     1      44.558 -15.525   6.499  1.00  0.00    -0.122 NA
ENDROOT
BRANCH   1   6
HETATM    6  S   UNL     1      42.480 -13.797   6.343  1.00  0.00    -0.082 SA
BRANCH   6   7
HETATM    7  C   UNL     1      43.770 -12.568   5.984  1.00  0.00     0.166 C 
BRANCH   7   8
HETATM    8  C   UNL     1      43.477 -11.780   4.720  1.00  0.00     0.169 C 
HETATM    9  O   UNL     1      44.341 -11.425   3.920  1.00  0.00    -0.291 OA
BRANCH   8  10
HETATM   10  C   UNL     1      42.054 -11.396   4.453  1.00  0.00     0.011 A 
HETATM   11  C   UNL     1      41.314 -11.957   3.404  1.00  0.00     0.017 A 
HETATM   12  C   UNL     1      39.991 -11.568   3.162  1.00  0.00     0.031 A 
HETATM   13  C   UNL     1      39.433 -10.605   4.006  1.00  0.00     0.045 A 
HETATM   14  N   UNL     1      38.179 -10.041   4.002  1.00  0.00    -0.336 N 
HETATM   15  C   UNL     1      40.128 -10.032   5.069  1.00  0.00     0.002 A 
HETATM   16  C   UNL     1      38.052  -9.142   5.023  1.00  0.00     0.147 A 
HETATM   17  H   UNL     1      37.443 -10.255   3.346  1.00  0.00     0.168 HD
HETATM   18  C   UNL     1      39.248  -9.103   5.715  1.00  0.00     0.001 A 
HETATM   19  C   UNL     1      39.578  -8.278   6.908  1.00  0.00     0.054 C 
HETATM   20  C   UNL     1      41.459 -10.440   5.295  1.00  0.00     0.029 A 
BRANCH  16  21
HETATM   21  O   UNL     1      36.902  -8.504   5.176  1.00  0.00    -0.346 OA
HETATM   22  H   UNL     1      36.247  -8.939   4.602  1.00  0.00     0.219 HD
ENDBRANCH  16  21
ENDBRANCH   8  10
ENDBRANCH   7   8
ENDBRANCH   6   7
ENDBRANCH   1   6
BRANCH   2  23
HETATM   23  C   UNL     1      41.581 -16.444   4.700  1.00  0.00     0.171 C 
BRANCH  23  24
HETATM   24  C   UNL     1      41.416 -15.875   3.309  1.00  0.00    -0.040 A 
HETATM   25  C   UNL     1      42.491 -15.426   2.527  1.00  0.00     0.009 A 
HETATM   26  C   UNL     1      42.275 -14.885   1.257  1.00  0.00     0.001 A 
HETATM   27  C   UNL     1      40.981 -14.767   0.758  1.00  0.00     0.000 A 
HETATM   28  C   UNL     1      39.900 -15.185   1.528  1.00  0.00     0.001 A 
HETATM   29  C   UNL     1      40.115 -15.731   2.795  1.00  0.00     0.009 A 
ENDBRANCH  23  24
ENDBRANCH   2  23
BRANCH   3  30
HETATM   30  C   UNL     1      43.929 -18.541   4.646  1.00  0.00     0.029 A 
HETATM   31  C   UNL     1      43.913 -19.730   5.366  1.00  0.00     0.131 A 
HETATM   32  N   UNL     1      43.906 -20.965   4.804  1.00  0.00    -0.272 NA
HETATM   33  C   UNL     1      43.876 -21.020   3.456  1.00  0.00     0.116 A 
HETATM   34  C   UNL     1      43.857 -19.899   2.644  1.00  0.00     0.020 A 
HETATM   35  C   UNL     1      43.883 -18.646   3.252  1.00  0.00     0.018 A 
ENDBRANCH   3  30
TORSDOF 8
ENDMDL
MODEL 10
REMARK VINA RESULT:      -7.8      4.476      7.367
REMARK  8 active torsions:
REMARK  status: ('A' for Active; 'I' for Inactive)
REMARK    1  A    between atoms: C_3  and  O_4 
REMARK    2  A    between atoms: C_11  and  C_12 
REMARK    3  A    between atoms: C_12  and  C_13 
REMARK    4  A    between atoms: C_13  and  S_14 
REMARK    5  A    between atoms: S_14  and  C_15 
REMARK    6  A    between atoms: N_16  and  C_17 
REMARK    7  A    between atoms: C_17  and  C_18 
REMARK    8  A    between atoms: C_24  and  C_25 
ROOT
HETATM    1  C   UNL     1      43.998 -11.719   5.797  1.00  0.00     0.192 A 
HETATM    2  N   UNL     1      43.092 -12.579   5.233  1.00  0.00    -0.303 N 
HETATM    3  C   UNL     1      43.245 -12.431   3.866  1.00  0.00     0.166 A 
HETATM    4  N   UNL     1      44.206 -11.548   3.652  1.00  0.00    -0.128 NA
HETATM    5  N   UNL     1      44.662 -11.091   4.859  1.00  0.00    -0.122 NA
ENDROOT
BRANCH   1   6
HETATM    6  S   UNL     1      44.215 -11.499   7.498  1.00  0.00    -0.082 SA
BRANCH   6   7
HETATM    7  C   UNL     1      45.343 -10.074   7.484  1.00  0.00     0.166 C 
BRANCH   7   8
HETATM    8  C   UNL     1      44.901  -8.982   8.441  1.00  0.00     0.169 C 
HETATM    9  O   UNL     1      45.255  -7.807   8.349  1.00  0.00    -0.291 OA
BRANCH   8  10
HETATM   10  C   UNL     1      44.003  -9.371   9.575  1.00  0.00     0.011 A 
HETATM   11  C   UNL     1      44.483 -10.026  10.716  1.00  0.00     0.017 A 
HETATM   12  C   UNL     1      43.621 -10.398  11.755  1.00  0.00     0.031 A 
HETATM   13  C   UNL     1      42.265 -10.088  11.616  1.00  0.00     0.045 A 
HETATM   14  N   UNL     1      41.209 -10.331  12.460  1.00  0.00    -0.336 N 
HETATM   15  C   UNL     1      41.749  -9.424  10.505  1.00  0.00     0.002 A 
HETATM   16  C   UNL     1      40.048  -9.842  11.932  1.00  0.00     0.147 A 
HETATM   17  H   UNL     1      41.267 -10.799  13.352  1.00  0.00     0.168 HD
HETATM   18  C   UNL     1      40.338  -9.268  10.709  1.00  0.00     0.001 A 
HETATM   19  C   UNL     1      39.394  -8.600   9.773  1.00  0.00     0.054 C 
HETATM   20  C   UNL     1      42.636  -9.059   9.471  1.00  0.00     0.029 A 
BRANCH  16  21
HETATM   21  O   UNL     1      38.923  -9.981  12.617  1.00  0.00    -0.346 OA
HETATM   22  H   UNL     1      38.253 -10.344  12.011  1.00  0.00     0.219 HD
ENDBRANCH  16  21
ENDBRANCH   8  10
ENDBRANCH   7   8
ENDBRANCH   6   7
ENDBRANCH   1   6
BRANCH   2  23
HETATM   23  C   UNL     1      42.281 -13.569   5.922  1.00  0.00     0.171 C 
BRANCH  23  24
HETATM   24  C   UNL     1      42.828 -14.977   5.867  1.00  0.00    -0.040 A 
HETATM   25  C   UNL     1      42.187 -16.028   5.194  1.00  0.00     0.009 A 
HETATM   26  C   UNL     1      42.727 -17.317   5.201  1.00  0.00     0.001 A 
HETATM   27  C   UNL     1      43.906 -17.578   5.894  1.00  0.00     0.000 A 
HETATM   28  C   UNL     1      44.544 -16.554   6.585  1.00  0.00     0.001 A 
HETATM   29  C   UNL     1      44.008 -15.264   6.576  1.00  0.00     0.009 A 
ENDBRANCH  23  24
ENDBRANCH   2  23
BRANCH   3  30
HETATM   30  C   UNL     1      42.551 -13.160   2.811  1.00  0.00     0.029 A 
HETATM   31  C   UNL     1      41.345 -12.739   2.262  1.00  0.00     0.131 A 
HETATM   32  N   UNL     1      40.684 -13.395   1.276  1.00  0.00    -0.272 NA
HETATM   33  C   UNL     1      41.272 -14.505   0.784  1.00  0.00     0.116 A 
HETATM   34  C   UNL     1      42.486 -14.993   1.234  1.00  0.00     0.020 A 
HETATM   35  C   UNL     1      43.131 -14.307   2.261  1.00  0.00     0.018 A 
ENDBRANCH   3  30
TORSDOF 8
ENDMDL
