MODEL 1
REMARK VINA RESULT:      -9.1      0.000      0.000
REMARK  8 active torsions:
REMARK  status: ('A' for Active; 'I' for Inactive)
REMARK    1  A    between atoms: O_2  and  C_3 
REMARK    2  A    between atoms: C_6  and  C_7 
REMARK    3  A    between atoms: C_7  and  C_8 
REMARK    4  A    between atoms: C_8  and  C_9 
REMARK    5  A    between atoms: C_11  and  N_12 
REMARK       I    between atoms: N_12  and  C_13 
REMARK    6  A    between atoms: C_13  and  C_14 
REMARK    7  A    between atoms: C_18  and  C_19 
REMARK    8  A    between atoms: C_22  and  O_23 
ROOT
HETATM    1  N   UNL     1      44.405 -11.839   6.896  1.00  0.00    -0.149 N 
HETATM    2  C   UNL     1      43.191 -11.814   6.259  1.00  0.00     0.290 C 
HETATM    3  O   UNL     1      42.293 -10.990   6.400  1.00  0.00    -0.265 OA
HETATM    4  H   UNL     1      45.038 -12.597   6.684  1.00  0.00     0.188 HD
ENDROOT
BRANCH   1   5
HETATM    5  C   UNL     1      44.819 -10.934   7.824  1.00  0.00     0.747 A 
HETATM    6  N   UNL     1      44.197 -10.907   9.047  1.00  0.00    -0.046 NA
HETATM    7  C   UNL     1      44.818  -9.941   9.692  1.00  0.00     0.140 A 
HETATM    8  N   UNL     1      45.782  -9.425   8.876  1.00  0.00    -0.248 N 
HETATM    9  N   UNL     1      45.787 -10.030   7.688  1.00  0.00     0.020 NA
HETATM   10  H   UNL     1      46.445  -8.677   9.053  1.00  0.00     0.191 HD
BRANCH   7  11
HETATM   11  C   UNL     1      44.596  -9.443  11.076  1.00  0.00     0.085 C 
BRANCH  11  12
HETATM   12  C   UNL     1      43.200  -9.808  11.590  1.00  0.00     0.046 C 
BRANCH  12  13
HETATM   13  C   UNL     1      42.803  -8.987  12.793  1.00  0.00    -0.058 A 
HETATM   14  C   UNL     1      41.751  -9.407  13.618  1.00  0.00     0.010 A 
HETATM   15  C   UNL     1      41.376  -8.658  14.739  1.00  0.00     0.037 A 
HETATM   16  C   UNL     1      42.050  -7.480  15.050  1.00  0.00     0.068 A 
HETATM   17  C   UNL     1      43.088  -7.049  14.220  1.00  0.00     0.037 A 
HETATM   18  C   UNL     1      43.464  -7.794  13.098  1.00  0.00     0.010 A 
BRANCH  16  19
HETATM   19  O   UNL     1      41.791  -6.665  16.118  1.00  0.00    -0.356 OA
HETATM   20  C   UNL     1      41.324  -7.294  17.305  1.00  0.00     0.210 C 
ENDBRANCH  16  19
ENDBRANCH  12  13
ENDBRANCH  11  12
ENDBRANCH   7  11
ENDBRANCH   1   5
BRANCH   2  21
HETATM   21  C   UNL     1      43.019 -12.952   5.338  1.00  0.00     0.147 A 
HETATM   22  N   UNL     1      42.478 -12.832   4.109  1.00  0.00    -0.169 NA
HETATM   23  N   UNL     1      42.531 -14.084   3.611  1.00  0.00    -0.277 N 
HETATM   24  H   UNL     1      42.190 -14.239   2.668  1.00  0.00     0.189 HD
HETATM   25  C   UNL     1      43.096 -15.007   4.452  1.00  0.00     0.063 A 
HETATM   26  C   UNL     1      43.407 -14.293   5.590  1.00  0.00     0.071 A 
BRANCH  25  27
HETATM   27  C   UNL     1      43.326 -16.410   4.113  1.00  0.00    -0.008 A 
HETATM   28  C   UNL     1      42.865 -16.912   2.890  1.00  0.00     0.016 A 
HETATM   29  C   UNL     1      43.074 -18.249   2.543  1.00  0.00     0.037 A 
HETATM   30  C   UNL     1      43.751 -19.110   3.406  1.00  0.00     0.068 A 
HETATM   31  C   UNL     1      44.218 -18.619   4.625  1.00  0.00     0.037 A 
HETATM   32  C   UNL     1      44.006 -17.277   4.976  1.00  0.00     0.016 A 
BRANCH  30  33
HETATM   33  O   UNL     1      43.887 -20.388   2.942  1.00  0.00    -0.356 OA
HETATM   34  C   UNL     1      43.669 -20.599   1.553  1.00  0.00     0.210 C 
ENDBRANCH  30  33
ENDBRANCH  25  27
ENDBRANCH   2  21
TORSDOF 8
ENDMDL
MODEL 2
REMARK VINA RESULT:      -9.0      1.326     11.838
REMARK  8 active torsions:
REMARK  status: ('A' for Active; 'I' for Inactive)
REMARK    1  A    between atoms: O_2  and  C_3 
REMARK    2  A    between atoms: C_6  and  C_7 
REMARK    3  A    between atoms: C_7  and  C_8 
REMARK    4  A    between atoms: C_8  and  C_9 
REMARK    5  A    between atoms: C_11  and  N_12 
REMARK       I    between atoms: N_12  and  C_13 
REMARK    6  A    between atoms: C_13  and  C_14 
REMARK    7  A    between atoms: C_18  and  C_19 
REMARK    8  A    between atoms: C_22  and  O_23 
ROOT
HETATM    1  N   UNL     1      42.923 -11.324   7.278  1.00  0.00    -0.149 N 
HETATM    2  C   UNL     1      44.214 -11.059   7.656  1.00  0.00     0.290 C 
HETATM    3  O   UNL     1      45.231 -11.197   6.983  1.00  0.00    -0.265 OA
HETATM    4  H   UNL     1      42.189 -11.174   7.955  1.00  0.00     0.188 HD
ENDROOT
BRANCH   1   5
HETATM    5  C   UNL     1      42.549 -11.807   6.061  1.00  0.00     0.747 A 
HETATM    6  N   UNL     1      42.411 -13.163   5.901  1.00  0.00    -0.046 NA
HETATM    7  C   UNL     1      42.052 -13.293   4.640  1.00  0.00     0.140 A 
HETATM    8  N   UNL     1      41.971 -12.050   4.082  1.00  0.00    -0.248 N 
HETATM    9  N   UNL     1      42.296 -11.102   4.961  1.00  0.00     0.020 NA
HETATM   10  H   UNL     1      41.718 -11.784   3.137  1.00  0.00     0.191 HD
BRANCH   7  11
HETATM   11  C   UNL     1      41.742 -14.531   3.876  1.00  0.00     0.085 C 
BRANCH  11  12
HETATM   12  C   UNL     1      42.946 -15.001   3.052  1.00  0.00     0.046 C 
BRANCH  12  13
HETATM   13  C   UNL     1      43.239 -16.467   3.258  1.00  0.00    -0.058 A 
HETATM   14  C   UNL     1      43.036 -17.381   2.214  1.00  0.00     0.010 A 
HETATM   15  C   UNL     1      43.309 -18.742   2.389  1.00  0.00     0.037 A 
HETATM   16  C   UNL     1      43.792 -19.207   3.610  1.00  0.00     0.068 A 
HETATM   17  C   UNL     1      43.979 -18.302   4.657  1.00  0.00     0.037 A 
HETATM   18  C   UNL     1      43.706 -16.942   4.487  1.00  0.00     0.010 A 
BRANCH  16  19
HETATM   19  O   UNL     1      44.107 -20.504   3.906  1.00  0.00    -0.356 OA
HETATM   20  C   UNL     1      44.272 -20.825   5.282  1.00  0.00     0.210 C 
ENDBRANCH  16  19
ENDBRANCH  12  13
ENDBRANCH  11  12
ENDBRANCH   7  11
ENDBRANCH   1   5
BRANCH   2  21
HETATM   21  C   UNL     1      44.302 -10.583   9.048  1.00  0.00     0.147 A 
HETATM   22  N   UNL     1      45.462 -10.509   9.732  1.00  0.00    -0.169 NA
HETATM   23  N   UNL     1      45.097 -10.013  10.931  1.00  0.00    -0.277 N 
HETATM   24  H   UNL     1      45.822  -9.848  11.622  1.00  0.00     0.189 HD
HETATM   25  C   UNL     1      43.758  -9.746  11.053  1.00  0.00     0.063 A 
HETATM   26  C   UNL     1      43.219 -10.124   9.841  1.00  0.00     0.071 A 
BRANCH  25  27
HETATM   27  C   UNL     1      43.134  -9.141  12.228  1.00  0.00    -0.008 A 
HETATM   28  C   UNL     1      42.050  -9.780  12.843  1.00  0.00     0.016 A 
HETATM   29  C   UNL     1      41.438  -9.222  13.968  1.00  0.00     0.037 A 
HETATM   30  C   UNL     1      41.897  -8.020  14.505  1.00  0.00     0.068 A 
HETATM   31  C   UNL     1      42.978  -7.377  13.903  1.00  0.00     0.037 A 
HETATM   32  C   UNL     1      43.593  -7.935  12.770  1.00  0.00     0.016 A 
BRANCH  30  33
HETATM   33  O   UNL     1      41.210  -7.589  15.605  1.00  0.00    -0.356 OA
HETATM   34  C   UNL     1      40.140  -6.680  15.384  1.00  0.00     0.210 C 
ENDBRANCH  30  33
ENDBRANCH  25  27
ENDBRANCH   2  21
TORSDOF 8
ENDMDL
MODEL 3
REMARK VINA RESULT:      -8.8      1.389     11.786
REMARK  8 active torsions:
REMARK  status: ('A' for Active; 'I' for Inactive)
REMARK    1  A    between atoms: O_2  and  C_3 
REMARK    2  A    between atoms: C_6  and  C_7 
REMARK    3  A    between atoms: C_7  and  C_8 
REMARK    4  A    between atoms: C_8  and  C_9 
REMARK    5  A    between atoms: C_11  and  N_12 
REMARK       I    between atoms: N_12  and  C_13 
REMARK    6  A    between atoms: C_13  and  C_14 
REMARK    7  A    between atoms: C_18  and  C_19 
REMARK    8  A    between atoms: C_22  and  O_23 
ROOT
HETATM    1  N   UNL     1      42.524 -11.216   7.229  1.00  0.00    -0.149 N 
HETATM    2  C   UNL     1      43.837 -10.975   7.544  1.00  0.00     0.290 C 
HETATM    3  O   UNL     1      44.813 -11.092   6.810  1.00  0.00    -0.265 OA
HETATM    4  H   UNL     1      41.830 -11.089   7.951  1.00  0.00     0.188 HD
ENDROOT
BRANCH   1   5
HETATM    5  C   UNL     1      42.079 -11.649   6.017  1.00  0.00     0.747 A 
HETATM    6  N   UNL     1      42.256 -12.967   5.678  1.00  0.00    -0.046 NA
HETATM    7  C   UNL     1      41.730 -13.052   4.473  1.00  0.00     0.140 A 
HETATM    8  N   UNL     1      41.248 -11.824   4.122  1.00  0.00    -0.248 N 
HETATM    9  N   UNL     1      41.473 -10.924   5.079  1.00  0.00     0.020 NA
HETATM   10  H   UNL     1      40.779 -11.535   3.271  1.00  0.00     0.191 HD
BRANCH   7  11
HETATM   11  C   UNL     1      41.611 -14.238   3.584  1.00  0.00     0.085 C 
BRANCH  11  12
HETATM   12  C   UNL     1      42.971 -14.655   3.014  1.00  0.00     0.046 C 
BRANCH  12  13
HETATM   13  C   UNL     1      43.287 -16.104   3.297  1.00  0.00    -0.058 A 
HETATM   14  C   UNL     1      43.690 -16.501   4.579  1.00  0.00     0.010 A 
HETATM   15  C   UNL     1      43.980 -17.841   4.857  1.00  0.00     0.037 A 
HETATM   16  C   UNL     1      43.869 -18.803   3.855  1.00  0.00     0.068 A 
HETATM   17  C   UNL     1      43.483 -18.408   2.571  1.00  0.00     0.037 A 
HETATM   18  C   UNL     1      43.194 -17.069   2.290  1.00  0.00     0.010 A 
BRANCH  16  19
HETATM   19  O   UNL     1      44.111 -20.141   3.997  1.00  0.00    -0.356 OA
HETATM   20  C   UNL     1      44.162 -20.646   5.325  1.00  0.00     0.210 C 
ENDBRANCH  16  19
ENDBRANCH  12  13
ENDBRANCH  11  12
ENDBRANCH   7  11
ENDBRANCH   1   5
BRANCH   2  21
HETATM   21  C   UNL     1      44.006 -10.555   8.947  1.00  0.00     0.147 A 
HETATM   22  N   UNL     1      45.193 -10.574   9.585  1.00  0.00    -0.169 NA
HETATM   23  N   UNL     1      44.905 -10.101  10.815  1.00  0.00    -0.277 N 
HETATM   24  H   UNL     1      45.664 -10.003  11.481  1.00  0.00     0.189 HD
HETATM   25  C   UNL     1      43.590  -9.761  10.999  1.00  0.00     0.063 A 
HETATM   26  C   UNL     1      42.983 -10.064   9.798  1.00  0.00     0.071 A 
BRANCH  25  27
HETATM   27  C   UNL     1      43.048  -9.164  12.218  1.00  0.00    -0.008 A 
HETATM   28  C   UNL     1      43.613  -7.987  12.724  1.00  0.00     0.016 A 
HETATM   29  C   UNL     1      43.112  -7.397  13.887  1.00  0.00     0.037 A 
HETATM   30  C   UNL     1      42.035  -7.966  14.566  1.00  0.00     0.068 A 
HETATM   31  C   UNL     1      41.462  -9.136  14.068  1.00  0.00     0.037 A 
HETATM   32  C   UNL     1      41.966  -9.732  12.902  1.00  0.00     0.016 A 
BRANCH  30  33
HETATM   33  O   UNL     1      41.646  -7.286  15.685  1.00  0.00    -0.356 OA
HETATM   34  C   UNL     1      41.296  -5.918  15.523  1.00  0.00     0.210 C 
ENDBRANCH  30  33
ENDBRANCH  25  27
ENDBRANCH   2  21
TORSDOF 8
ENDMDL
MODEL 4
REMARK VINA RESULT:      -8.2      1.905     11.727
REMARK  8 active torsions:
REMARK  status: ('A' for Active; 'I' for Inactive)
REMARK    1  A    between atoms: O_2  and  C_3 
REMARK    2  A    between atoms: C_6  and  C_7 
REMARK    3  A    between atoms: C_7  and  C_8 
REMARK    4  A    between atoms: C_8  and  C_9 
REMARK    5  A    between atoms: C_11  and  N_12 
REMARK       I    between atoms: N_12  and  C_13 
REMARK    6  A    between atoms: C_13  and  C_14 
REMARK    7  A    between atoms: C_18  and  C_19 
REMARK    8  A    between atoms: C_22  and  O_23 
ROOT
HETATM    1  N   UNL     1      41.457 -12.115   5.893  1.00  0.00    -0.149 N 
HETATM    2  C   UNL     1      41.983 -10.863   5.701  1.00  0.00     0.290 C 
HETATM    3  O   UNL     1      41.973 -10.201   4.668  1.00  0.00    -0.265 OA
HETATM    4  H   UNL     1      41.559 -12.540   6.803  1.00  0.00     0.188 HD
ENDROOT
BRANCH   1   5
HETATM    5  C   UNL     1      40.830 -12.853   4.936  1.00  0.00     0.747 A 
HETATM    6  N   UNL     1      41.489 -13.925   4.386  1.00  0.00    -0.046 NA
HETATM    7  C   UNL     1      40.627 -14.407   3.515  1.00  0.00     0.140 A 
HETATM    8  N   UNL     1      39.493 -13.649   3.561  1.00  0.00    -0.248 N 
HETATM    9  N   UNL     1      39.609 -12.655   4.442  1.00  0.00     0.020 NA
HETATM   10  H   UNL     1      38.633 -13.743   3.031  1.00  0.00     0.191 HD
BRANCH   7  11
HETATM   11  C   UNL     1      40.763 -15.582   2.613  1.00  0.00     0.085 C 
BRANCH  11  12
HETATM   12  C   UNL     1      42.209 -15.763   2.137  1.00  0.00     0.046 C 
BRANCH  12  13
HETATM   13  C   UNL     1      42.898 -16.911   2.834  1.00  0.00    -0.058 A 
HETATM   14  C   UNL     1      43.488 -16.721   4.091  1.00  0.00     0.010 A 
HETATM   15  C   UNL     1      44.126 -17.777   4.751  1.00  0.00     0.037 A 
HETATM   16  C   UNL     1      44.180 -19.038   4.163  1.00  0.00     0.068 A 
HETATM   17  C   UNL     1      43.607 -19.227   2.903  1.00  0.00     0.037 A 
HETATM   18  C   UNL     1      42.971 -18.174   2.240  1.00  0.00     0.010 A 
BRANCH  16  19
HETATM   19  O   UNL     1      44.760 -20.152   4.705  1.00  0.00    -0.356 OA
HETATM   20  C   UNL     1      43.896 -21.066   5.369  1.00  0.00     0.210 C 
ENDBRANCH  16  19
ENDBRANCH  12  13
ENDBRANCH  11  12
ENDBRANCH   7  11
ENDBRANCH   1   5
BRANCH   2  21
HETATM   21  C   UNL     1      42.634 -10.340   6.916  1.00  0.00     0.147 A 
HETATM   22  N   UNL     1      43.963 -10.412   7.131  1.00  0.00    -0.169 NA
HETATM   23  N   UNL     1      44.129  -9.808   8.324  1.00  0.00    -0.277 N 
HETATM   24  H   UNL     1      45.071  -9.724   8.692  1.00  0.00     0.189 HD
HETATM   25  C   UNL     1      42.973  -9.332   8.887  1.00  0.00     0.063 A 
HETATM   26  C   UNL     1      41.984  -9.682   7.991  1.00  0.00     0.071 A 
BRANCH  25  27
HETATM   27  C   UNL     1      42.904  -8.583  10.140  1.00  0.00    -0.008 A 
HETATM   28  C   UNL     1      42.441  -7.262  10.133  1.00  0.00     0.016 A 
HETATM   29  C   UNL     1      42.365  -6.526  11.318  1.00  0.00     0.037 A 
HETATM   30  C   UNL     1      42.745  -7.094  12.533  1.00  0.00     0.068 A 
HETATM   31  C   UNL     1      43.205  -8.410  12.552  1.00  0.00     0.037 A 
HETATM   32  C   UNL     1      43.284  -9.150  11.362  1.00  0.00     0.016 A 
BRANCH  30  33
HETATM   33  O   UNL     1      42.619  -6.265  13.612  1.00  0.00    -0.356 OA
HETATM   34  C   UNL     1      42.123  -6.838  14.814  1.00  0.00     0.210 C 
ENDBRANCH  30  33
ENDBRANCH  25  27
ENDBRANCH   2  21
TORSDOF 8
ENDMDL
MODEL 5
REMARK VINA RESULT:      -8.2      2.027      2.365
REMARK  8 active torsions:
REMARK  status: ('A' for Active; 'I' for Inactive)
REMARK    1  A    between atoms: O_2  and  C_3 
REMARK    2  A    between atoms: C_6  and  C_7 
REMARK    3  A    between atoms: C_7  and  C_8 
REMARK    4  A    between atoms: C_8  and  C_9 
REMARK    5  A    between atoms: C_11  and  N_12 
REMARK       I    between atoms: N_12  and  C_13 
REMARK    6  A    between atoms: C_13  and  C_14 
REMARK    7  A    between atoms: C_18  and  C_19 
REMARK    8  A    between atoms: C_22  and  O_23 
ROOT
HETATM    1  N   UNL     1      41.482 -10.995   6.638  1.00  0.00    -0.149 N 
HETATM    2  C   UNL     1      40.303 -11.666   6.443  1.00  0.00     0.290 C 
HETATM    3  O   UNL     1      39.215 -11.426   6.957  1.00  0.00    -0.265 OA
HETATM    4  H   UNL     1      42.304 -11.324   6.152  1.00  0.00     0.188 HD
ENDROOT
BRANCH   1   5
HETATM    5  C   UNL     1      41.645  -9.928   7.469  1.00  0.00     0.747 A 
HETATM    6  N   UNL     1      42.777  -9.855   8.241  1.00  0.00    -0.046 NA
HETATM    7  C   UNL     1      42.625  -8.732   8.912  1.00  0.00     0.140 A 
HETATM    8  N   UNL     1      41.445  -8.158   8.537  1.00  0.00    -0.248 N 
HETATM    9  N   UNL     1      40.807  -8.907   7.637  1.00  0.00     0.020 NA
HETATM   10  H   UNL     1      41.022  -7.291   8.849  1.00  0.00     0.191 HD
BRANCH   7  11
HETATM   11  C   UNL     1      43.535  -8.104   9.907  1.00  0.00     0.085 C 
BRANCH  11  12
HETATM   12  C   UNL     1      43.901  -9.078  11.032  1.00  0.00     0.046 C 
BRANCH  12  13
HETATM   13  C   UNL     1      43.203  -8.741  12.327  1.00  0.00    -0.058 A 
HETATM   14  C   UNL     1      42.151  -9.543  12.791  1.00  0.00     0.010 A 
HETATM   15  C   UNL     1      41.499  -9.246  13.993  1.00  0.00     0.037 A 
HETATM   16  C   UNL     1      41.892  -8.144  14.748  1.00  0.00     0.068 A 
HETATM   17  C   UNL     1      42.929  -7.332  14.280  1.00  0.00     0.037 A 
HETATM   18  C   UNL     1      43.581  -7.625  13.078  1.00  0.00     0.010 A 
BRANCH  16  19
HETATM   19  O   UNL     1      41.348  -7.751  15.940  1.00  0.00    -0.356 OA
HETATM   20  C   UNL     1      40.299  -6.792  15.881  1.00  0.00     0.210 C 
ENDBRANCH  16  19
ENDBRANCH  12  13
ENDBRANCH  11  12
ENDBRANCH   7  11
ENDBRANCH   1   5
BRANCH   2  21
HETATM   21  C   UNL     1      40.454 -12.802   5.515  1.00  0.00     0.147 A 
HETATM   22  N   UNL     1      39.593 -13.054   4.510  1.00  0.00    -0.169 NA
HETATM   23  N   UNL     1      40.107 -14.147   3.912  1.00  0.00    -0.277 N 
HETATM   24  H   UNL     1      39.628 -14.518   3.097  1.00  0.00     0.189 HD
HETATM   25  C   UNL     1      41.271 -14.607   4.472  1.00  0.00     0.063 A 
HETATM   26  C   UNL     1      41.506 -13.753   5.529  1.00  0.00     0.071 A 
BRANCH  25  27
HETATM   27  C   UNL     1      42.051 -15.732   3.961  1.00  0.00    -0.008 A 
HETATM   28  C   UNL     1      42.652 -16.623   4.859  1.00  0.00     0.016 A 
HETATM   29  C   UNL     1      43.403 -17.706   4.395  1.00  0.00     0.037 A 
HETATM   30  C   UNL     1      43.564 -17.926   3.027  1.00  0.00     0.068 A 
HETATM   31  C   UNL     1      42.966 -17.047   2.124  1.00  0.00     0.037 A 
HETATM   32  C   UNL     1      42.214 -15.956   2.589  1.00  0.00     0.016 A 
BRANCH  30  33
HETATM   33  O   UNL     1      44.318 -19.021   2.713  1.00  0.00    -0.356 OA
HETATM   34  C   UNL     1      43.621 -20.222   2.410  1.00  0.00     0.210 C 
ENDBRANCH  30  33
ENDBRANCH  25  27
ENDBRANCH   2  21
TORSDOF 8
ENDMDL
MODEL 6
REMARK VINA RESULT:      -8.1      1.678      2.069
REMARK  8 active torsions:
REMARK  status: ('A' for Active; 'I' for Inactive)
REMARK    1  A    between atoms: O_2  and  C_3 
REMARK    2  A    between atoms: C_6  and  C_7 
REMARK    3  A    between atoms: C_7  and  C_8 
REMARK    4  A    between atoms: C_8  and  C_9 
REMARK    5  A    between atoms: C_11  and  N_12 
REMARK       I    between atoms: N_12  and  C_13 
REMARK    6  A    between atoms: C_13  and  C_14 
REMARK    7  A    between atoms: C_18  and  C_19 
REMARK    8  A    between atoms: C_22  and  O_23 
ROOT
HETATM    1  N   UNL     1      43.796 -11.562   7.044  1.00  0.00    -0.149 N 
HETATM    2  C   UNL     1      42.742 -11.445   6.174  1.00  0.00     0.290 C 
HETATM    3  O   UNL     1      41.872 -10.580   6.170  1.00  0.00    -0.265 OA
HETATM    4  H   UNL     1      44.424 -12.344   6.927  1.00  0.00     0.188 HD
ENDROOT
BRANCH   1   5
HETATM    5  C   UNL     1      44.047 -10.720   8.083  1.00  0.00     0.747 A 
HETATM    6  N   UNL     1      43.705 -11.112   9.353  1.00  0.00    -0.046 NA
HETATM    7  C   UNL     1      44.072 -10.094  10.103  1.00  0.00     0.140 A 
HETATM    8  N   UNL     1      44.622  -9.138   9.299  1.00  0.00    -0.248 N 
HETATM    9  N   UNL     1      44.602  -9.510   8.019  1.00  0.00     0.020 NA
HETATM   10  H   UNL     1      45.011  -8.234   9.545  1.00  0.00     0.191 HD
BRANCH   7  11
HETATM   11  C   UNL     1      43.968  -9.930  11.578  1.00  0.00     0.085 C 
BRANCH  11  12
HETATM   12  C   UNL     1      43.645  -8.483  11.964  1.00  0.00     0.046 C 
BRANCH  12  13
HETATM   13  C   UNL     1      42.181  -8.290  12.277  1.00  0.00    -0.058 A 
HETATM   14  C   UNL     1      41.393  -9.381  12.666  1.00  0.00     0.010 A 
HETATM   15  C   UNL     1      40.036  -9.216  12.964  1.00  0.00     0.037 A 
HETATM   16  C   UNL     1      39.450  -7.955  12.879  1.00  0.00     0.068 A 
HETATM   17  C   UNL     1      40.229  -6.868  12.475  1.00  0.00     0.037 A 
HETATM   18  C   UNL     1      41.584  -7.030  12.175  1.00  0.00     0.010 A 
BRANCH  16  19
HETATM   19  O   UNL     1      38.143  -7.657  13.153  1.00  0.00    -0.356 OA
HETATM   20  C   UNL     1      37.575  -6.561  12.447  1.00  0.00     0.210 C 
ENDBRANCH  16  19
ENDBRANCH  12  13
ENDBRANCH  11  12
ENDBRANCH   7  11
ENDBRANCH   1   5
BRANCH   2  21
HETATM   21  C   UNL     1      42.715 -12.533   5.179  1.00  0.00     0.147 A 
HETATM   22  N   UNL     1      42.409 -12.339   3.881  1.00  0.00    -0.169 NA
HETATM   23  N   UNL     1      42.523 -13.567   3.337  1.00  0.00    -0.277 N 
HETATM   24  H   UNL     1      42.355 -13.667   2.341  1.00  0.00     0.189 HD
HETATM   25  C   UNL     1      42.904 -14.546   4.217  1.00  0.00     0.063 A 
HETATM   26  C   UNL     1      43.020 -13.895   5.428  1.00  0.00     0.071 A 
BRANCH  25  27
HETATM   27  C   UNL     1      43.159 -15.938   3.854  1.00  0.00    -0.008 A 
HETATM   28  C   UNL     1      43.834 -16.776   4.750  1.00  0.00     0.016 A 
HETATM   29  C   UNL     1      44.089 -18.111   4.425  1.00  0.00     0.037 A 
HETATM   30  C   UNL     1      43.672 -18.637   3.203  1.00  0.00     0.068 A 
HETATM   31  C   UNL     1      42.996 -17.813   2.305  1.00  0.00     0.037 A 
HETATM   32  C   UNL     1      42.742 -16.471   2.628  1.00  0.00     0.016 A 
BRANCH  30  33
HETATM   33  O   UNL     1      43.985 -19.954   3.016  1.00  0.00    -0.356 OA
HETATM   34  C   UNL     1      43.633 -20.532   1.765  1.00  0.00     0.210 C 
ENDBRANCH  30  33
ENDBRANCH  25  27
ENDBRANCH   2  21
TORSDOF 8
ENDMDL
MODEL 7
REMARK VINA RESULT:      -8.0      3.372      4.806
REMARK  8 active torsions:
REMARK  status: ('A' for Active; 'I' for Inactive)
REMARK    1  A    between atoms: O_2  and  C_3 
REMARK    2  A    between atoms: C_6  and  C_7 
REMARK    3  A    between atoms: C_7  and  C_8 
REMARK    4  A    between atoms: C_8  and  C_9 
REMARK    5  A    between atoms: C_11  and  N_12 
REMARK       I    between atoms: N_12  and  C_13 
REMARK    6  A    between atoms: C_13  and  C_14 
REMARK    7  A    between atoms: C_18  and  C_19 
REMARK    8  A    between atoms: C_22  and  O_23 
ROOT
HETATM    1  N   UNL     1      39.730 -10.918   7.397  1.00  0.00    -0.149 N 
HETATM    2  C   UNL     1      38.940 -10.993   6.279  1.00  0.00     0.290 C 
HETATM    3  O   UNL     1      37.955 -10.309   6.016  1.00  0.00    -0.265 OA
HETATM    4  H   UNL     1      40.502 -11.564   7.478  1.00  0.00     0.188 HD
ENDROOT
BRANCH   1   5
HETATM    5  C   UNL     1      39.538 -10.055   8.433  1.00  0.00     0.747 A 
HETATM    6  N   UNL     1      40.377  -8.977   8.563  1.00  0.00    -0.046 NA
HETATM    7  C   UNL     1      39.931  -8.362   9.638  1.00  0.00     0.140 A 
HETATM    8  N   UNL     1      38.855  -9.052  10.118  1.00  0.00    -0.248 N 
HETATM    9  N   UNL     1      38.602 -10.131   9.377  1.00  0.00     0.020 NA
HETATM   10  H   UNL     1      38.271  -8.857  10.924  1.00  0.00     0.191 HD
BRANCH   7  11
HETATM   11  C   UNL     1      40.429  -7.117  10.281  1.00  0.00     0.085 C 
BRANCH  11  12
HETATM   12  C   UNL     1      41.537  -7.410  11.298  1.00  0.00     0.046 C 
BRANCH  12  13
HETATM   13  C   UNL     1      42.629  -8.275  10.717  1.00  0.00    -0.058 A 
HETATM   14  C   UNL     1      43.461  -7.776   9.705  1.00  0.00     0.010 A 
HETATM   15  C   UNL     1      44.481  -8.565   9.162  1.00  0.00     0.037 A 
HETATM   16  C   UNL     1      44.682  -9.864   9.624  1.00  0.00     0.068 A 
HETATM   17  C   UNL     1      43.843 -10.370  10.620  1.00  0.00     0.037 A 
HETATM   18  C   UNL     1      42.823  -9.585  11.164  1.00  0.00     0.010 A 
BRANCH  16  19
HETATM   19  O   UNL     1      45.646 -10.731   9.187  1.00  0.00    -0.356 OA
HETATM   20  C   UNL     1      46.078 -10.583   7.841  1.00  0.00     0.210 C 
ENDBRANCH  16  19
ENDBRANCH  12  13
ENDBRANCH  11  12
ENDBRANCH   7  11
ENDBRANCH   1   5
BRANCH   2  21
HETATM   21  C   UNL     1      39.379 -12.054   5.355  1.00  0.00     0.147 A 
HETATM   22  N   UNL     1      38.919 -12.170   4.093  1.00  0.00    -0.169 NA
HETATM   23  N   UNL     1      39.583 -13.238   3.606  1.00  0.00    -0.277 N 
HETATM   24  H   UNL     1      39.412 -13.511   2.644  1.00  0.00     0.189 HD
HETATM   25  C   UNL     1      40.465 -13.809   4.487  1.00  0.00     0.063 A 
HETATM   26  C   UNL     1      40.336 -13.061   5.639  1.00  0.00     0.071 A 
BRANCH  25  27
HETATM   27  C   UNL     1      41.347 -14.930   4.171  1.00  0.00    -0.008 A 
HETATM   28  C   UNL     1      41.027 -15.787   3.111  1.00  0.00     0.016 A 
HETATM   29  C   UNL     1      41.855 -16.865   2.789  1.00  0.00     0.037 A 
HETATM   30  C   UNL     1      43.022 -17.106   3.513  1.00  0.00     0.068 A 
HETATM   31  C   UNL     1      43.353 -16.257   4.569  1.00  0.00     0.037 A 
HETATM   32  C   UNL     1      42.520 -15.175   4.896  1.00  0.00     0.016 A 
BRANCH  30  33
HETATM   33  O   UNL     1      43.739 -18.190   3.092  1.00  0.00    -0.356 OA
HETATM   34  C   UNL     1      44.284 -19.036   4.096  1.00  0.00     0.210 C 
ENDBRANCH  30  33
ENDBRANCH  25  27
ENDBRANCH   2  21
TORSDOF 8
ENDMDL
MODEL 8
REMARK VINA RESULT:      -7.9      8.711     12.810
REMARK  8 active torsions:
REMARK  status: ('A' for Active; 'I' for Inactive)
REMARK    1  A    between atoms: O_2  and  C_3 
REMARK    2  A    between atoms: C_6  and  C_7 
REMARK    3  A    between atoms: C_7  and  C_8 
REMARK    4  A    between atoms: C_8  and  C_9 
REMARK    5  A    between atoms: C_11  and  N_12 
REMARK       I    between atoms: N_12  and  C_13 
REMARK    6  A    between atoms: C_13  and  C_14 
REMARK    7  A    between atoms: C_18  and  C_19 
REMARK    8  A    between atoms: C_22  and  O_23 
ROOT
HETATM    1  N   UNL     1      40.902 -11.490  -0.447  1.00  0.00    -0.149 N 
HETATM    2  C   UNL     1      41.608 -10.417   0.033  1.00  0.00     0.290 C 
HETATM    3  O   UNL     1      41.996 -10.234   1.183  1.00  0.00    -0.265 OA
HETATM    4  H   UNL     1      40.639 -11.489  -1.422  1.00  0.00     0.188 HD
ENDROOT
BRANCH   1   5
HETATM    5  C   UNL     1      40.495 -12.553   0.300  1.00  0.00     0.747 A 
HETATM    6  N   UNL     1      41.395 -13.551   0.580  1.00  0.00    -0.046 NA
HETATM    7  C   UNL     1      40.698 -14.406   1.299  1.00  0.00     0.140 A 
HETATM    8  N   UNL     1      39.432 -13.920   1.446  1.00  0.00    -0.248 N 
HETATM    9  N   UNL     1      39.282 -12.758   0.810  1.00  0.00     0.020 NA
HETATM   10  H   UNL     1      38.642 -14.318   1.942  1.00  0.00     0.191 HD
BRANCH   7  11
HETATM   11  C   UNL     1      41.133 -15.691   1.909  1.00  0.00     0.085 C 
BRANCH  11  12
HETATM   12  C   UNL     1      42.625 -15.951   1.674  1.00  0.00     0.046 C 
BRANCH  12  13
HETATM   13  C   UNL     1      43.168 -17.020   2.591  1.00  0.00    -0.058 A 
HETATM   14  C   UNL     1      43.594 -16.690   3.885  1.00  0.00     0.010 A 
HETATM   15  C   UNL     1      44.095 -17.671   4.747  1.00  0.00     0.037 A 
HETATM   16  C   UNL     1      44.174 -18.996   4.328  1.00  0.00     0.068 A 
HETATM   17  C   UNL     1      43.767 -19.326   3.033  1.00  0.00     0.037 A 
HETATM   18  C   UNL     1      43.268 -18.348   2.167  1.00  0.00     0.010 A 
BRANCH  16  19
HETATM   19  O   UNL     1      44.631 -20.048   5.073  1.00  0.00    -0.356 OA
HETATM   20  C   UNL     1      43.750 -21.154   5.228  1.00  0.00     0.210 C 
ENDBRANCH  16  19
ENDBRANCH  12  13
ENDBRANCH  11  12
ENDBRANCH   7  11
ENDBRANCH   1   5
BRANCH   2  21
HETATM   21  C   UNL     1      41.867  -9.407  -1.009  1.00  0.00     0.147 A 
HETATM   22  N   UNL     1      42.755  -8.404  -0.862  1.00  0.00    -0.169 NA
HETATM   23  N   UNL     1      42.692  -7.743  -2.035  1.00  0.00    -0.277 N 
HETATM   24  H   UNL     1      43.302  -6.943  -2.168  1.00  0.00     0.189 HD
HETATM   25  C   UNL     1      41.816  -8.280  -2.944  1.00  0.00     0.063 A 
HETATM   26  C   UNL     1      41.256  -9.357  -2.289  1.00  0.00     0.071 A 
BRANCH  25  27
HETATM   27  C   UNL     1      41.622  -7.784  -4.305  1.00  0.00    -0.008 A 
HETATM   28  C   UNL     1      42.526  -6.859  -4.841  1.00  0.00     0.016 A 
HETATM   29  C   UNL     1      42.362  -6.371  -6.140  1.00  0.00     0.037 A 
HETATM   30  C   UNL     1      41.298  -6.801  -6.932  1.00  0.00     0.068 A 
HETATM   31  C   UNL     1      40.394  -7.726  -6.409  1.00  0.00     0.037 A 
HETATM   32  C   UNL     1      40.555  -8.214  -5.103  1.00  0.00     0.016 A 
BRANCH  30  33
HETATM   33  O   UNL     1      41.259  -6.247  -8.180  1.00  0.00    -0.356 OA
HETATM   34  C   UNL     1      42.251  -5.276  -8.489  1.00  0.00     0.210 C 
ENDBRANCH  30  33
ENDBRANCH  25  27
ENDBRANCH   2  21
TORSDOF 8
ENDMDL
MODEL 9
REMARK VINA RESULT:      -7.8     19.379     22.242
REMARK  8 active torsions:
REMARK  status: ('A' for Active; 'I' for Inactive)
REMARK    1  A    between atoms: O_2  and  C_3 
REMARK    2  A    between atoms: C_6  and  C_7 
REMARK    3  A    between atoms: C_7  and  C_8 
REMARK    4  A    between atoms: C_8  and  C_9 
REMARK    5  A    between atoms: C_11  and  N_12 
REMARK       I    between atoms: N_12  and  C_13 
REMARK    6  A    between atoms: C_13  and  C_14 
REMARK    7  A    between atoms: C_18  and  C_19 
REMARK    8  A    between atoms: C_22  and  O_23 
ROOT
HETATM    1  N   UNL     1      38.584 -32.839   4.093  1.00  0.00    -0.149 N 
HETATM    2  C   UNL     1      39.575 -31.993   4.522  1.00  0.00     0.290 C 
HETATM    3  O   UNL     1      39.746 -31.563   5.659  1.00  0.00    -0.265 OA
HETATM    4  H   UNL     1      38.566 -33.093   3.116  1.00  0.00     0.188 HD
ENDROOT
BRANCH   1   5
HETATM    5  C   UNL     1      37.595 -33.345   4.879  1.00  0.00     0.747 A 
HETATM    6  N   UNL     1      37.909 -34.308   5.805  1.00  0.00    -0.046 NA
HETATM    7  C   UNL     1      36.756 -34.576   6.381  1.00  0.00     0.140 A 
HETATM    8  N   UNL     1      35.796 -33.785   5.819  1.00  0.00    -0.248 N 
HETATM    9  N   UNL     1      36.305 -33.013   4.859  1.00  0.00     0.020 NA
HETATM   10  H   UNL     1      34.805 -33.728   6.026  1.00  0.00     0.191 HD
BRANCH   7  11
HETATM   11  C   UNL     1      36.456 -35.535   7.477  1.00  0.00     0.085 C 
BRANCH  11  12
HETATM   12  C   UNL     1      35.032 -36.092   7.366  1.00  0.00     0.046 C 
BRANCH  12  13
HETATM   13  C   UNL     1      34.179 -35.718   8.554  1.00  0.00    -0.058 A 
HETATM   14  C   UNL     1      32.899 -36.267   8.703  1.00  0.00     0.010 A 
HETATM   15  C   UNL     1      32.099 -35.934   9.802  1.00  0.00     0.037 A 
HETATM   16  C   UNL     1      32.572 -35.049  10.768  1.00  0.00     0.068 A 
HETATM   17  C   UNL     1      33.842 -34.486  10.613  1.00  0.00     0.037 A 
HETATM   18  C   UNL     1      34.642 -34.815   9.515  1.00  0.00     0.010 A 
BRANCH  16  19
HETATM   19  O   UNL     1      31.899 -34.651  11.890  1.00  0.00    -0.356 OA
HETATM   20  C   UNL     1      32.030 -33.285  12.265  1.00  0.00     0.210 C 
ENDBRANCH  16  19
ENDBRANCH  12  13
ENDBRANCH  11  12
ENDBRANCH   7  11
ENDBRANCH   1   5
BRANCH   2  21
HETATM   21  C   UNL     1      40.475 -31.586   3.428  1.00  0.00     0.147 A 
HETATM   22  N   UNL     1      40.169 -31.740   2.125  1.00  0.00    -0.169 NA
HETATM   23  N   UNL     1      41.237 -31.227   1.481  1.00  0.00    -0.277 N 
HETATM   24  H   UNL     1      41.225 -31.215   0.466  1.00  0.00     0.189 HD
HETATM   25  C   UNL     1      42.215 -30.733   2.306  1.00  0.00     0.063 A 
HETATM   26  C   UNL     1      41.744 -30.971   3.580  1.00  0.00     0.071 A 
BRANCH  25  27
HETATM   27  C   UNL     1      43.432 -30.068   1.847  1.00  0.00    -0.008 A 
HETATM   28  C   UNL     1      43.561 -29.711   0.499  1.00  0.00     0.016 A 
HETATM   29  C   UNL     1      44.715 -29.073   0.036  1.00  0.00     0.037 A 
HETATM   30  C   UNL     1      45.760 -28.775   0.909  1.00  0.00     0.068 A 
HETATM   31  C   UNL     1      45.641 -29.122   2.254  1.00  0.00     0.037 A 
HETATM   32  C   UNL     1      44.484 -29.766   2.720  1.00  0.00     0.016 A 
BRANCH  30  33
HETATM   33  O   UNL     1      46.826 -28.150   0.326  1.00  0.00    -0.356 OA
HETATM   34  C   UNL     1      46.815 -28.038  -1.092  1.00  0.00     0.210 C 
ENDBRANCH  30  33
ENDBRANCH  25  27
ENDBRANCH   2  21
TORSDOF 8
ENDMDL
MODEL 10
REMARK VINA RESULT:      -7.7      1.515      2.117
REMARK  8 active torsions:
REMARK  status: ('A' for Active; 'I' for Inactive)
REMARK    1  A    between atoms: O_2  and  C_3 
REMARK    2  A    between atoms: C_6  and  C_7 
REMARK    3  A    between atoms: C_7  and  C_8 
REMARK    4  A    between atoms: C_8  and  C_9 
REMARK    5  A    between atoms: C_11  and  N_12 
REMARK       I    between atoms: N_12  and  C_13 
REMARK    6  A    between atoms: C_13  and  C_14 
REMARK    7  A    between atoms: C_18  and  C_19 
REMARK    8  A    between atoms: C_22  and  O_23 
ROOT
HETATM    1  N   UNL     1      43.749 -11.366   8.573  1.00  0.00    -0.149 N 
HETATM    2  C   UNL     1      43.339 -10.957   7.329  1.00  0.00     0.290 C 
HETATM    3  O   UNL     1      43.126  -9.808   6.956  1.00  0.00    -0.265 OA
HETATM    4  H   UNL     1      43.867 -12.355   8.733  1.00  0.00     0.188 HD
ENDROOT
BRANCH   1   5
HETATM    5  C   UNL     1      43.981 -10.539   9.629  1.00  0.00     0.747 A 
HETATM    6  N   UNL     1      42.983 -10.341  10.549  1.00  0.00    -0.046 NA
HETATM    7  C   UNL     1      43.519  -9.508  11.417  1.00  0.00     0.140 A 
HETATM    8  N   UNL     1      44.797  -9.235  11.024  1.00  0.00    -0.248 N 
HETATM    9  N   UNL     1      45.101  -9.866   9.890  1.00  0.00     0.020 NA
HETATM   10  H   UNL     1      45.492  -8.640  11.461  1.00  0.00     0.191 HD
BRANCH   7  11
HETATM   11  C   UNL     1      42.925  -8.930  12.652  1.00  0.00     0.085 C 
BRANCH  11  12
HETATM   12  C   UNL     1      43.567  -7.586  13.012  1.00  0.00     0.046 C 
BRANCH  12  13
HETATM   13  C   UNL     1      42.734  -6.801  13.996  1.00  0.00    -0.058 A 
HETATM   14  C   UNL     1      42.603  -7.244  15.319  1.00  0.00     0.010 A 
HETATM   15  C   UNL     1      41.838  -6.524  16.244  1.00  0.00     0.037 A 
HETATM   16  C   UNL     1      41.197  -5.350  15.858  1.00  0.00     0.068 A 
HETATM   17  C   UNL     1      41.311  -4.915  14.535  1.00  0.00     0.037 A 
HETATM   18  C   UNL     1      42.073  -5.633  13.608  1.00  0.00     0.010 A 
BRANCH  16  19
HETATM   19  O   UNL     1      40.433  -4.550  16.662  1.00  0.00    -0.356 OA
HETATM   20  C   UNL     1      41.125  -3.742  17.605  1.00  0.00     0.210 C 
ENDBRANCH  16  19
ENDBRANCH  12  13
ENDBRANCH  11  12
ENDBRANCH   7  11
ENDBRANCH   1   5
BRANCH   2  21
HETATM   21  C   UNL     1      43.133 -12.090   6.409  1.00  0.00     0.147 A 
HETATM   22  N   UNL     1      42.516 -11.970   5.217  1.00  0.00    -0.169 NA
HETATM   23  N   UNL     1      42.562 -13.216   4.704  1.00  0.00    -0.277 N 
HETATM   24  H   UNL     1      42.166 -13.369   3.782  1.00  0.00     0.189 HD
HETATM   25  C   UNL     1      43.195 -14.135   5.500  1.00  0.00     0.063 A 
HETATM   26  C   UNL     1      43.562 -13.425   6.623  1.00  0.00     0.071 A 
BRANCH  25  27
HETATM   27  C   UNL     1      43.431 -15.530   5.133  1.00  0.00    -0.008 A 
HETATM   28  C   UNL     1      43.150 -15.961   3.831  1.00  0.00     0.016 A 
HETATM   29  C   UNL     1      43.369 -17.290   3.456  1.00  0.00     0.037 A 
HETATM   30  C   UNL     1      43.876 -18.212   4.370  1.00  0.00     0.068 A 
HETATM   31  C   UNL     1      44.162 -17.792   5.669  1.00  0.00     0.037 A 
HETATM   32  C   UNL     1      43.941 -16.459   6.048  1.00  0.00     0.016 A 
BRANCH  30  33
HETATM   33  O   UNL     1      44.042 -19.473   3.872  1.00  0.00    -0.356 OA
HETATM   34  C   UNL     1      44.158 -20.531   4.814  1.00  0.00     0.210 C 
ENDBRANCH  30  33
ENDBRANCH  25  27
ENDBRANCH   2  21
TORSDOF 8
ENDMDL
