MODEL 1
REMARK VINA RESULT:     -10.7      0.000      0.000
REMARK  6 active torsions:
REMARK  status: ('A' for Active; 'I' for Inactive)
REMARK    1  A    between atoms: O_2  and  C_3 
REMARK    2  A    between atoms: C_6  and  N_7 
REMARK    3  A    between atoms: C_16  and  C_17 
REMARK    4  A    between atoms: C_17  and  C_18 
REMARK    5  A    between atoms: C_26  and  C_27 
REMARK    6  A    between atoms: C_26  and  C_31 
ROOT
HETATM    1  N   UNL     1      40.179 -13.754   2.295  1.00  0.00    -0.249 N 
HETATM    2  C   UNL     1      39.258 -12.910   2.936  1.00  0.00     0.335 C 
HETATM    3  O   UNL     1      38.428 -12.195   2.381  1.00  0.00    -0.246 OA
HETATM    4  N   UNL     1      39.352 -12.860   4.300  1.00  0.00    -0.274 N 
HETATM    5  C   UNL     1      40.381 -13.353   5.027  1.00  0.00     0.262 C 
HETATM    6  O   UNL     1      40.610 -13.024   6.177  1.00  0.00    -0.267 OA
HETATM    7  C   UNL     1      41.231 -14.343   4.366  1.00  0.00     0.101 C 
HETATM    8  C   UNL     1      41.097 -14.494   3.041  1.00  0.00     0.132 C 
HETATM    9  N   UNL     1      41.853 -15.456   2.401  1.00  0.00    -0.331 N 
HETATM   10  C   UNL     1      42.789 -16.157   3.006  1.00  0.00     0.084 C 
HETATM   11  N   UNL     1      43.014 -16.041   4.297  1.00  0.00    -0.351 N 
HETATM   12  H   UNL     1      43.773 -16.584   4.720  1.00  0.00     0.162 HD
HETATM   13  C   UNL     1      42.168 -15.157   5.229  1.00  0.00     0.264 C 
HETATM   14  H   UNL     1      38.763 -12.161   4.743  1.00  0.00     0.173 HD
HETATM   15  H   UNL     1      41.711 -15.618   1.408  1.00  0.00     0.168 HD
ENDROOT
BRANCH   1  16
HETATM   16  C   UNL     1      40.128 -13.807   0.859  1.00  0.00     0.045 A 
HETATM   17  C   UNL     1      39.575 -14.914   0.200  1.00  0.00     0.033 A 
HETATM   18  C   UNL     1      39.452 -14.919  -1.192  1.00  0.00     0.039 A 
HETATM   19  C   UNL     1      39.885 -13.830  -1.950  1.00  0.00     0.068 A 
HETATM   20  C   UNL     1      40.474 -12.744  -1.306  1.00  0.00     0.039 A 
HETATM   21  C   UNL     1      40.602 -12.736   0.088  1.00  0.00     0.033 A 
BRANCH  19  22
HETATM   22  O   UNL     1      39.678 -13.954  -3.295  1.00  0.00    -0.356 OA
HETATM   23  C   UNL     1      38.425 -14.487  -3.711  1.00  0.00     0.210 C 
ENDBRANCH  19  22
ENDBRANCH   1  16
BRANCH  13  24
HETATM   24  C   UNL     1      41.416 -16.098   6.175  1.00  0.00     0.426 C 
HETATM   25  F   UNL     1      40.440 -16.735   5.471  1.00  0.00    -0.168 F 
HETATM   26  F   UNL     1      42.241 -17.064   6.637  1.00  0.00    -0.168 F 
HETATM   27  F   UNL     1      40.825 -15.506   7.219  1.00  0.00    -0.168 F 
ENDBRANCH  13  24
BRANCH  13  28
HETATM   28  C   UNL     1      43.146 -14.366   6.106  1.00  0.00     0.426 C 
HETATM   29  F   UNL     1      43.506 -13.219   5.481  1.00  0.00    -0.168 F 
HETATM   30  F   UNL     1      42.723 -14.071   7.340  1.00  0.00    -0.168 F 
HETATM   31  F   UNL     1      44.290 -15.094   6.240  1.00  0.00    -0.168 F 
ENDBRANCH  13  28
BRANCH  10  32
HETATM   32  C   UNL     1      43.623 -17.094   2.195  1.00  0.00     0.114 C 
BRANCH  32  33
HETATM   33  C   UNL     1      43.788 -18.429   2.877  1.00  0.00    -0.051 A 
HETATM   34  C   UNL     1      43.505 -19.616   2.185  1.00  0.00     0.007 A 
HETATM   35  C   UNL     1      43.616 -20.850   2.825  1.00  0.00     0.001 A 
HETATM   36  C   UNL     1      44.009 -20.911   4.160  1.00  0.00     0.000 A 
HETATM   37  C   UNL     1      44.294 -19.740   4.856  1.00  0.00     0.001 A 
HETATM   38  C   UNL     1      44.185 -18.502   4.220  1.00  0.00     0.007 A 
ENDBRANCH  32  33
ENDBRANCH  10  32
TORSDOF 6
ENDMDL
MODEL 2
REMARK VINA RESULT:      -9.8      3.201      6.372
REMARK  6 active torsions:
REMARK  status: ('A' for Active; 'I' for Inactive)
REMARK    1  A    between atoms: O_2  and  C_3 
REMARK    2  A    between atoms: C_6  and  N_7 
REMARK    3  A    between atoms: C_16  and  C_17 
REMARK    4  A    between atoms: C_17  and  C_18 
REMARK    5  A    between atoms: C_26  and  C_27 
REMARK    6  A    between atoms: C_26  and  C_31 
ROOT
HETATM    1  N   UNL     1      43.024 -11.972   4.755  1.00  0.00    -0.249 N 
HETATM    2  C   UNL     1      42.562 -10.991   3.863  1.00  0.00     0.335 C 
HETATM    3  O   UNL     1      42.669  -9.777   4.008  1.00  0.00    -0.246 OA
HETATM    4  N   UNL     1      41.890 -11.458   2.766  1.00  0.00    -0.274 N 
HETATM    5  C   UNL     1      41.444 -12.726   2.610  1.00  0.00     0.262 C 
HETATM    6  O   UNL     1      40.586 -13.041   1.806  1.00  0.00    -0.267 OA
HETATM    7  C   UNL     1      42.060 -13.744   3.461  1.00  0.00     0.101 C 
HETATM    8  C   UNL     1      42.811 -13.325   4.488  1.00  0.00     0.132 C 
HETATM    9  N   UNL     1      43.443 -14.266   5.277  1.00  0.00    -0.331 N 
HETATM   10  C   UNL     1      43.252 -15.562   5.145  1.00  0.00     0.084 C 
HETATM   11  N   UNL     1      42.497 -16.056   4.189  1.00  0.00    -0.351 N 
HETATM   12  H   UNL     1      42.351 -17.069   4.143  1.00  0.00     0.162 HD
HETATM   13  C   UNL     1      41.842 -15.195   3.095  1.00  0.00     0.264 C 
HETATM   14  H   UNL     1      41.460 -10.740   2.192  1.00  0.00     0.173 HD
HETATM   15  H   UNL     1      44.064 -13.954   6.020  1.00  0.00     0.168 HD
ENDROOT
BRANCH   1  16
HETATM   16  C   UNL     1      43.708 -11.514   5.933  1.00  0.00     0.045 A 
HETATM   17  C   UNL     1      42.995 -11.179   7.094  1.00  0.00     0.033 A 
HETATM   18  C   UNL     1      43.674 -10.817   8.260  1.00  0.00     0.039 A 
HETATM   19  C   UNL     1      45.069 -10.774   8.290  1.00  0.00     0.068 A 
HETATM   20  C   UNL     1      45.783 -11.066   7.129  1.00  0.00     0.039 A 
HETATM   21  C   UNL     1      45.107 -11.425   5.957  1.00  0.00     0.033 A 
BRANCH  19  22
HETATM   22  O   UNL     1      45.603 -10.435   9.500  1.00  0.00    -0.356 OA
HETATM   23  C   UNL     1      44.708  -9.927  10.483  1.00  0.00     0.210 C 
ENDBRANCH  19  22
ENDBRANCH   1  16
BRANCH  13  24
HETATM   24  C   UNL     1      42.516 -15.567   1.771  1.00  0.00     0.426 C 
HETATM   25  F   UNL     1      43.703 -14.905   1.684  1.00  0.00    -0.168 F 
HETATM   26  F   UNL     1      42.814 -16.885   1.745  1.00  0.00    -0.168 F 
HETATM   27  F   UNL     1      41.817 -15.266   0.670  1.00  0.00    -0.168 F 
ENDBRANCH  13  24
BRANCH  13  28
HETATM   28  C   UNL     1      40.384 -15.655   2.975  1.00  0.00     0.426 C 
HETATM   29  F   UNL     1      39.555 -14.701   3.462  1.00  0.00    -0.168 F 
HETATM   30  F   UNL     1      39.975 -15.997   1.749  1.00  0.00    -0.168 F 
HETATM   31  F   UNL     1      40.210 -16.746   3.773  1.00  0.00    -0.168 F 
ENDBRANCH  13  28
BRANCH  10  32
HETATM   32  C   UNL     1      43.900 -16.487   6.122  1.00  0.00     0.114 C 
BRANCH  32  33
HETATM   33  C   UNL     1      43.916 -17.909   5.621  1.00  0.00    -0.051 A 
HETATM   34  C   UNL     1      43.450 -18.952   6.436  1.00  0.00     0.007 A 
HETATM   35  C   UNL     1      43.502 -20.273   5.992  1.00  0.00     0.001 A 
HETATM   36  C   UNL     1      44.020 -20.565   4.732  1.00  0.00     0.000 A 
HETATM   37  C   UNL     1      44.484 -19.539   3.914  1.00  0.00     0.001 A 
HETATM   38  C   UNL     1      44.433 -18.214   4.354  1.00  0.00     0.007 A 
ENDBRANCH  32  33
ENDBRANCH  10  32
TORSDOF 6
ENDMDL
MODEL 3
REMARK VINA RESULT:      -9.4      3.546      6.546
REMARK  6 active torsions:
REMARK  status: ('A' for Active; 'I' for Inactive)
REMARK    1  A    between atoms: O_2  and  C_3 
REMARK    2  A    between atoms: C_6  and  N_7 
REMARK    3  A    between atoms: C_16  and  C_17 
REMARK    4  A    between atoms: C_17  and  C_18 
REMARK    5  A    between atoms: C_26  and  C_27 
REMARK    6  A    between atoms: C_26  and  C_31 
ROOT
HETATM    1  N   UNL     1      41.184 -14.493   3.527  1.00  0.00    -0.249 N 
HETATM    2  C   UNL     1      39.945 -14.519   2.868  1.00  0.00     0.335 C 
HETATM    3  O   UNL     1      39.533 -15.420   2.143  1.00  0.00    -0.246 OA
HETATM    4  N   UNL     1      39.170 -13.402   3.021  1.00  0.00    -0.274 N 
HETATM    5  C   UNL     1      39.595 -12.226   3.539  1.00  0.00     0.262 C 
HETATM    6  O   UNL     1      39.012 -11.170   3.374  1.00  0.00    -0.267 OA
HETATM    7  C   UNL     1      40.814 -12.271   4.346  1.00  0.00     0.101 C 
HETATM    8  C   UNL     1      41.549 -13.390   4.300  1.00  0.00     0.132 C 
HETATM    9  N   UNL     1      42.679 -13.476   5.090  1.00  0.00    -0.331 N 
HETATM   10  C   UNL     1      43.139 -12.469   5.801  1.00  0.00     0.084 C 
HETATM   11  N   UNL     1      42.501 -11.321   5.868  1.00  0.00    -0.351 N 
HETATM   12  H   UNL     1      42.912 -10.554   6.409  1.00  0.00     0.162 HD
HETATM   13  C   UNL     1      41.134 -11.071   5.207  1.00  0.00     0.264 C 
HETATM   14  H   UNL     1      38.333 -13.381   2.447  1.00  0.00     0.173 HD
HETATM   15  H   UNL     1      43.207 -14.345   5.107  1.00  0.00     0.168 HD
ENDROOT
BRANCH   1  16
HETATM   16  C   UNL     1      42.037 -15.639   3.362  1.00  0.00     0.045 A 
HETATM   17  C   UNL     1      42.218 -16.557   4.407  1.00  0.00     0.033 A 
HETATM   18  C   UNL     1      42.980 -17.711   4.209  1.00  0.00     0.039 A 
HETATM   19  C   UNL     1      43.581 -17.967   2.975  1.00  0.00     0.068 A 
HETATM   20  C   UNL     1      43.440 -17.039   1.946  1.00  0.00     0.039 A 
HETATM   21  C   UNL     1      42.680 -15.879   2.141  1.00  0.00     0.033 A 
BRANCH  19  22
HETATM   22  O   UNL     1      44.270 -19.144   2.911  1.00  0.00    -0.356 OA
HETATM   23  C   UNL     1      43.675 -20.203   2.168  1.00  0.00     0.210 C 
ENDBRANCH  19  22
ENDBRANCH   1  16
BRANCH  13  24
HETATM   24  C   UNL     1      40.120 -10.881   6.339  1.00  0.00     0.426 C 
HETATM   25  F   UNL     1      39.688 -12.106   6.748  1.00  0.00    -0.168 F 
HETATM   26  F   UNL     1      40.710 -10.310   7.413  1.00  0.00    -0.168 F 
HETATM   27  F   UNL     1      39.034 -10.168   6.019  1.00  0.00    -0.168 F 
ENDBRANCH  13  24
BRANCH  13  28
HETATM   28  C   UNL     1      41.225  -9.720   4.487  1.00  0.00     0.426 C 
HETATM   29  F   UNL     1      41.770  -9.886   3.258  1.00  0.00    -0.168 F 
HETATM   30  F   UNL     1      40.080  -9.041   4.363  1.00  0.00    -0.168 F 
HETATM   31  F   UNL     1      42.090  -8.922   5.176  1.00  0.00    -0.168 F 
ENDBRANCH  13  28
BRANCH  10  32
HETATM   32  C   UNL     1      44.430 -12.636   6.533  1.00  0.00     0.114 C 
BRANCH  32  33
HETATM   33  C   UNL     1      44.765 -11.421   7.362  1.00  0.00    -0.051 A 
HETATM   34  C   UNL     1      45.927 -10.681   7.095  1.00  0.00     0.007 A 
HETATM   35  C   UNL     1      46.261  -9.582   7.886  1.00  0.00     0.001 A 
HETATM   36  C   UNL     1      45.442  -9.213   8.951  1.00  0.00     0.000 A 
HETATM   37  C   UNL     1      44.286  -9.940   9.225  1.00  0.00     0.001 A 
HETATM   38  C   UNL     1      43.946 -11.040   8.435  1.00  0.00     0.007 A 
ENDBRANCH  32  33
ENDBRANCH  10  32
TORSDOF 6
ENDMDL
MODEL 4
REMARK VINA RESULT:      -9.2      4.439      7.132
REMARK  6 active torsions:
REMARK  status: ('A' for Active; 'I' for Inactive)
REMARK    1  A    between atoms: O_2  and  C_3 
REMARK    2  A    between atoms: C_6  and  N_7 
REMARK    3  A    between atoms: C_16  and  C_17 
REMARK    4  A    between atoms: C_17  and  C_18 
REMARK    5  A    between atoms: C_26  and  C_27 
REMARK    6  A    between atoms: C_26  and  C_31 
ROOT
HETATM    1  N   UNL     1      41.058 -11.408   1.934  1.00  0.00    -0.249 N 
HETATM    2  C   UNL     1      41.164 -10.045   1.613  1.00  0.00     0.335 C 
HETATM    3  O   UNL     1      41.604  -9.165   2.346  1.00  0.00    -0.246 OA
HETATM    4  N   UNL     1      40.675  -9.686   0.386  1.00  0.00    -0.274 N 
HETATM    5  C   UNL     1      39.909 -10.473  -0.405  1.00  0.00     0.262 C 
HETATM    6  O   UNL     1      39.225 -10.043  -1.317  1.00  0.00    -0.267 OA
HETATM    7  C   UNL     1      39.943 -11.908  -0.128  1.00  0.00     0.101 C 
HETATM    8  C   UNL     1      40.506 -12.307   1.020  1.00  0.00     0.132 C 
HETATM    9  N   UNL     1      40.595 -13.660   1.283  1.00  0.00    -0.331 N 
HETATM   10  C   UNL     1      40.048 -14.580   0.516  1.00  0.00     0.084 C 
HETATM   11  N   UNL     1      39.440 -14.271  -0.608  1.00  0.00    -0.351 N 
HETATM   12  H   UNL     1      39.002 -15.016  -1.158  1.00  0.00     0.162 HD
HETATM   13  C   UNL     1      39.382 -12.842  -1.176  1.00  0.00     0.264 C 
HETATM   14  H   UNL     1      40.649  -8.687   0.213  1.00  0.00     0.173 HD
HETATM   15  H   UNL     1      41.076 -13.972   2.123  1.00  0.00     0.168 HD
ENDROOT
BRANCH   1  16
HETATM   16  C   UNL     1      41.534 -11.814   3.228  1.00  0.00     0.045 A 
HETATM   17  C   UNL     1      42.875 -12.177   3.419  1.00  0.00     0.033 A 
HETATM   18  C   UNL     1      43.348 -12.487   4.696  1.00  0.00     0.039 A 
HETATM   19  C   UNL     1      42.495 -12.452   5.801  1.00  0.00     0.068 A 
HETATM   20  C   UNL     1      41.152 -12.134   5.613  1.00  0.00     0.039 A 
HETATM   21  C   UNL     1      40.674 -11.824   4.334  1.00  0.00     0.033 A 
BRANCH  19  22
HETATM   22  O   UNL     1      43.094 -12.748   6.992  1.00  0.00    -0.356 OA
HETATM   23  C   UNL     1      44.144 -11.887   7.421  1.00  0.00     0.210 C 
ENDBRANCH  19  22
ENDBRANCH   1  16
BRANCH  13  24
HETATM   24  C   UNL     1      40.214 -12.839  -2.462  1.00  0.00     0.426 C 
HETATM   25  F   UNL     1      41.454 -12.355  -2.178  1.00  0.00    -0.168 F 
HETATM   26  F   UNL     1      40.394 -14.101  -2.913  1.00  0.00    -0.168 F 
HETATM   27  F   UNL     1      39.721 -12.095  -3.459  1.00  0.00    -0.168 F 
ENDBRANCH  13  24
BRANCH  13  28
HETATM   28  C   UNL     1      37.932 -12.590  -1.607  1.00  0.00     0.426 C 
HETATM   29  F   UNL     1      37.196 -12.184  -0.544  1.00  0.00    -0.168 F 
HETATM   30  F   UNL     1      37.759 -11.722  -2.609  1.00  0.00    -0.168 F 
HETATM   31  F   UNL     1      37.389 -13.774  -2.007  1.00  0.00    -0.168 F 
ENDBRANCH  13  28
BRANCH  10  32
HETATM   32  C   UNL     1      40.109 -16.008   0.951  1.00  0.00     0.114 C 
BRANCH  32  33
HETATM   33  C   UNL     1      40.989 -16.186   2.163  1.00  0.00    -0.051 A 
HETATM   34  C   UNL     1      40.487 -15.925   3.447  1.00  0.00     0.007 A 
HETATM   35  C   UNL     1      41.309 -16.048   4.565  1.00  0.00     0.001 A 
HETATM   36  C   UNL     1      42.641 -16.431   4.414  1.00  0.00     0.000 A 
HETATM   37  C   UNL     1      43.150 -16.694   3.146  1.00  0.00     0.001 A 
HETATM   38  C   UNL     1      42.330 -16.573   2.022  1.00  0.00     0.007 A 
ENDBRANCH  32  33
ENDBRANCH  10  32
TORSDOF 6
ENDMDL
MODEL 5
REMARK VINA RESULT:      -9.2      3.090      6.012
REMARK  6 active torsions:
REMARK  status: ('A' for Active; 'I' for Inactive)
REMARK    1  A    between atoms: O_2  and  C_3 
REMARK    2  A    between atoms: C_6  and  N_7 
REMARK    3  A    between atoms: C_16  and  C_17 
REMARK    4  A    between atoms: C_17  and  C_18 
REMARK    5  A    between atoms: C_26  and  C_27 
REMARK    6  A    between atoms: C_26  and  C_31 
ROOT
HETATM    1  N   UNL     1      39.301 -11.816   2.575  1.00  0.00    -0.249 N 
HETATM    2  C   UNL     1      39.378 -11.578   3.956  1.00  0.00     0.335 C 
HETATM    3  O   UNL     1      38.847 -10.650   4.558  1.00  0.00    -0.246 OA
HETATM    4  N   UNL     1      40.166 -12.446   4.663  1.00  0.00    -0.274 N 
HETATM    5  C   UNL     1      41.033 -13.328   4.116  1.00  0.00     0.262 C 
HETATM    6  O   UNL     1      41.942 -13.848   4.737  1.00  0.00    -0.267 OA
HETATM    7  C   UNL     1      40.825 -13.661   2.707  1.00  0.00     0.101 C 
HETATM    8  C   UNL     1      39.980 -12.893   2.005  1.00  0.00     0.132 C 
HETATM    9  N   UNL     1      39.729 -13.215   0.686  1.00  0.00    -0.331 N 
HETATM   10  C   UNL     1      40.368 -14.171   0.043  1.00  0.00     0.084 C 
HETATM   11  N   UNL     1      41.244 -14.944   0.647  1.00  0.00    -0.351 N 
HETATM   12  H   UNL     1      41.740 -15.654   0.100  1.00  0.00     0.162 HD
HETATM   13  C   UNL     1      41.543 -14.871   2.154  1.00  0.00     0.264 C 
HETATM   14  H   UNL     1      40.309 -12.196   5.636  1.00  0.00     0.173 HD
HETATM   15  H   UNL     1      39.042 -12.675   0.166  1.00  0.00     0.168 HD
ENDROOT
BRANCH   1  16
HETATM   16  C   UNL     1      38.505 -10.905   1.798  1.00  0.00     0.045 A 
HETATM   17  C   UNL     1      39.048  -9.701   1.324  1.00  0.00     0.033 A 
HETATM   18  C   UNL     1      38.294  -8.863   0.498  1.00  0.00     0.039 A 
HETATM   19  C   UNL     1      36.988  -9.202   0.138  1.00  0.00     0.068 A 
HETATM   20  C   UNL     1      36.428 -10.375   0.639  1.00  0.00     0.039 A 
HETATM   21  C   UNL     1      37.179 -11.217   1.469  1.00  0.00     0.033 A 
BRANCH  19  22
HETATM   22  O   UNL     1      36.378  -8.310  -0.696  1.00  0.00    -0.356 OA
HETATM   23  C   UNL     1      35.296  -8.797  -1.484  1.00  0.00     0.210 C 
ENDBRANCH  19  22
ENDBRANCH   1  16
BRANCH  13  24
HETATM   24  C   UNL     1      41.038 -16.178   2.773  1.00  0.00     0.426 C 
HETATM   25  F   UNL     1      39.677 -16.141   2.820  1.00  0.00    -0.168 F 
HETATM   26  F   UNL     1      41.361 -17.230   1.987  1.00  0.00    -0.168 F 
HETATM   27  F   UNL     1      41.467 -16.425   4.015  1.00  0.00    -0.168 F 
ENDBRANCH  13  24
BRANCH  13  28
HETATM   28  C   UNL     1      43.068 -14.888   2.310  1.00  0.00     0.426 C 
HETATM   29  F   UNL     1      43.555 -13.626   2.245  1.00  0.00    -0.168 F 
HETATM   30  F   UNL     1      43.540 -15.477   3.414  1.00  0.00    -0.168 F 
HETATM   31  F   UNL     1      43.602 -15.551   1.245  1.00  0.00    -0.168 F 
ENDBRANCH  13  28
BRANCH  10  32
HETATM   32  C   UNL     1      40.097 -14.363  -1.413  1.00  0.00     0.114 C 
BRANCH  32  33
HETATM   33  C   UNL     1      39.334 -13.201  -1.998  1.00  0.00    -0.051 A 
HETATM   34  C   UNL     1      40.017 -12.057  -2.440  1.00  0.00     0.007 A 
HETATM   35  C   UNL     1      39.311 -10.964  -2.943  1.00  0.00     0.001 A 
HETATM   36  C   UNL     1      37.920 -11.002  -3.008  1.00  0.00     0.000 A 
HETATM   37  C   UNL     1      37.232 -12.132  -2.574  1.00  0.00     0.001 A 
HETATM   38  C   UNL     1      37.934 -13.229  -2.070  1.00  0.00     0.007 A 
ENDBRANCH  32  33
ENDBRANCH  10  32
TORSDOF 6
ENDMDL
MODEL 6
REMARK VINA RESULT:      -9.1      2.166      2.918
REMARK  6 active torsions:
REMARK  status: ('A' for Active; 'I' for Inactive)
REMARK    1  A    between atoms: O_2  and  C_3 
REMARK    2  A    between atoms: C_6  and  N_7 
REMARK    3  A    between atoms: C_16  and  C_17 
REMARK    4  A    between atoms: C_17  and  C_18 
REMARK    5  A    between atoms: C_26  and  C_27 
REMARK    6  A    between atoms: C_26  and  C_31 
ROOT
HETATM    1  N   UNL     1      40.528 -11.461   1.094  1.00  0.00    -0.249 N 
HETATM    2  C   UNL     1      40.583 -10.061   1.186  1.00  0.00     0.335 C 
HETATM    3  O   UNL     1      40.324  -9.269   0.284  1.00  0.00    -0.246 OA
HETATM    4  N   UNL     1      41.018  -9.563   2.384  1.00  0.00    -0.274 N 
HETATM    5  C   UNL     1      41.607 -10.292   3.360  1.00  0.00     0.262 C 
HETATM    6  O   UNL     1      42.270  -9.802   4.256  1.00  0.00    -0.267 OA
HETATM    7  C   UNL     1      41.400 -11.739   3.308  1.00  0.00     0.101 C 
HETATM    8  C   UNL     1      40.880 -12.254   2.186  1.00  0.00     0.132 C 
HETATM    9  N   UNL     1      40.630 -13.611   2.131  1.00  0.00    -0.331 N 
HETATM   10  C   UNL     1      40.986 -14.449   3.083  1.00  0.00     0.084 C 
HETATM   11  N   UNL     1      41.540 -14.031   4.199  1.00  0.00    -0.351 N 
HETATM   12  H   UNL     1      41.829 -14.721   4.900  1.00  0.00     0.162 HD
HETATM   13  C   UNL     1      41.747 -12.545   4.540  1.00  0.00     0.264 C 
HETATM   14  H   UNL     1      41.167  -8.559   2.400  1.00  0.00     0.173 HD
HETATM   15  H   UNL     1      40.178 -13.999   1.307  1.00  0.00     0.168 HD
ENDROOT
BRANCH   1  16
HETATM   16  C   UNL     1      40.104 -12.018  -0.162  1.00  0.00     0.045 A 
HETATM   17  C   UNL     1      41.037 -12.325  -1.164  1.00  0.00     0.033 A 
HETATM   18  C   UNL     1      40.625 -12.945  -2.346  1.00  0.00     0.039 A 
HETATM   19  C   UNL     1      39.281 -13.260  -2.556  1.00  0.00     0.068 A 
HETATM   20  C   UNL     1      38.343 -12.921  -1.584  1.00  0.00     0.039 A 
HETATM   21  C   UNL     1      38.751 -12.296  -0.398  1.00  0.00     0.033 A 
BRANCH  19  22
HETATM   22  O   UNL     1      39.022 -13.890  -3.740  1.00  0.00    -0.356 OA
HETATM   23  C   UNL     1      38.013 -14.895  -3.732  1.00  0.00     0.210 C 
ENDBRANCH  19  22
ENDBRANCH   1  16
BRANCH  13  24
HETATM   24  C   UNL     1      40.825 -12.226   5.721  1.00  0.00     0.426 C 
HETATM   25  F   UNL     1      39.593 -11.905   5.238  1.00  0.00    -0.168 F 
HETATM   26  F   UNL     1      40.655 -13.319   6.498  1.00  0.00    -0.168 F 
HETATM   27  F   UNL     1      41.220 -11.209   6.495  1.00  0.00    -0.168 F 
ENDBRANCH  13  24
BRANCH  13  28
HETATM   28  C   UNL     1      43.179 -12.401   5.068  1.00  0.00     0.426 C 
HETATM   29  F   UNL     1      44.037 -12.215   4.036  1.00  0.00    -0.168 F 
HETATM   30  F   UNL     1      43.378 -11.438   5.973  1.00  0.00    -0.168 F 
HETATM   31  F   UNL     1      43.544 -13.578   5.650  1.00  0.00    -0.168 F 
ENDBRANCH  13  28
BRANCH  10  32
HETATM   32  C   UNL     1      40.766 -15.911   2.872  1.00  0.00     0.114 C 
BRANCH  32  33
HETATM   33  C   UNL     1      41.967 -16.723   3.289  1.00  0.00    -0.051 A 
HETATM   34  C   UNL     1      42.664 -17.491   2.344  1.00  0.00     0.007 A 
HETATM   35  C   UNL     1      43.749 -18.275   2.734  1.00  0.00     0.001 A 
HETATM   36  C   UNL     1      44.146 -18.303   4.069  1.00  0.00     0.000 A 
HETATM   37  C   UNL     1      43.463 -17.544   5.015  1.00  0.00     0.001 A 
HETATM   38  C   UNL     1      42.377 -16.756   4.630  1.00  0.00     0.007 A 
ENDBRANCH  32  33
ENDBRANCH  10  32
TORSDOF 6
ENDMDL
MODEL 7
REMARK VINA RESULT:      -9.1      3.319      5.616
REMARK  6 active torsions:
REMARK  status: ('A' for Active; 'I' for Inactive)
REMARK    1  A    between atoms: O_2  and  C_3 
REMARK    2  A    between atoms: C_6  and  N_7 
REMARK    3  A    between atoms: C_16  and  C_17 
REMARK    4  A    between atoms: C_17  and  C_18 
REMARK    5  A    between atoms: C_26  and  C_27 
REMARK    6  A    between atoms: C_26  and  C_31 
ROOT
HETATM    1  N   UNL     1      40.650 -12.166   0.768  1.00  0.00    -0.249 N 
HETATM    2  C   UNL     1      39.656 -12.883   0.082  1.00  0.00     0.335 C 
HETATM    3  O   UNL     1      38.909 -12.432  -0.782  1.00  0.00    -0.246 OA
HETATM    4  N   UNL     1      39.492 -14.185   0.469  1.00  0.00    -0.274 N 
HETATM    5  C   UNL     1      40.025 -14.737   1.583  1.00  0.00     0.262 C 
HETATM    6  O   UNL     1      39.618 -15.772   2.080  1.00  0.00    -0.267 OA
HETATM    7  C   UNL     1      41.158 -14.033   2.183  1.00  0.00     0.101 C 
HETATM    8  C   UNL     1      41.413 -12.789   1.756  1.00  0.00     0.132 C 
HETATM    9  N   UNL     1      42.506 -12.121   2.272  1.00  0.00    -0.331 N 
HETATM   10  C   UNL     1      43.246 -12.597   3.251  1.00  0.00     0.084 C 
HETATM   11  N   UNL     1      43.038 -13.793   3.756  1.00  0.00    -0.351 N 
HETATM   12  H   UNL     1      43.618 -14.111   4.538  1.00  0.00     0.162 HD
HETATM   13  C   UNL     1      41.985 -14.773   3.209  1.00  0.00     0.264 C 
HETATM   14  H   UNL     1      38.696 -14.657   0.052  1.00  0.00     0.173 HD
HETATM   15  H   UNL     1      42.742 -11.201   1.907  1.00  0.00     0.168 HD
ENDROOT
BRANCH   1  16
HETATM   16  C   UNL     1      40.828 -10.786   0.407  1.00  0.00     0.045 A 
HETATM   17  C   UNL     1      40.244  -9.763   1.168  1.00  0.00     0.033 A 
HETATM   18  C   UNL     1      40.493  -8.423   0.860  1.00  0.00     0.039 A 
HETATM   19  C   UNL     1      41.318  -8.079  -0.212  1.00  0.00     0.068 A 
HETATM   20  C   UNL     1      41.868  -9.089  -0.998  1.00  0.00     0.039 A 
HETATM   21  C   UNL     1      41.618 -10.434  -0.695  1.00  0.00     0.033 A 
BRANCH  19  22
HETATM   22  O   UNL     1      41.501  -6.736  -0.383  1.00  0.00    -0.356 OA
HETATM   23  C   UNL     1      42.738  -6.318  -0.951  1.00  0.00     0.210 C 
ENDBRANCH  19  22
ENDBRANCH   1  16
BRANCH  13  24
HETATM   24  C   UNL     1      42.749 -15.952   2.597  1.00  0.00     0.426 C 
HETATM   25  F   UNL     1      43.286 -15.555   1.411  1.00  0.00    -0.168 F 
HETATM   26  F   UNL     1      43.789 -16.302   3.386  1.00  0.00    -0.168 F 
HETATM   27  F   UNL     1      42.014 -17.042   2.351  1.00  0.00    -0.168 F 
ENDBRANCH  13  24
BRANCH  13  28
HETATM   28  C   UNL     1      41.227 -15.338   4.416  1.00  0.00     0.426 C 
HETATM   29  F   UNL     1      40.219 -14.503   4.763  1.00  0.00    -0.168 F 
HETATM   30  F   UNL     1      40.737 -16.574   4.277  1.00  0.00    -0.168 F 
HETATM   31  F   UNL     1      42.076 -15.363   5.483  1.00  0.00    -0.168 F 
ENDBRANCH  13  28
BRANCH  10  32
HETATM   32  C   UNL     1      44.338 -11.744   3.807  1.00  0.00     0.114 C 
BRANCH  32  33
HETATM   33  C   UNL     1      44.106 -11.416   5.261  1.00  0.00    -0.051 A 
HETATM   34  C   UNL     1      42.918 -10.786   5.663  1.00  0.00     0.007 A 
HETATM   35  C   UNL     1      42.718 -10.444   7.000  1.00  0.00     0.001 A 
HETATM   36  C   UNL     1      43.701 -10.724   7.947  1.00  0.00     0.000 A 
HETATM   37  C   UNL     1      44.883 -11.348   7.560  1.00  0.00     0.001 A 
HETATM   38  C   UNL     1      45.088 -11.695   6.223  1.00  0.00     0.007 A 
ENDBRANCH  32  33
ENDBRANCH  10  32
TORSDOF 6
ENDMDL
MODEL 8
REMARK VINA RESULT:      -9.0      4.920      7.918
REMARK  6 active torsions:
REMARK  status: ('A' for Active; 'I' for Inactive)
REMARK    1  A    between atoms: O_2  and  C_3 
REMARK    2  A    between atoms: C_6  and  N_7 
REMARK    3  A    between atoms: C_16  and  C_17 
REMARK    4  A    between atoms: C_17  and  C_18 
REMARK    5  A    between atoms: C_26  and  C_27 
REMARK    6  A    between atoms: C_26  and  C_31 
ROOT
HETATM    1  N   UNL     1      44.087 -11.136   6.536  1.00  0.00    -0.249 N 
HETATM    2  C   UNL     1      45.457 -10.950   6.775  1.00  0.00     0.335 C 
HETATM    3  O   UNL     1      46.375 -11.473   6.150  1.00  0.00    -0.246 OA
HETATM    4  N   UNL     1      45.769 -10.150   7.841  1.00  0.00    -0.274 N 
HETATM    5  C   UNL     1      44.893  -9.741   8.788  1.00  0.00     0.262 C 
HETATM    6  O   UNL     1      45.233  -9.317   9.877  1.00  0.00    -0.267 OA
HETATM    7  C   UNL     1      43.474  -9.814   8.440  1.00  0.00     0.101 C 
HETATM    8  C   UNL     1      43.138 -10.506   7.343  1.00  0.00     0.132 C 
HETATM    9  N   UNL     1      41.810 -10.550   6.966  1.00  0.00    -0.331 N 
HETATM   10  C   UNL     1      40.837 -10.043   7.694  1.00  0.00     0.084 C 
HETATM   11  N   UNL     1      41.077  -9.384   8.806  1.00  0.00    -0.351 N 
HETATM   12  H   UNL     1      40.288  -9.034   9.358  1.00  0.00     0.162 HD
HETATM   13  C   UNL     1      42.494  -9.068   9.316  1.00  0.00     0.264 C 
HETATM   14  H   UNL     1      46.756 -10.118   8.076  1.00  0.00     0.173 HD
HETATM   15  H   UNL     1      41.555 -11.020   6.101  1.00  0.00     0.168 HD
ENDROOT
BRANCH   1  16
HETATM   16  C   UNL     1      43.724 -11.995   5.442  1.00  0.00     0.045 A 
HETATM   17  C   UNL     1      43.411 -13.345   5.662  1.00  0.00     0.033 A 
HETATM   18  C   UNL     1      42.977 -14.151   4.606  1.00  0.00     0.039 A 
HETATM   19  C   UNL     1      42.856 -13.631   3.316  1.00  0.00     0.068 A 
HETATM   20  C   UNL     1      43.204 -12.303   3.082  1.00  0.00     0.039 A 
HETATM   21  C   UNL     1      43.643 -11.493   4.137  1.00  0.00     0.033 A 
BRANCH  19  22
HETATM   22  O   UNL     1      42.393 -14.519   2.386  1.00  0.00    -0.356 OA
HETATM   23  C   UNL     1      43.349 -15.389   1.790  1.00  0.00     0.210 C 
ENDBRANCH  19  22
ENDBRANCH   1  16
BRANCH  13  24
HETATM   24  C   UNL     1      42.673  -7.550   9.224  1.00  0.00     0.426 C 
HETATM   25  F   UNL     1      42.850  -7.209   7.918  1.00  0.00    -0.168 F 
HETATM   26  F   UNL     1      41.551  -6.915   9.632  1.00  0.00    -0.168 F 
HETATM   27  F   UNL     1      43.714  -7.055   9.903  1.00  0.00    -0.168 F 
ENDBRANCH  13  24
BRANCH  13  28
HETATM   28  C   UNL     1      42.520  -9.410  10.811  1.00  0.00     0.426 C 
HETATM   29  F   UNL     1      42.937 -10.687  10.987  1.00  0.00    -0.168 F 
HETATM   30  F   UNL     1      43.254  -8.605  11.585  1.00  0.00    -0.168 F 
HETATM   31  F   UNL     1      41.243  -9.364  11.285  1.00  0.00    -0.168 F 
ENDBRANCH  13  28
BRANCH  10  32
HETATM   32  C   UNL     1      39.426 -10.242   7.247  1.00  0.00     0.114 C 
BRANCH  32  33
HETATM   33  C   UNL     1      39.356 -10.888   5.886  1.00  0.00    -0.051 A 
HETATM   34  C   UNL     1      39.552 -12.271   5.748  1.00  0.00     0.007 A 
HETATM   35  C   UNL     1      39.529 -12.865   4.487  1.00  0.00     0.001 A 
HETATM   36  C   UNL     1      39.314 -12.086   3.352  1.00  0.00     0.000 A 
HETATM   37  C   UNL     1      39.118 -10.713   3.477  1.00  0.00     0.001 A 
HETATM   38  C   UNL     1      39.138 -10.113   4.738  1.00  0.00     0.007 A 
ENDBRANCH  32  33
ENDBRANCH  10  32
TORSDOF 6
ENDMDL
MODEL 9
REMARK VINA RESULT:      -8.9      7.544     10.004
REMARK  6 active torsions:
REMARK  status: ('A' for Active; 'I' for Inactive)
REMARK    1  A    between atoms: O_2  and  C_3 
REMARK    2  A    between atoms: C_6  and  N_7 
REMARK    3  A    between atoms: C_16  and  C_17 
REMARK    4  A    between atoms: C_17  and  C_18 
REMARK    5  A    between atoms: C_26  and  C_27 
REMARK    6  A    between atoms: C_26  and  C_31 
ROOT
HETATM    1  N   UNL     1      40.133  -8.423   9.460  1.00  0.00    -0.249 N 
HETATM    2  C   UNL     1      38.997  -7.607   9.581  1.00  0.00     0.335 C 
HETATM    3  O   UNL     1      38.179  -7.375   8.696  1.00  0.00    -0.246 OA
HETATM    4  N   UNL     1      38.840  -6.985  10.790  1.00  0.00    -0.274 N 
HETATM    5  C   UNL     1      39.788  -6.908  11.752  1.00  0.00     0.262 C 
HETATM    6  O   UNL     1      39.759  -6.097  12.660  1.00  0.00    -0.267 OA
HETATM    7  C   UNL     1      40.881  -7.877  11.671  1.00  0.00     0.101 C 
HETATM    8  C   UNL     1      41.006  -8.580  10.537  1.00  0.00     0.132 C 
HETATM    9  N   UNL     1      42.000  -9.535  10.453  1.00  0.00    -0.331 N 
HETATM   10  C   UNL     1      42.910  -9.712  11.388  1.00  0.00     0.084 C 
HETATM   11  N   UNL     1      42.885  -9.034  12.515  1.00  0.00    -0.351 N 
HETATM   12  H   UNL     1      43.631  -9.182  13.201  1.00  0.00     0.162 HD
HETATM   13  C   UNL     1      41.764  -8.048  12.886  1.00  0.00     0.264 C 
HETATM   14  H   UNL     1      38.084  -6.309  10.828  1.00  0.00     0.173 HD
HETATM   15  H   UNL     1      42.061 -10.115   9.621  1.00  0.00     0.168 HD
ENDROOT
BRANCH   1  16
HETATM   16  C   UNL     1      40.344  -9.067   8.193  1.00  0.00     0.045 A 
HETATM   17  C   UNL     1      41.372  -8.648   7.336  1.00  0.00     0.033 A 
HETATM   18  C   UNL     1      41.624  -9.335   6.145  1.00  0.00     0.039 A 
HETATM   19  C   UNL     1      40.853 -10.442   5.784  1.00  0.00     0.068 A 
HETATM   20  C   UNL     1      39.803 -10.838   6.609  1.00  0.00     0.039 A 
HETATM   21  C   UNL     1      39.546 -10.150   7.802  1.00  0.00     0.033 A 
BRANCH  19  22
HETATM   22  O   UNL     1      41.226 -11.036   4.612  1.00  0.00    -0.356 OA
HETATM   23  C   UNL     1      42.467 -10.630   4.045  1.00  0.00     0.210 C 
ENDBRANCH  19  22
ENDBRANCH   1  16
BRANCH  13  24
HETATM   24  C   UNL     1      41.009  -8.656  14.071  1.00  0.00     0.426 C 
HETATM   25  F   UNL     1      40.338  -9.760  13.641  1.00  0.00    -0.168 F 
HETATM   26  F   UNL     1      41.876  -9.085  15.016  1.00  0.00    -0.168 F 
HETATM   27  F   UNL     1      40.111  -7.852  14.650  1.00  0.00    -0.168 F 
ENDBRANCH  13  24
BRANCH  13  28
HETATM   28  C   UNL     1      42.442  -6.779  13.419  1.00  0.00     0.426 C 
HETATM   29  F   UNL     1      42.673  -5.915  12.403  1.00  0.00    -0.168 F 
HETATM   30  F   UNL     1      41.796  -6.135  14.396  1.00  0.00    -0.168 F 
HETATM   31  F   UNL     1      43.668  -7.120  13.908  1.00  0.00    -0.168 F 
ENDBRANCH  13  28
BRANCH  10  32
HETATM   32  C   UNL     1      44.006 -10.698  11.147  1.00  0.00     0.114 C 
BRANCH  32  33
HETATM   33  C   UNL     1      44.637 -10.513   9.790  1.00  0.00    -0.051 A 
HETATM   34  C   UNL     1      45.580  -9.494   9.582  1.00  0.00     0.007 A 
HETATM   35  C   UNL     1      46.134  -9.294   8.318  1.00  0.00     0.001 A 
HETATM   36  C   UNL     1      45.752 -10.104   7.251  1.00  0.00     0.000 A 
HETATM   37  C   UNL     1      44.818 -11.118   7.447  1.00  0.00     0.001 A 
HETATM   38  C   UNL     1      44.261 -11.325   8.710  1.00  0.00     0.007 A 
ENDBRANCH  32  33
ENDBRANCH  10  32
TORSDOF 6
ENDMDL
MODEL 10
REMARK VINA RESULT:      -8.7      3.268      6.354
REMARK  6 active torsions:
REMARK  status: ('A' for Active; 'I' for Inactive)
REMARK    1  A    between atoms: O_2  and  C_3 
REMARK    2  A    between atoms: C_6  and  N_7 
REMARK    3  A    between atoms: C_16  and  C_17 
REMARK    4  A    between atoms: C_17  and  C_18 
REMARK    5  A    between atoms: C_26  and  C_27 
REMARK    6  A    between atoms: C_26  and  C_31 
ROOT
HETATM    1  N   UNL     1      40.371 -11.825   4.038  1.00  0.00    -0.249 N 
HETATM    2  C   UNL     1      40.332 -12.306   5.356  1.00  0.00     0.335 C 
HETATM    3  O   UNL     1      40.038 -11.653   6.354  1.00  0.00    -0.246 OA
HETATM    4  N   UNL     1      40.713 -13.610   5.522  1.00  0.00    -0.274 N 
HETATM    5  C   UNL     1      41.332 -14.363   4.583  1.00  0.00     0.262 C 
HETATM    6  O   UNL     1      41.945 -15.384   4.839  1.00  0.00    -0.267 OA
HETATM    7  C   UNL     1      41.221 -13.903   3.199  1.00  0.00     0.101 C 
HETATM    8  C   UNL     1      40.755 -12.664   2.991  1.00  0.00     0.132 C 
HETATM    9  N   UNL     1      40.595 -12.223   1.693  1.00  0.00    -0.331 N 
HETATM   10  C   UNL     1      40.988 -12.914   0.643  1.00  0.00     0.084 C 
HETATM   11  N   UNL     1      41.495 -14.122   0.761  1.00  0.00    -0.351 N 
HETATM   12  H   UNL     1      41.816 -14.611  -0.080  1.00  0.00     0.162 HD
HETATM   13  C   UNL     1      41.598 -14.871   2.101  1.00  0.00     0.264 C 
HETATM   14  H   UNL     1      40.796 -13.911   6.487  1.00  0.00     0.173 HD
HETATM   15  H   UNL     1      40.183 -11.308   1.527  1.00  0.00     0.168 HD
ENDROOT
BRANCH   1  16
HETATM   16  C   UNL     1      40.005 -10.450   3.833  1.00  0.00     0.045 A 
HETATM   17  C   UNL     1      38.663 -10.081   3.662  1.00  0.00     0.033 A 
HETATM   18  C   UNL     1      38.309  -8.733   3.549  1.00  0.00     0.039 A 
HETATM   19  C   UNL     1      39.283  -7.734   3.595  1.00  0.00     0.068 A 
HETATM   20  C   UNL     1      40.623  -8.095   3.723  1.00  0.00     0.039 A 
HETATM   21  C   UNL     1      40.981  -9.445   3.833  1.00  0.00     0.033 A 
BRANCH  19  22
HETATM   22  O   UNL     1      38.797  -6.461   3.503  1.00  0.00    -0.356 OA
HETATM   23  C   UNL     1      37.383  -6.303   3.541  1.00  0.00     0.210 C 
ENDBRANCH  19  22
ENDBRANCH   1  16
BRANCH  13  24
HETATM   24  C   UNL     1      40.637 -16.061   2.022  1.00  0.00     0.426 C 
HETATM   25  F   UNL     1      40.037 -16.057   0.800  1.00  0.00    -0.168 F 
HETATM   26  F   UNL     1      41.319 -17.226   2.105  1.00  0.00    -0.168 F 
HETATM   27  F   UNL     1      39.663 -16.071   2.938  1.00  0.00    -0.168 F 
ENDBRANCH  13  24
BRANCH  13  28
HETATM   28  C   UNL     1      43.009 -15.467   2.174  1.00  0.00     0.426 C 
HETATM   29  F   UNL     1      43.907 -14.499   2.476  1.00  0.00    -0.168 F 
HETATM   30  F   UNL     1      43.173 -16.488   3.022  1.00  0.00    -0.168 F 
HETATM   31  F   UNL     1      43.349 -15.920   0.934  1.00  0.00    -0.168 F 
ENDBRANCH  13  28
BRANCH  10  32
HETATM   32  C   UNL     1      40.868 -12.296  -0.711  1.00  0.00     0.114 C 
BRANCH  32  33
HETATM   33  C   UNL     1      39.739 -12.905  -1.506  1.00  0.00    -0.051 A 
HETATM   34  C   UNL     1      39.976 -14.011  -2.337  1.00  0.00     0.007 A 
HETATM   35  C   UNL     1      38.944 -14.549  -3.105  1.00  0.00     0.001 A 
HETATM   36  C   UNL     1      37.669 -13.989  -3.053  1.00  0.00     0.000 A 
HETATM   37  C   UNL     1      37.423 -12.893  -2.232  1.00  0.00     0.001 A 
HETATM   38  C   UNL     1      38.452 -12.350  -1.459  1.00  0.00     0.007 A 
ENDBRANCH  32  33
ENDBRANCH  10  32
TORSDOF 6
ENDMDL
