MODEL 1
REMARK VINA RESULT:      -8.9      0.000      0.000
REMARK  3 active torsions:
REMARK  status: ('A' for Active; 'I' for Inactive)
REMARK    1  A    between atoms: C_10  and  N_11 
REMARK       I    between atoms: N_11  and  C_12 
REMARK    2  A    between atoms: C_12  and  C_13 
REMARK    3  A    between atoms: C_18  and  N_19 
ROOT
HETATM    1  N   UNL     1      42.142 -14.354   2.666  1.00  0.00    -0.323 N 
HETATM    2  C   UNL     1      41.712 -14.399   3.977  1.00  0.00     0.258 C 
HETATM    3  O   UNL     1      40.653 -13.976   4.426  1.00  0.00    -0.267 OA
HETATM    4  H   UNL     1      43.050 -14.757   2.469  1.00  0.00     0.169 HD
ENDROOT
BRANCH   2   5
HETATM    5  C   UNL     1      42.608 -15.139   4.905  1.00  0.00     0.056 A 
HETATM    6  C   UNL     1      43.318 -14.548   5.951  1.00  0.00     0.050 A 
HETATM    7 CL   UNL     1      43.179 -12.880   6.369  1.00  0.00    -0.083 Cl
HETATM    8  C   UNL     1      44.180 -15.334   6.716  1.00  0.00     0.027 A 
HETATM    9  C   UNL     1      44.337 -16.698   6.437  1.00  0.00     0.031 A 
HETATM   10  C   UNL     1      43.630 -17.315   5.399  1.00  0.00     0.038 A 
HETATM   11  C   UNL     1      42.750 -16.518   4.653  1.00  0.00     0.048 A 
BRANCH  10  12
HETATM   12  N   UNL     1      43.801 -18.691   5.088  1.00  0.00    -0.318 N 
HETATM   13  C   UNL     1      44.056 -19.229   3.816  1.00  0.00     0.224 C 
HETATM   14  O   UNL     1      44.238 -18.652   2.755  1.00  0.00    -0.273 OA
HETATM   15  C   UNL     1      43.981 -20.734   3.928  1.00  0.00     0.105 C 
HETATM   16  C   UNL     1      44.152 -20.981   5.414  1.00  0.00     0.029 C 
HETATM   17  C   UNL     1      43.549 -19.744   6.046  1.00  0.00     0.133 C 
ENDBRANCH  10  12
ENDBRANCH   2   5
BRANCH   1  18
HETATM   18  C   UNL     1      41.452 -13.847   1.545  1.00  0.00     0.035 A 
HETATM   19  C   UNL     1      41.337 -12.490   1.248  1.00  0.00     0.032 A 
HETATM   20  C   UNL     1      40.606 -12.042   0.138  1.00  0.00     0.033 A 
HETATM   21  C   UNL     1      39.985 -13.004  -0.663  1.00  0.00     0.042 A 
HETATM   22  N   UNL     1      39.202 -12.861  -1.786  1.00  0.00    -0.359 N 
HETATM   23  C   UNL     1      40.085 -14.368  -0.405  1.00  0.00    -0.005 A 
HETATM   24  C   UNL     1      38.787 -14.088  -2.242  1.00  0.00     0.006 A 
HETATM   25  H   UNL     1      38.960 -11.972  -2.201  1.00  0.00     0.166 HD
HETATM   26  C   UNL     1      37.906 -14.239  -3.426  1.00  0.00     0.068 C 
HETATM   27  C   UNL     1      39.335 -15.041  -1.407  1.00  0.00     0.038 A 
HETATM   28  C   UNL     1      40.837 -14.794   0.709  1.00  0.00     0.043 A 
ENDBRANCH   1  18
TORSDOF 3
ENDMDL
MODEL 2
REMARK VINA RESULT:      -8.6      4.193      7.663
REMARK  3 active torsions:
REMARK  status: ('A' for Active; 'I' for Inactive)
REMARK    1  A    between atoms: C_10  and  N_11 
REMARK       I    between atoms: N_11  and  C_12 
REMARK    2  A    between atoms: C_12  and  C_13 
REMARK    3  A    between atoms: C_18  and  N_19 
ROOT
HETATM    1  N   UNL     1      42.916 -13.982   5.131  1.00  0.00    -0.323 N 
HETATM    2  C   UNL     1      41.689 -13.415   5.409  1.00  0.00     0.258 C 
HETATM    3  O   UNL     1      40.612 -13.990   5.515  1.00  0.00    -0.267 OA
HETATM    4  H   UNL     1      43.709 -13.353   5.084  1.00  0.00     0.169 HD
ENDROOT
BRANCH   2   5
HETATM    5  C   UNL     1      41.725 -11.959   5.710  1.00  0.00     0.056 A 
HETATM    6  C   UNL     1      41.075 -10.983   4.952  1.00  0.00     0.050 A 
HETATM    7 CL   UNL     1      40.058 -11.348   3.607  1.00  0.00    -0.083 Cl
HETATM    8  C   UNL     1      41.234  -9.641   5.293  1.00  0.00     0.027 A 
HETATM    9  C   UNL     1      42.040  -9.272   6.378  1.00  0.00     0.031 A 
HETATM   10  C   UNL     1      42.696 -10.232   7.157  1.00  0.00     0.038 A 
HETATM   11  C   UNL     1      42.509 -11.579   6.818  1.00  0.00     0.048 A 
BRANCH  10  12
HETATM   12  N   UNL     1      43.539  -9.870   8.244  1.00  0.00    -0.318 N 
HETATM   13  C   UNL     1      44.942  -9.927   8.260  1.00  0.00     0.224 C 
HETATM   14  O   UNL     1      45.714 -10.230   7.364  1.00  0.00    -0.273 OA
HETATM   15  C   UNL     1      45.399  -9.627   9.669  1.00  0.00     0.105 C 
HETATM   16  C   UNL     1      44.199  -8.935  10.283  1.00  0.00     0.029 C 
HETATM   17  C   UNL     1      43.025  -9.560   9.559  1.00  0.00     0.133 C 
ENDBRANCH  10  12
ENDBRANCH   2   5
BRANCH   1  18
HETATM   18  C   UNL     1      43.218 -15.347   4.941  1.00  0.00     0.035 A 
HETATM   19  C   UNL     1      43.850 -16.146   5.893  1.00  0.00     0.032 A 
HETATM   20  C   UNL     1      44.158 -17.489   5.635  1.00  0.00     0.033 A 
HETATM   21  C   UNL     1      43.818 -18.004   4.381  1.00  0.00     0.042 A 
HETATM   22  N   UNL     1      44.011 -19.259   3.849  1.00  0.00    -0.359 N 
HETATM   23  C   UNL     1      43.178 -17.241   3.408  1.00  0.00    -0.005 A 
HETATM   24  C   UNL     1      43.529 -19.316   2.564  1.00  0.00     0.006 A 
HETATM   25  H   UNL     1      44.459 -20.021   4.338  1.00  0.00     0.166 HD
HETATM   26  C   UNL     1      43.626 -20.541   1.733  1.00  0.00     0.068 C 
HETATM   27  C   UNL     1      42.995 -18.077   2.273  1.00  0.00     0.038 A 
HETATM   28  C   UNL     1      42.866 -15.898   3.697  1.00  0.00     0.043 A 
ENDBRANCH   1  18
TORSDOF 3
ENDMDL
MODEL 3
REMARK VINA RESULT:      -8.5      4.561      7.760
REMARK  3 active torsions:
REMARK  status: ('A' for Active; 'I' for Inactive)
REMARK    1  A    between atoms: C_10  and  N_11 
REMARK       I    between atoms: N_11  and  C_12 
REMARK    2  A    between atoms: C_12  and  C_13 
REMARK    3  A    between atoms: C_18  and  N_19 
ROOT
HETATM    1  N   UNL     1      42.712 -13.020   4.525  1.00  0.00    -0.323 N 
HETATM    2  C   UNL     1      43.398 -11.826   4.449  1.00  0.00     0.258 C 
HETATM    3  O   UNL     1      44.324 -11.548   3.695  1.00  0.00    -0.267 OA
HETATM    4  H   UNL     1      41.966 -13.075   5.208  1.00  0.00     0.169 HD
ENDROOT
BRANCH   2   5
HETATM    5  C   UNL     1      42.867 -10.741   5.316  1.00  0.00     0.056 A 
HETATM    6  C   UNL     1      41.920  -9.800   4.908  1.00  0.00     0.050 A 
HETATM    7 CL   UNL     1      41.163  -9.827   3.357  1.00  0.00    -0.083 Cl
HETATM    8  C   UNL     1      41.545  -8.788   5.790  1.00  0.00     0.027 A 
HETATM    9  C   UNL     1      42.113  -8.708   7.067  1.00  0.00     0.031 A 
HETATM   10  C   UNL     1      43.059  -9.643   7.503  1.00  0.00     0.038 A 
HETATM   11  C   UNL     1      43.410 -10.670   6.615  1.00  0.00     0.048 A 
BRANCH  10  12
HETATM   12  N   UNL     1      43.665  -9.559   8.786  1.00  0.00    -0.318 N 
HETATM   13  C   UNL     1      42.994  -9.482  10.017  1.00  0.00     0.224 C 
HETATM   14  O   UNL     1      41.796  -9.528  10.249  1.00  0.00    -0.273 OA
HETATM   15  C   UNL     1      44.026  -9.224  11.089  1.00  0.00     0.105 C 
HETATM   16  C   UNL     1      45.324  -9.650  10.432  1.00  0.00     0.029 C 
HETATM   17  C   UNL     1      45.085  -9.358   8.966  1.00  0.00     0.133 C 
ENDBRANCH  10  12
ENDBRANCH   2   5
BRANCH   1  18
HETATM   18  C   UNL     1      42.892 -14.176   3.736  1.00  0.00     0.035 A 
HETATM   19  C   UNL     1      42.796 -14.193   2.345  1.00  0.00     0.032 A 
HETATM   20  C   UNL     1      42.948 -15.381   1.615  1.00  0.00     0.033 A 
HETATM   21  C   UNL     1      43.192 -16.557   2.330  1.00  0.00     0.042 A 
HETATM   22  N   UNL     1      43.362 -17.850   1.890  1.00  0.00    -0.359 N 
HETATM   23  C   UNL     1      43.303 -16.578   3.717  1.00  0.00    -0.005 A 
HETATM   24  C   UNL     1      43.563 -18.697   2.953  1.00  0.00     0.006 A 
HETATM   25  H   UNL     1      43.328 -18.129   0.919  1.00  0.00     0.166 HD
HETATM   26  C   UNL     1      43.750 -20.158   2.779  1.00  0.00     0.068 C 
HETATM   27  C   UNL     1      43.544 -17.926   4.098  1.00  0.00     0.038 A 
HETATM   28  C   UNL     1      43.161 -15.369   4.427  1.00  0.00     0.043 A 
ENDBRANCH   1  18
TORSDOF 3
ENDMDL
MODEL 4
REMARK VINA RESULT:      -8.4      3.711      9.240
REMARK  3 active torsions:
REMARK  status: ('A' for Active; 'I' for Inactive)
REMARK    1  A    between atoms: C_10  and  N_11 
REMARK       I    between atoms: N_11  and  C_12 
REMARK    2  A    between atoms: C_12  and  C_13 
REMARK    3  A    between atoms: C_18  and  N_19 
ROOT
HETATM    1  N   UNL     1      41.987 -13.766   0.746  1.00  0.00    -0.323 N 
HETATM    2  C   UNL     1      40.740 -13.236   0.487  1.00  0.00     0.258 C 
HETATM    3  O   UNL     1      39.721 -13.375   1.154  1.00  0.00    -0.267 OA
HETATM    4  H   UNL     1      42.724 -13.544   0.086  1.00  0.00     0.169 HD
ENDROOT
BRANCH   2   5
HETATM    5  C   UNL     1      40.680 -12.314  -0.679  1.00  0.00     0.056 A 
HETATM    6  C   UNL     1      40.482 -12.726  -1.997  1.00  0.00     0.050 A 
HETATM    7 CL   UNL     1      40.185 -14.366  -2.445  1.00  0.00    -0.083 Cl
HETATM    8  C   UNL     1      40.510 -11.776  -3.017  1.00  0.00     0.027 A 
HETATM    9  C   UNL     1      40.739 -10.425  -2.726  1.00  0.00     0.031 A 
HETATM   10  C   UNL     1      40.933  -9.986  -1.412  1.00  0.00     0.038 A 
HETATM   11  C   UNL     1      40.880 -10.948  -0.394  1.00  0.00     0.048 A 
BRANCH  10  12
HETATM   12  N   UNL     1      41.195  -8.622  -1.105  1.00  0.00    -0.318 N 
HETATM   13  C   UNL     1      42.454  -8.001  -1.094  1.00  0.00     0.224 C 
HETATM   14  O   UNL     1      43.545  -8.461  -1.390  1.00  0.00    -0.273 OA
HETATM   15  C   UNL     1      42.275  -6.607  -0.539  1.00  0.00     0.105 C 
HETATM   16  C   UNL     1      40.791  -6.353  -0.709  1.00  0.00     0.029 C 
HETATM   17  C   UNL     1      40.182  -7.733  -0.581  1.00  0.00     0.133 C 
ENDBRANCH  10  12
ENDBRANCH   2   5
BRANCH   1  18
HETATM   18  C   UNL     1      42.383 -14.554   1.846  1.00  0.00     0.035 A 
HETATM   19  C   UNL     1      42.541 -14.063   3.142  1.00  0.00     0.032 A 
HETATM   20  C   UNL     1      42.974 -14.888   4.190  1.00  0.00     0.033 A 
HETATM   21  C   UNL     1      43.252 -16.225   3.894  1.00  0.00     0.042 A 
HETATM   22  N   UNL     1      43.702 -17.244   4.703  1.00  0.00    -0.359 N 
HETATM   23  C   UNL     1      43.097 -16.754   2.616  1.00  0.00    -0.005 A 
HETATM   24  C   UNL     1      43.853 -18.401   3.978  1.00  0.00     0.006 A 
HETATM   25  H   UNL     1      43.903 -17.141   5.687  1.00  0.00     0.166 HD
HETATM   26  C   UNL     1      44.351 -19.659   4.586  1.00  0.00     0.068 C 
HETATM   27  C   UNL     1      43.470 -18.124   2.681  1.00  0.00     0.038 A 
HETATM   28  C   UNL     1      42.647 -15.909   1.582  1.00  0.00     0.043 A 
ENDBRANCH   1  18
TORSDOF 3
ENDMDL
MODEL 5
REMARK VINA RESULT:      -8.3      7.564     11.261
REMARK  3 active torsions:
REMARK  status: ('A' for Active; 'I' for Inactive)
REMARK    1  A    between atoms: C_10  and  N_11 
REMARK       I    between atoms: N_11  and  C_12 
REMARK    2  A    between atoms: C_12  and  C_13 
REMARK    3  A    between atoms: C_18  and  N_19 
ROOT
HETATM    1  N   UNL     1      43.115 -10.186  10.527  1.00  0.00    -0.323 N 
HETATM    2  C   UNL     1      42.974  -9.722   9.236  1.00  0.00     0.258 C 
HETATM    3  O   UNL     1      42.233  -8.827   8.845  1.00  0.00    -0.267 OA
HETATM    4  H   UNL     1      43.781 -10.936  10.673  1.00  0.00     0.169 HD
ENDROOT
BRANCH   2   5
HETATM    5  C   UNL     1      43.910 -10.322   8.248  1.00  0.00     0.056 A 
HETATM    6  C   UNL     1      45.301 -10.236   8.330  1.00  0.00     0.050 A 
HETATM    7 CL   UNL     1      46.130  -9.495   9.650  1.00  0.00    -0.083 Cl
HETATM    8  C   UNL     1      46.076 -10.782   7.308  1.00  0.00     0.027 A 
HETATM    9  C   UNL     1      45.471 -11.405   6.209  1.00  0.00     0.031 A 
HETATM   10  C   UNL     1      44.079 -11.511   6.108  1.00  0.00     0.038 A 
HETATM   11  C   UNL     1      43.312 -10.978   7.154  1.00  0.00     0.048 A 
BRANCH  10  12
HETATM   12  N   UNL     1      43.451 -12.116   4.985  1.00  0.00    -0.318 N 
HETATM   13  C   UNL     1      42.814 -13.367   4.965  1.00  0.00     0.224 C 
HETATM   14  O   UNL     1      42.618 -14.150   5.882  1.00  0.00    -0.273 OA
HETATM   15  C   UNL     1      42.457 -13.679   3.530  1.00  0.00     0.105 C 
HETATM   16  C   UNL     1      42.500 -12.322   2.858  1.00  0.00     0.029 C 
HETATM   17  C   UNL     1      43.552 -11.573   3.649  1.00  0.00     0.133 C 
ENDBRANCH  10  12
ENDBRANCH   2   5
BRANCH   1  18
HETATM   18  C   UNL     1      42.472  -9.718  11.692  1.00  0.00     0.035 A 
HETATM   19  C   UNL     1      41.211 -10.142  12.111  1.00  0.00     0.032 A 
HETATM   20  C   UNL     1      40.604  -9.613  13.259  1.00  0.00     0.033 A 
HETATM   21  C   UNL     1      41.303  -8.635  13.972  1.00  0.00     0.042 A 
HETATM   22  N   UNL     1      40.955  -7.937  15.106  1.00  0.00    -0.359 N 
HETATM   23  C   UNL     1      42.567  -8.194  13.592  1.00  0.00    -0.005 A 
HETATM   24  C   UNL     1      41.949  -7.054  15.451  1.00  0.00     0.006 A 
HETATM   25  H   UNL     1      40.081  -8.054  15.600  1.00  0.00     0.166 HD
HETATM   26  C   UNL     1      41.835  -6.147  16.620  1.00  0.00     0.068 C 
HETATM   27  C   UNL     1      42.968  -7.205  14.532  1.00  0.00     0.038 A 
HETATM   28  C   UNL     1      43.162  -8.751  12.442  1.00  0.00     0.043 A 
ENDBRANCH   1  18
TORSDOF 3
ENDMDL
MODEL 6
REMARK VINA RESULT:      -8.2      4.188      8.051
REMARK  3 active torsions:
REMARK  status: ('A' for Active; 'I' for Inactive)
REMARK    1  A    between atoms: C_10  and  N_11 
REMARK       I    between atoms: N_11  and  C_12 
REMARK    2  A    between atoms: C_12  and  C_13 
REMARK    3  A    between atoms: C_18  and  N_19 
ROOT
HETATM    1  N   UNL     1      42.745 -13.696   4.712  1.00  0.00    -0.323 N 
HETATM    2  C   UNL     1      41.487 -13.132   4.783  1.00  0.00     0.258 C 
HETATM    3  O   UNL     1      40.410 -13.717   4.777  1.00  0.00    -0.267 OA
HETATM    4  H   UNL     1      43.532 -13.058   4.733  1.00  0.00     0.169 HD
ENDROOT
BRANCH   2   5
HETATM    5  C   UNL     1      41.470 -11.660   4.993  1.00  0.00     0.056 A 
HETATM    6  C   UNL     1      41.698 -10.719   3.987  1.00  0.00     0.050 A 
HETATM    7 CL   UNL     1      41.939 -11.141   2.331  1.00  0.00    -0.083 Cl
HETATM    8  C   UNL     1      41.722  -9.365   4.316  1.00  0.00     0.027 A 
HETATM    9  C   UNL     1      41.527  -8.950   5.640  1.00  0.00     0.031 A 
HETATM   10  C   UNL     1      41.290  -9.873   6.665  1.00  0.00     0.038 A 
HETATM   11  C   UNL     1      41.245 -11.230   6.316  1.00  0.00     0.048 A 
BRANCH  10  12
HETATM   12  N   UNL     1      41.119  -9.468   8.017  1.00  0.00    -0.318 N 
HETATM   13  C   UNL     1      39.920  -9.042   8.610  1.00  0.00     0.224 C 
HETATM   14  O   UNL     1      38.798  -8.983   8.130  1.00  0.00    -0.273 OA
HETATM   15  C   UNL     1      40.244  -8.541   9.998  1.00  0.00     0.105 C 
HETATM   16  C   UNL     1      41.591  -9.170  10.288  1.00  0.00     0.029 C 
HETATM   17  C   UNL     1      42.231  -9.275   8.920  1.00  0.00     0.133 C 
ENDBRANCH  10  12
ENDBRANCH   2   5
BRANCH   1  18
HETATM   18  C   UNL     1      43.079 -15.064   4.652  1.00  0.00     0.035 A 
HETATM   19  C   UNL     1      43.672 -15.769   5.699  1.00  0.00     0.032 A 
HETATM   20  C   UNL     1      44.018 -17.122   5.569  1.00  0.00     0.033 A 
HETATM   21  C   UNL     1      43.755 -17.745   4.346  1.00  0.00     0.042 A 
HETATM   22  N   UNL     1      43.998 -19.035   3.931  1.00  0.00    -0.359 N 
HETATM   23  C   UNL     1      43.156 -17.079   3.282  1.00  0.00    -0.005 A 
HETATM   24  C   UNL     1      43.588 -19.207   2.631  1.00  0.00     0.006 A 
HETATM   25  H   UNL     1      44.432 -19.745   4.505  1.00  0.00     0.166 HD
HETATM   26  C   UNL     1      43.751 -20.494   1.912  1.00  0.00     0.068 C 
HETATM   27  C   UNL     1      43.049 -18.008   2.211  1.00  0.00     0.038 A 
HETATM   28  C   UNL     1      42.805 -15.723   3.441  1.00  0.00     0.043 A 
ENDBRANCH   1  18
TORSDOF 3
ENDMDL
MODEL 7
REMARK VINA RESULT:      -8.0      1.730      2.367
REMARK  3 active torsions:
REMARK  status: ('A' for Active; 'I' for Inactive)
REMARK    1  A    between atoms: C_10  and  N_11 
REMARK       I    between atoms: N_11  and  C_12 
REMARK    2  A    between atoms: C_12  and  C_13 
REMARK    3  A    between atoms: C_18  and  N_19 
ROOT
HETATM    1  N   UNL     1      41.406 -14.793   1.949  1.00  0.00    -0.323 N 
HETATM    2  C   UNL     1      42.693 -14.610   2.409  1.00  0.00     0.258 C 
HETATM    3  O   UNL     1      43.578 -13.937   1.893  1.00  0.00    -0.267 OA
HETATM    4  H   UNL     1      40.801 -15.384   2.508  1.00  0.00     0.169 HD
ENDROOT
BRANCH   2   5
HETATM    5  C   UNL     1      42.980 -15.226   3.732  1.00  0.00     0.056 A 
HETATM    6  C   UNL     1      43.138 -14.506   4.917  1.00  0.00     0.050 A 
HETATM    7 CL   UNL     1      42.928 -12.796   5.023  1.00  0.00    -0.083 Cl
HETATM    8  C   UNL     1      43.471 -15.187   6.087  1.00  0.00     0.027 A 
HETATM    9  C   UNL     1      43.650 -16.576   6.076  1.00  0.00     0.031 A 
HETATM   10  C   UNL     1      43.490 -17.322   4.903  1.00  0.00     0.038 A 
HETATM   11  C   UNL     1      43.133 -16.627   3.738  1.00  0.00     0.048 A 
BRANCH  10  12
HETATM   12  N   UNL     1      43.697 -18.728   4.871  1.00  0.00    -0.318 N 
HETATM   13  C   UNL     1      43.597 -19.606   5.962  1.00  0.00     0.224 C 
HETATM   14  O   UNL     1      43.267 -19.373   7.115  1.00  0.00    -0.273 OA
HETATM   15  C   UNL     1      44.074 -20.965   5.505  1.00  0.00     0.105 C 
HETATM   16  C   UNL     1      43.975 -20.879   3.996  1.00  0.00     0.029 C 
HETATM   17  C   UNL     1      44.222 -19.413   3.711  1.00  0.00     0.133 C 
ENDBRANCH  10  12
ENDBRANCH   2   5
BRANCH   1  18
HETATM   18  C   UNL     1      40.803 -14.225   0.808  1.00  0.00     0.035 A 
HETATM   19  C   UNL     1      39.958 -14.919  -0.057  1.00  0.00     0.032 A 
HETATM   20  C   UNL     1      39.417 -14.312  -1.199  1.00  0.00     0.033 A 
HETATM   21  C   UNL     1      39.760 -12.980  -1.451  1.00  0.00     0.042 A 
HETATM   22  N   UNL     1      39.401 -12.147  -2.486  1.00  0.00    -0.359 N 
HETATM   23  C   UNL     1      40.592 -12.251  -0.607  1.00  0.00    -0.005 A 
HETATM   24  C   UNL     1      39.991 -10.915  -2.337  1.00  0.00     0.006 A 
HETATM   25  H   UNL     1      38.800 -12.417  -3.252  1.00  0.00     0.166 HD
HETATM   26  C   UNL     1      39.803  -9.821  -3.321  1.00  0.00     0.068 C 
HETATM   27  C   UNL     1      40.725 -10.952  -1.169  1.00  0.00     0.038 A 
HETATM   28  C   UNL     1      41.112 -12.880   0.542  1.00  0.00     0.043 A 
ENDBRANCH   1  18
TORSDOF 3
ENDMDL
MODEL 8
REMARK VINA RESULT:      -7.8      5.732      9.074
REMARK  3 active torsions:
REMARK  status: ('A' for Active; 'I' for Inactive)
REMARK    1  A    between atoms: C_10  and  N_11 
REMARK       I    between atoms: N_11  and  C_12 
REMARK    2  A    between atoms: C_12  and  C_13 
REMARK    3  A    between atoms: C_18  and  N_19 
ROOT
HETATM    1  N   UNL     1      43.484 -12.511   7.372  1.00  0.00    -0.323 N 
HETATM    2  C   UNL     1      43.368 -11.151   7.171  1.00  0.00     0.258 C 
HETATM    3  O   UNL     1      42.965 -10.580   6.163  1.00  0.00    -0.267 OA
HETATM    4  H   UNL     1      43.834 -12.810   8.274  1.00  0.00     0.169 HD
ENDROOT
BRANCH   2   5
HETATM    5  C   UNL     1      43.675 -10.312   8.360  1.00  0.00     0.056 A 
HETATM    6  C   UNL     1      44.965 -10.028   8.810  1.00  0.00     0.050 A 
HETATM    7 CL   UNL     1      46.392 -10.539   7.984  1.00  0.00    -0.083 Cl
HETATM    8  C   UNL     1      45.129  -9.283   9.977  1.00  0.00     0.027 A 
HETATM    9  C   UNL     1      44.015  -8.830  10.695  1.00  0.00     0.031 A 
HETATM   10  C   UNL     1      42.712  -9.096  10.261  1.00  0.00     0.038 A 
HETATM   11  C   UNL     1      42.562  -9.826   9.074  1.00  0.00     0.048 A 
BRANCH  10  12
HETATM   12  N   UNL     1      41.573  -8.666  10.995  1.00  0.00    -0.318 N 
HETATM   13  C   UNL     1      41.007  -9.314  12.105  1.00  0.00     0.224 C 
HETATM   14  O   UNL     1      41.388 -10.314  12.694  1.00  0.00    -0.273 OA
HETATM   15  C   UNL     1      39.716  -8.606  12.443  1.00  0.00     0.105 C 
HETATM   16  C   UNL     1      39.869  -7.260  11.764  1.00  0.00     0.029 C 
HETATM   17  C   UNL     1      40.734  -7.571  10.561  1.00  0.00     0.133 C 
ENDBRANCH  10  12
ENDBRANCH   2   5
BRANCH   1  18
HETATM   18  C   UNL     1      43.135 -13.551   6.486  1.00  0.00     0.035 A 
HETATM   19  C   UNL     1      41.976 -13.560   5.711  1.00  0.00     0.032 A 
HETATM   20  C   UNL     1      41.663 -14.641   4.874  1.00  0.00     0.033 A 
HETATM   21  C   UNL     1      42.550 -15.721   4.846  1.00  0.00     0.042 A 
HETATM   22  N   UNL     1      42.494 -16.904   4.146  1.00  0.00    -0.359 N 
HETATM   23  C   UNL     1      43.722 -15.744   5.597  1.00  0.00    -0.005 A 
HETATM   24  C   UNL     1      43.584 -17.688   4.439  1.00  0.00     0.006 A 
HETATM   25  H   UNL     1      41.744 -17.159   3.518  1.00  0.00     0.166 HD
HETATM   26  C   UNL     1      43.775 -19.035   3.848  1.00  0.00     0.068 C 
HETATM   27  C   UNL     1      44.368 -16.981   5.329  1.00  0.00     0.038 A 
HETATM   28  C   UNL     1      44.022 -14.640   6.420  1.00  0.00     0.043 A 
ENDBRANCH   1  18
TORSDOF 3
ENDMDL
MODEL 9
REMARK VINA RESULT:      -7.7      3.747      8.038
REMARK  3 active torsions:
REMARK  status: ('A' for Active; 'I' for Inactive)
REMARK    1  A    between atoms: C_10  and  N_11 
REMARK       I    between atoms: N_11  and  C_12 
REMARK    2  A    between atoms: C_12  and  C_13 
REMARK    3  A    between atoms: C_18  and  N_19 
ROOT
HETATM    1  N   UNL     1      41.560 -13.939   3.105  1.00  0.00    -0.323 N 
HETATM    2  C   UNL     1      40.239 -13.689   2.795  1.00  0.00     0.258 C 
HETATM    3  O   UNL     1      39.415 -14.485   2.359  1.00  0.00    -0.267 OA
HETATM    4  H   UNL     1      42.101 -13.159   3.460  1.00  0.00     0.169 HD
ENDROOT
BRANCH   2   5
HETATM    5  C   UNL     1      39.763 -12.322   3.133  1.00  0.00     0.056 A 
HETATM    6  C   UNL     1      39.088 -11.482   2.245  1.00  0.00     0.050 A 
HETATM    7 CL   UNL     1      38.630 -11.958   0.651  1.00  0.00    -0.083 Cl
HETATM    8  C   UNL     1      38.748 -10.193   2.655  1.00  0.00     0.027 A 
HETATM    9  C   UNL     1      39.082  -9.742   3.938  1.00  0.00     0.031 A 
HETATM   10  C   UNL     1      39.752 -10.567   4.849  1.00  0.00     0.038 A 
HETATM   11  C   UNL     1      40.068 -11.868   4.432  1.00  0.00     0.048 A 
BRANCH  10  12
HETATM   12  N   UNL     1      40.122 -10.113   6.144  1.00  0.00    -0.318 N 
HETATM   13  C   UNL     1      39.429 -10.361   7.340  1.00  0.00     0.224 C 
HETATM   14  O   UNL     1      38.432 -11.040   7.529  1.00  0.00    -0.273 OA
HETATM   15  C   UNL     1      40.079  -9.538   8.428  1.00  0.00     0.105 C 
HETATM   16  C   UNL     1      41.444  -9.218   7.853  1.00  0.00     0.029 C 
HETATM   17  C   UNL     1      41.193  -9.166   6.361  1.00  0.00     0.133 C 
ENDBRANCH  10  12
ENDBRANCH   2   5
BRANCH   1  18
HETATM   18  C   UNL     1      42.253 -15.165   3.027  1.00  0.00     0.035 A 
HETATM   19  C   UNL     1      42.750 -15.706   1.842  1.00  0.00     0.032 A 
HETATM   20  C   UNL     1      43.399 -16.949   1.819  1.00  0.00     0.033 A 
HETATM   21  C   UNL     1      43.525 -17.639   3.028  1.00  0.00     0.042 A 
HETATM   22  N   UNL     1      44.088 -18.864   3.303  1.00  0.00    -0.359 N 
HETATM   23  C   UNL     1      43.051 -17.127   4.233  1.00  0.00    -0.005 A 
HETATM   24  C   UNL     1      43.974 -19.157   4.640  1.00  0.00     0.006 A 
HETATM   25  H   UNL     1      44.511 -19.464   2.608  1.00  0.00     0.166 HD
HETATM   26  C   UNL     1      44.470 -20.429   5.219  1.00  0.00     0.068 C 
HETATM   27  C   UNL     1      43.344 -18.086   5.241  1.00  0.00     0.038 A 
HETATM   28  C   UNL     1      42.415 -15.869   4.232  1.00  0.00     0.043 A 
ENDBRANCH   1  18
TORSDOF 3
ENDMDL
MODEL 10
REMARK VINA RESULT:      -7.6      2.730      8.324
REMARK  3 active torsions:
REMARK  status: ('A' for Active; 'I' for Inactive)
REMARK    1  A    between atoms: C_10  and  N_11 
REMARK       I    between atoms: N_11  and  C_12 
REMARK    2  A    between atoms: C_12  and  C_13 
REMARK    3  A    between atoms: C_18  and  N_19 
ROOT
HETATM    1  N   UNL     1      41.887 -13.962   2.891  1.00  0.00    -0.323 N 
HETATM    2  C   UNL     1      40.590 -13.710   2.496  1.00  0.00     0.258 C 
HETATM    3  O   UNL     1      39.661 -14.508   2.444  1.00  0.00    -0.267 OA
HETATM    4  H   UNL     1      42.529 -13.178   2.877  1.00  0.00     0.169 HD
ENDROOT
BRANCH   2   5
HETATM    5  C   UNL     1      40.289 -12.283   2.206  1.00  0.00     0.056 A 
HETATM    6  C   UNL     1      39.723 -11.396   3.123  1.00  0.00     0.050 A 
HETATM    7 CL   UNL     1      39.380 -11.816   4.762  1.00  0.00    -0.083 Cl
HETATM    8  C   UNL     1      39.425 -10.096   2.717  1.00  0.00     0.027 A 
HETATM    9  C   UNL     1      39.683  -9.684   1.403  1.00  0.00     0.031 A 
HETATM   10  C   UNL     1      40.256 -10.552   0.467  1.00  0.00     0.038 A 
HETATM   11  C   UNL     1      40.573 -11.848   0.896  1.00  0.00     0.048 A 
BRANCH  10  12
HETATM   12  N   UNL     1      40.498 -10.155  -0.877  1.00  0.00    -0.318 N 
HETATM   13  C   UNL     1      41.599  -9.417  -1.339  1.00  0.00     0.224 C 
HETATM   14  O   UNL     1      42.578  -9.022  -0.725  1.00  0.00    -0.273 OA
HETATM   15  C   UNL     1      41.348  -9.074  -2.789  1.00  0.00     0.105 C 
HETATM   16  C   UNL     1      40.290 -10.075  -3.205  1.00  0.00     0.029 C 
HETATM   17  C   UNL     1      39.517 -10.320  -1.926  1.00  0.00     0.133 C 
ENDBRANCH  10  12
ENDBRANCH   2   5
BRANCH   1  18
HETATM   18  C   UNL     1      42.432 -15.178   3.356  1.00  0.00     0.035 A 
HETATM   19  C   UNL     1      43.051 -15.331   4.596  1.00  0.00     0.032 A 
HETATM   20  C   UNL     1      43.608 -16.556   4.990  1.00  0.00     0.033 A 
HETATM   21  C   UNL     1      43.530 -17.625   4.092  1.00  0.00     0.042 A 
HETATM   22  N   UNL     1      43.997 -18.915   4.198  1.00  0.00    -0.359 N 
HETATM   23  C   UNL     1      42.912 -17.513   2.851  1.00  0.00    -0.005 A 
HETATM   24  C   UNL     1      43.709 -19.625   3.057  1.00  0.00     0.006 A 
HETATM   25  H   UNL     1      44.493 -19.277   5.001  1.00  0.00     0.166 HD
HETATM   26  C   UNL     1      44.117 -21.040   2.879  1.00  0.00     0.068 C 
HETATM   27  C   UNL     1      43.023 -18.778   2.211  1.00  0.00     0.038 A 
HETATM   28  C   UNL     1      42.347 -16.275   2.483  1.00  0.00     0.043 A 
ENDBRANCH   1  18
TORSDOF 3
ENDMDL
