MODEL 1
REMARK VINA RESULT:      -9.0      0.000      0.000
REMARK  3 active torsions:
REMARK  status: ('A' for Active; 'I' for Inactive)
REMARK    1  A    between atoms: C_4  and  C_5 
REMARK    2  A    between atoms: C_11  and  C_12 
REMARK    3  A    between atoms: C_21  and  N_22 
ROOT
HETATM    1  C   UNL     1      43.376 -17.073   5.918  1.00  0.00     0.098 C 
HETATM    2  N   UNL     1      43.478 -17.630   7.143  1.00  0.00    -0.172 NA
HETATM    3  N   UNL     1      43.414 -16.597   7.998  1.00  0.00    -0.256 N 
HETATM    4  H   UNL     1      43.535 -16.773   8.989  1.00  0.00     0.191 HD
HETATM    5  C   UNL     1      43.276 -15.408   7.368  1.00  0.00     0.175 C 
HETATM    6  C   UNL     1      43.126 -15.671   6.028  1.00  0.00     0.036 C 
HETATM    7  C   UNL     1      42.918 -14.528   5.084  1.00  0.00     0.077 C 
HETATM    8  C   UNL     1      43.424 -13.232   5.773  1.00  0.00     0.076 C 
HETATM    9  C   UNL     1      43.727 -12.124   4.927  1.00  0.00     0.100 C 
HETATM   10  N   UNL     1      43.944 -11.222   4.231  1.00  0.00    -0.192 NA
HETATM   11  C   UNL     1      43.596 -13.134   7.120  1.00  0.00     0.140 C 
HETATM   12  O   UNL     1      43.367 -14.229   7.969  1.00  0.00    -0.279 OA
ENDROOT
BRANCH   7  13
HETATM   13  C   UNL     1      41.447 -14.301   4.587  1.00  0.00     0.003 C 
HETATM   14  C   UNL     1      40.510 -15.526   4.694  1.00  0.00     0.032 C 
HETATM   15  C   UNL     1      40.442 -16.371   3.463  1.00  0.00    -0.030 C 
HETATM   16  C   UNL     1      40.807 -15.931   2.254  1.00  0.00    -0.031 C 
HETATM   17  C   UNL     1      41.309 -14.548   1.993  1.00  0.00     0.027 C 
HETATM   18  C   UNL     1      41.320 -13.621   3.209  1.00  0.00     0.009 C 
ENDBRANCH   7  13
BRANCH  11  19
HETATM   19  N   UNL     1      44.002 -12.008   7.799  1.00  0.00    -0.282 NA
HETATM   20  H   UNL     1      44.743 -11.468   7.356  1.00  0.00     0.126 HD
HETATM   21  H   UNL     1      43.217 -11.437   8.100  1.00  0.00     0.126 HD
ENDBRANCH  11  19
BRANCH   1  22
HETATM   22  C   UNL     1      43.551 -17.912   4.730  1.00  0.00    -0.005 A 
HETATM   23  C   UNL     1      43.743 -19.295   4.874  1.00  0.00     0.014 A 
HETATM   24  C   UNL     1      43.898 -20.117   3.756  1.00  0.00     0.001 A 
HETATM   25  C   UNL     1      43.877 -19.562   2.478  1.00  0.00     0.000 A 
HETATM   26  C   UNL     1      43.715 -18.188   2.320  1.00  0.00     0.001 A 
HETATM   27  C   UNL     1      43.560 -17.365   3.440  1.00  0.00     0.014 A 
ENDBRANCH   1  22
TORSDOF 3
ENDMDL
MODEL 2
REMARK VINA RESULT:      -8.9      1.987      2.579
REMARK  3 active torsions:
REMARK  status: ('A' for Active; 'I' for Inactive)
REMARK    1  A    between atoms: C_4  and  C_5 
REMARK    2  A    between atoms: C_11  and  C_12 
REMARK    3  A    between atoms: C_21  and  N_22 
ROOT
HETATM    1  C   UNL     1      41.710 -15.927   4.541  1.00  0.00     0.098 C 
HETATM    2  N   UNL     1      40.485 -16.211   5.030  1.00  0.00    -0.172 NA
HETATM    3  N   UNL     1      40.050 -15.059   5.564  1.00  0.00    -0.256 N 
HETATM    4  H   UNL     1      39.163 -15.049   6.053  1.00  0.00     0.191 HD
HETATM    5  C   UNL     1      40.947 -14.055   5.434  1.00  0.00     0.175 C 
HETATM    6  C   UNL     1      41.988 -14.533   4.676  1.00  0.00     0.036 C 
HETATM    7  C   UNL     1      43.122 -13.615   4.341  1.00  0.00     0.077 C 
HETATM    8  C   UNL     1      43.116 -12.445   5.362  1.00  0.00     0.076 C 
HETATM    9  C   UNL     1      44.329 -11.707   5.510  1.00  0.00     0.100 C 
HETATM   10  N   UNL     1      45.312 -11.100   5.602  1.00  0.00    -0.192 NA
HETATM   11  C   UNL     1      42.024 -12.124   6.107  1.00  0.00     0.140 C 
HETATM   12  O   UNL     1      40.838 -12.873   6.028  1.00  0.00    -0.279 OA
ENDROOT
BRANCH   7  13
HETATM   13  C   UNL     1      43.128 -13.024   2.888  1.00  0.00     0.003 C 
HETATM   14  C   UNL     1      42.249 -11.770   2.673  1.00  0.00     0.032 C 
HETATM   15  C   UNL     1      40.862 -12.053   2.195  1.00  0.00    -0.030 C 
HETATM   16  C   UNL     1      40.511 -13.205   1.612  1.00  0.00    -0.031 C 
HETATM   17  C   UNL     1      41.463 -14.329   1.361  1.00  0.00     0.027 C 
HETATM   18  C   UNL     1      42.913 -14.054   1.761  1.00  0.00     0.009 C 
ENDBRANCH   7  13
BRANCH  11  19
HETATM   19  N   UNL     1      41.936 -11.080   6.999  1.00  0.00    -0.282 NA
HETATM   20  H   UNL     1      41.481 -10.239   6.651  1.00  0.00     0.126 HD
HETATM   21  H   UNL     1      41.588 -11.378   7.907  1.00  0.00     0.126 HD
ENDBRANCH  11  19
BRANCH   1  22
HETATM   22  C   UNL     1      42.540 -17.010   4.007  1.00  0.00    -0.005 A 
HETATM   23  C   UNL     1      43.604 -17.515   4.771  1.00  0.00     0.014 A 
HETATM   24  C   UNL     1      44.400 -18.556   4.289  1.00  0.00     0.001 A 
HETATM   25  C   UNL     1      44.151 -19.095   3.029  1.00  0.00     0.000 A 
HETATM   26  C   UNL     1      43.115 -18.586   2.248  1.00  0.00     0.001 A 
HETATM   27  C   UNL     1      42.318 -17.543   2.731  1.00  0.00     0.014 A 
ENDBRANCH   1  22
TORSDOF 3
ENDMDL
MODEL 3
REMARK VINA RESULT:      -8.1     14.281     16.004
REMARK  3 active torsions:
REMARK  status: ('A' for Active; 'I' for Inactive)
REMARK    1  A    between atoms: C_4  and  C_5 
REMARK    2  A    between atoms: C_11  and  C_12 
REMARK    3  A    between atoms: C_21  and  N_22 
ROOT
HETATM    1  C   UNL     1      44.293 -29.688  -0.096  1.00  0.00     0.098 C 
HETATM    2  N   UNL     1      43.187 -29.095   0.401  1.00  0.00    -0.172 NA
HETATM    3  N   UNL     1      43.434 -28.946   1.711  1.00  0.00    -0.256 N 
HETATM    4  H   UNL     1      42.706 -28.573   2.308  1.00  0.00     0.191 HD
HETATM    5  C   UNL     1      44.651 -29.418   2.069  1.00  0.00     0.175 C 
HETATM    6  C   UNL     1      45.294 -29.801   0.916  1.00  0.00     0.036 C 
HETATM    7  C   UNL     1      46.688 -30.337   1.009  1.00  0.00     0.077 C 
HETATM    8  C   UNL     1      46.926 -30.820   2.465  1.00  0.00     0.076 C 
HETATM    9  C   UNL     1      47.993 -31.745   2.676  1.00  0.00     0.100 C 
HETATM   10  N   UNL     1      48.879 -32.475   2.838  1.00  0.00    -0.192 NA
HETATM   11  C   UNL     1      46.158 -30.411   3.512  1.00  0.00     0.140 C 
HETATM   12  O   UNL     1      45.062 -29.552   3.323  1.00  0.00    -0.279 OA
ENDROOT
BRANCH   7  13
HETATM   13  C   UNL     1      47.838 -29.349   0.606  1.00  0.00     0.003 C 
HETATM   14  C   UNL     1      47.380 -27.950   0.132  1.00  0.00     0.032 C 
HETATM   15  C   UNL     1      47.199 -27.818  -1.345  1.00  0.00    -0.030 C 
HETATM   16  C   UNL     1      47.754 -28.656  -2.227  1.00  0.00    -0.031 C 
HETATM   17  C   UNL     1      48.625 -29.808  -1.840  1.00  0.00     0.027 C 
HETATM   18  C   UNL     1      48.904 -29.936  -0.342  1.00  0.00     0.009 C 
ENDBRANCH   7  13
BRANCH  11  19
HETATM   19  N   UNL     1      46.336 -30.767   4.829  1.00  0.00    -0.282 NA
HETATM   20  H   UNL     1      46.385 -31.766   5.013  1.00  0.00     0.126 HD
HETATM   21  H   UNL     1      47.085 -30.240   5.271  1.00  0.00     0.126 HD
ENDBRANCH  11  19
BRANCH   1  22
HETATM   22  C   UNL     1      44.307 -30.130  -1.493  1.00  0.00    -0.005 A 
HETATM   23  C   UNL     1      43.991 -29.222  -2.515  1.00  0.00     0.014 A 
HETATM   24  C   UNL     1      44.012 -29.615  -3.855  1.00  0.00     0.001 A 
HETATM   25  C   UNL     1      44.334 -30.930  -4.187  1.00  0.00     0.000 A 
HETATM   26  C   UNL     1      44.623 -31.849  -3.181  1.00  0.00     0.001 A 
HETATM   27  C   UNL     1      44.603 -31.455  -1.840  1.00  0.00     0.014 A 
ENDBRANCH   1  22
TORSDOF 3
ENDMDL
MODEL 4
REMARK VINA RESULT:      -8.0      3.047      5.809
REMARK  3 active torsions:
REMARK  status: ('A' for Active; 'I' for Inactive)
REMARK    1  A    between atoms: C_4  and  C_5 
REMARK    2  A    between atoms: C_11  and  C_12 
REMARK    3  A    between atoms: C_21  and  N_22 
ROOT
HETATM    1  C   UNL     1      41.367 -11.848   1.410  1.00  0.00     0.098 C 
HETATM    2  N   UNL     1      41.783 -10.589   1.160  1.00  0.00    -0.172 NA
HETATM    3  N   UNL     1      42.068 -10.073   2.366  1.00  0.00    -0.256 N 
HETATM    4  H   UNL     1      42.344  -9.101   2.431  1.00  0.00     0.191 HD
HETATM    5  C   UNL     1      41.852 -10.952   3.372  1.00  0.00     0.175 C 
HETATM    6  C   UNL     1      41.512 -12.153   2.798  1.00  0.00     0.036 C 
HETATM    7  C   UNL     1      41.246 -13.330   3.684  1.00  0.00     0.077 C 
HETATM    8  C   UNL     1      40.920 -12.802   5.107  1.00  0.00     0.076 C 
HETATM    9  C   UNL     1      40.223 -13.687   5.983  1.00  0.00     0.100 C 
HETATM   10  N   UNL     1      39.680 -14.425   6.694  1.00  0.00    -0.192 NA
HETATM   11  C   UNL     1      41.257 -11.551   5.523  1.00  0.00     0.140 C 
HETATM   12  O   UNL     1      41.886 -10.637   4.660  1.00  0.00    -0.279 OA
ENDROOT
BRANCH   7  13
HETATM   13  C   UNL     1      42.396 -14.393   3.785  1.00  0.00     0.003 C 
HETATM   14  C   UNL     1      43.526 -14.256   2.739  1.00  0.00     0.032 C 
HETATM   15  C   UNL     1      43.334 -15.070   1.501  1.00  0.00    -0.030 C 
HETATM   16  C   UNL     1      42.510 -16.122   1.438  1.00  0.00    -0.031 C 
HETATM   17  C   UNL     1      41.702 -16.610   2.597  1.00  0.00     0.027 C 
HETATM   18  C   UNL     1      41.926 -15.857   3.908  1.00  0.00     0.009 C 
ENDBRANCH   7  13
BRANCH  11  19
HETATM   19  N   UNL     1      41.035 -11.033   6.778  1.00  0.00    -0.282 NA
HETATM   20  H   UNL     1      40.059 -10.902   7.036  1.00  0.00     0.126 HD
HETATM   21  H   UNL     1      41.576 -11.512   7.493  1.00  0.00     0.126 HD
ENDBRANCH  11  19
BRANCH   1  22
HETATM   22  C   UNL     1      40.836 -12.661   0.314  1.00  0.00    -0.005 A 
HETATM   23  C   UNL     1      41.023 -12.249  -1.015  1.00  0.00     0.014 A 
HETATM   24  C   UNL     1      40.539 -13.015  -2.078  1.00  0.00     0.001 A 
HETATM   25  C   UNL     1      39.847 -14.197  -1.823  1.00  0.00     0.000 A 
HETATM   26  C   UNL     1      39.630 -14.605  -0.509  1.00  0.00     0.001 A 
HETATM   27  C   UNL     1      40.115 -13.838   0.555  1.00  0.00     0.014 A 
ENDBRANCH   1  22
TORSDOF 3
ENDMDL
MODEL 5
REMARK VINA RESULT:      -8.0      2.518      5.802
REMARK  3 active torsions:
REMARK  status: ('A' for Active; 'I' for Inactive)
REMARK    1  A    between atoms: C_4  and  C_5 
REMARK    2  A    between atoms: C_11  and  C_12 
REMARK    3  A    between atoms: C_21  and  N_22 
ROOT
HETATM    1  C   UNL     1      41.363 -12.198   2.504  1.00  0.00     0.098 C 
HETATM    2  N   UNL     1      42.452 -11.414   2.367  1.00  0.00    -0.172 NA
HETATM    3  N   UNL     1      43.288 -11.810   3.340  1.00  0.00    -0.256 N 
HETATM    4  H   UNL     1      44.160 -11.311   3.471  1.00  0.00     0.191 HD
HETATM    5  C   UNL     1      42.775 -12.812   4.090  1.00  0.00     0.175 C 
HETATM    6  C   UNL     1      41.582 -13.181   3.517  1.00  0.00     0.036 C 
HETATM    7  C   UNL     1      40.803 -14.305   4.126  1.00  0.00     0.077 C 
HETATM    8  C   UNL     1      41.277 -14.484   5.594  1.00  0.00     0.076 C 
HETATM    9  C   UNL     1      40.399 -15.178   6.479  1.00  0.00     0.100 C 
HETATM   10  N   UNL     1      39.687 -15.765   7.181  1.00  0.00    -0.192 NA
HETATM   11  C   UNL     1      42.465 -14.000   6.047  1.00  0.00     0.140 C 
HETATM   12  O   UNL     1      43.320 -13.258   5.214  1.00  0.00    -0.279 OA
ENDROOT
BRANCH   7  13
HETATM   13  C   UNL     1      40.891 -15.687   3.389  1.00  0.00     0.003 C 
HETATM   14  C   UNL     1      42.144 -16.535   3.708  1.00  0.00     0.032 C 
HETATM   15  C   UNL     1      43.289 -16.337   2.768  1.00  0.00    -0.030 C 
HETATM   16  C   UNL     1      43.149 -15.813   1.546  1.00  0.00    -0.031 C 
HETATM   17  C   UNL     1      41.837 -15.380   0.976  1.00  0.00     0.027 C 
HETATM   18  C   UNL     1      40.624 -15.638   1.871  1.00  0.00     0.009 C 
ENDBRANCH   7  13
BRANCH  11  19
HETATM   19  N   UNL     1      42.964 -14.156   7.320  1.00  0.00    -0.282 NA
HETATM   20  H   UNL     1      43.973 -14.061   7.414  1.00  0.00     0.126 HD
HETATM   21  H   UNL     1      42.446 -13.611   8.005  1.00  0.00     0.126 HD
ENDBRANCH  11  19
BRANCH   1  22
HETATM   22  C   UNL     1      40.179 -11.937   1.681  1.00  0.00    -0.005 A 
HETATM   23  C   UNL     1      40.275 -12.001   0.282  1.00  0.00     0.014 A 
HETATM   24  C   UNL     1      39.158 -11.771  -0.524  1.00  0.00     0.001 A 
HETATM   25  C   UNL     1      37.933 -11.458   0.061  1.00  0.00     0.000 A 
HETATM   26  C   UNL     1      37.829 -11.365   1.447  1.00  0.00     0.001 A 
HETATM   27  C   UNL     1      38.947 -11.595   2.253  1.00  0.00     0.014 A 
ENDBRANCH   1  22
TORSDOF 3
ENDMDL
MODEL 6
REMARK VINA RESULT:      -7.9      3.323      5.841
REMARK  3 active torsions:
REMARK  status: ('A' for Active; 'I' for Inactive)
REMARK    1  A    between atoms: C_4  and  C_5 
REMARK    2  A    between atoms: C_11  and  C_12 
REMARK    3  A    between atoms: C_21  and  N_22 
ROOT
HETATM    1  C   UNL     1      41.172 -12.729   4.706  1.00  0.00     0.098 C 
HETATM    2  N   UNL     1      40.113 -12.796   5.540  1.00  0.00    -0.172 NA
HETATM    3  N   UNL     1      39.042 -12.862   4.733  1.00  0.00    -0.256 N 
HETATM    4  H   UNL     1      38.117 -12.856   5.146  1.00  0.00     0.191 HD
HETATM    5  C   UNL     1      39.376 -12.839   3.422  1.00  0.00     0.175 C 
HETATM    6  C   UNL     1      40.747 -12.874   3.350  1.00  0.00     0.036 C 
HETATM    7  C   UNL     1      41.402 -12.892   2.004  1.00  0.00     0.077 C 
HETATM    8  C   UNL     1      40.383 -12.355   0.963  1.00  0.00     0.076 C 
HETATM    9  C   UNL     1      40.911 -11.880  -0.275  1.00  0.00     0.100 C 
HETATM   10  N   UNL     1      41.351 -11.521  -1.287  1.00  0.00    -0.192 NA
HETATM   11  C   UNL     1      39.044 -12.312   1.198  1.00  0.00     0.140 C 
HETATM   12  O   UNL     1      38.503 -12.713   2.431  1.00  0.00    -0.279 OA
ENDROOT
BRANCH   7  13
HETATM   13  C   UNL     1      41.944 -14.282   1.517  1.00  0.00     0.003 C 
HETATM   14  C   UNL     1      40.926 -15.445   1.551  1.00  0.00     0.032 C 
HETATM   15  C   UNL     1      40.940 -16.253   2.808  1.00  0.00    -0.030 C 
HETATM   16  C   UNL     1      41.974 -16.265   3.657  1.00  0.00    -0.031 C 
HETATM   17  C   UNL     1      43.231 -15.488   3.441  1.00  0.00     0.027 C 
HETATM   18  C   UNL     1      43.295 -14.708   2.127  1.00  0.00     0.009 C 
ENDBRANCH   7  13
BRANCH  11  19
HETATM   19  N   UNL     1      38.084 -11.887   0.308  1.00  0.00    -0.282 NA
HETATM   20  H   UNL     1      38.089 -10.891   0.095  1.00  0.00     0.126 HD
HETATM   21  H   UNL     1      38.042 -12.474  -0.521  1.00  0.00     0.126 HD
ENDBRANCH  11  19
BRANCH   1  22
HETATM   22  C   UNL     1      42.510 -12.503   5.259  1.00  0.00    -0.005 A 
HETATM   23  C   UNL     1      42.943 -13.251   6.365  1.00  0.00     0.014 A 
HETATM   24  C   UNL     1      44.219 -13.064   6.901  1.00  0.00     0.001 A 
HETATM   25  C   UNL     1      45.073 -12.114   6.344  1.00  0.00     0.000 A 
HETATM   26  C   UNL     1      44.647 -11.346   5.263  1.00  0.00     0.001 A 
HETATM   27  C   UNL     1      43.370 -11.533   4.727  1.00  0.00     0.014 A 
ENDBRANCH   1  22
TORSDOF 3
ENDMDL
MODEL 7
REMARK VINA RESULT:      -7.9      6.808      9.028
REMARK  3 active torsions:
REMARK  status: ('A' for Active; 'I' for Inactive)
REMARK    1  A    between atoms: C_4  and  C_5 
REMARK    2  A    between atoms: C_11  and  C_12 
REMARK    3  A    between atoms: C_21  and  N_22 
ROOT
HETATM    1  C   UNL     1      43.889 -10.438  10.743  1.00  0.00     0.098 C 
HETATM    2  N   UNL     1      43.894 -11.618  11.397  1.00  0.00    -0.172 NA
HETATM    3  N   UNL     1      43.218 -11.387  12.533  1.00  0.00    -0.256 N 
HETATM    4  H   UNL     1      43.147 -12.127  13.221  1.00  0.00     0.191 HD
HETATM    5  C   UNL     1      42.782 -10.109  12.628  1.00  0.00     0.175 C 
HETATM    6  C   UNL     1      43.088  -9.485  11.443  1.00  0.00     0.036 C 
HETATM    7  C   UNL     1      42.687  -8.055  11.253  1.00  0.00     0.077 C 
HETATM    8  C   UNL     1      42.452  -7.428  12.654  1.00  0.00     0.076 C 
HETATM    9  C   UNL     1      42.492  -6.004  12.742  1.00  0.00     0.100 C 
HETATM   10  N   UNL     1      42.502  -4.846  12.794  1.00  0.00    -0.192 NA
HETATM   11  C   UNL     1      42.230  -8.177  13.768  1.00  0.00     0.140 C 
HETATM   12  O   UNL     1      42.248  -9.581  13.722  1.00  0.00    -0.279 OA
ENDROOT
BRANCH   7  13
HETATM   13  C   UNL     1      41.420  -7.804  10.362  1.00  0.00     0.003 C 
HETATM   14  C   UNL     1      40.811  -9.061   9.699  1.00  0.00     0.032 C 
HETATM   15  C   UNL     1      41.314  -9.347   8.321  1.00  0.00    -0.030 C 
HETATM   16  C   UNL     1      41.907  -8.427   7.553  1.00  0.00    -0.031 C 
HETATM   17  C   UNL     1      42.121  -7.010   7.977  1.00  0.00     0.027 C 
HETATM   18  C   UNL     1      41.551  -6.649   9.349  1.00  0.00     0.009 C 
ENDBRANCH   7  13
BRANCH  11  19
HETATM   19  N   UNL     1      41.975  -7.688  15.029  1.00  0.00    -0.282 NA
HETATM   20  H   UNL     1      41.447  -6.819  15.067  1.00  0.00     0.126 HD
HETATM   21  H   UNL     1      41.613  -8.405  15.653  1.00  0.00     0.126 HD
ENDBRANCH  11  19
BRANCH   1  22
HETATM   22  C   UNL     1      44.671 -10.294   9.513  1.00  0.00    -0.005 A 
HETATM   23  C   UNL     1      44.501 -11.213   8.466  1.00  0.00     0.014 A 
HETATM   24  C   UNL     1      45.224 -11.088   7.278  1.00  0.00     0.001 A 
HETATM   25  C   UNL     1      46.139 -10.048   7.128  1.00  0.00     0.000 A 
HETATM   26  C   UNL     1      46.338  -9.143   8.169  1.00  0.00     0.001 A 
HETATM   27  C   UNL     1      45.614  -9.269   9.358  1.00  0.00     0.014 A 
ENDBRANCH   1  22
TORSDOF 3
ENDMDL
MODEL 8
REMARK VINA RESULT:      -7.8      3.416      5.533
REMARK  3 active torsions:
REMARK  status: ('A' for Active; 'I' for Inactive)
REMARK    1  A    between atoms: C_4  and  C_5 
REMARK    2  A    between atoms: C_11  and  C_12 
REMARK    3  A    between atoms: C_21  and  N_22 
ROOT
HETATM    1  C   UNL     1      41.117 -13.705   4.668  1.00  0.00     0.098 C 
HETATM    2  N   UNL     1      40.618 -14.041   3.460  1.00  0.00    -0.172 NA
HETATM    3  N   UNL     1      39.799 -13.030   3.132  1.00  0.00    -0.256 N 
HETATM    4  H   UNL     1      39.257 -13.096   2.279  1.00  0.00     0.191 HD
HETATM    5  C   UNL     1      39.757 -12.065   4.080  1.00  0.00     0.175 C 
HETATM    6  C   UNL     1      40.682 -12.397   5.040  1.00  0.00     0.036 C 
HETATM    7  C   UNL     1      40.876 -11.478   6.206  1.00  0.00     0.077 C 
HETATM    8  C   UNL     1      39.612 -10.586   6.336  1.00  0.00     0.076 C 
HETATM    9  C   UNL     1      39.387  -9.960   7.599  1.00  0.00     0.100 C 
HETATM   10  N   UNL     1      39.229  -9.438   8.622  1.00  0.00    -0.192 NA
HETATM   11  C   UNL     1      38.733 -10.401   5.313  1.00  0.00     0.140 C 
HETATM   12  O   UNL     1      38.897 -11.055   4.081  1.00  0.00    -0.279 OA
ENDROOT
BRANCH   7  13
HETATM   13  C   UNL     1      42.147 -10.559   6.159  1.00  0.00     0.003 C 
HETATM   14  C   UNL     1      43.063 -10.750   4.928  1.00  0.00     0.032 C 
HETATM   15  C   UNL     1      44.181 -11.722   5.125  1.00  0.00    -0.030 C 
HETATM   16  C   UNL     1      44.623 -12.092   6.332  1.00  0.00    -0.031 C 
HETATM   17  C   UNL     1      44.063 -11.570   7.615  1.00  0.00     0.027 C 
HETATM   18  C   UNL     1      42.970 -10.512   7.463  1.00  0.00     0.009 C 
ENDBRANCH   7  13
BRANCH  11  19
HETATM   19  N   UNL     1      37.618  -9.596   5.346  1.00  0.00    -0.282 NA
HETATM   20  H   UNL     1      37.469  -9.082   6.212  1.00  0.00     0.126 HD
HETATM   21  H   UNL     1      37.541  -9.013   4.517  1.00  0.00     0.126 HD
ENDBRANCH  11  19
BRANCH   1  22
HETATM   22  C   UNL     1      41.951 -14.666   5.395  1.00  0.00    -0.005 A 
HETATM   23  C   UNL     1      42.895 -15.437   4.699  1.00  0.00     0.014 A 
HETATM   24  C   UNL     1      43.711 -16.349   5.372  1.00  0.00     0.001 A 
HETATM   25  C   UNL     1      43.582 -16.511   6.750  1.00  0.00     0.000 A 
HETATM   26  C   UNL     1      42.631 -15.773   7.450  1.00  0.00     0.001 A 
HETATM   27  C   UNL     1      41.814 -14.860   6.776  1.00  0.00     0.014 A 
ENDBRANCH   1  22
TORSDOF 3
ENDMDL
MODEL 9
REMARK VINA RESULT:      -7.7      8.794     12.065
REMARK  3 active torsions:
REMARK  status: ('A' for Active; 'I' for Inactive)
REMARK    1  A    between atoms: C_4  and  C_5 
REMARK    2  A    between atoms: C_11  and  C_12 
REMARK    3  A    between atoms: C_21  and  N_22 
ROOT
HETATM    1  C   UNL     1      42.121  -5.967  12.312  1.00  0.00     0.098 C 
HETATM    2  N   UNL     1      41.953  -4.778  11.695  1.00  0.00    -0.172 NA
HETATM    3  N   UNL     1      42.398  -4.972  10.444  1.00  0.00    -0.256 N 
HETATM    4  H   UNL     1      42.427  -4.185   9.806  1.00  0.00     0.191 HD
HETATM    5  C   UNL     1      42.841  -6.234  10.239  1.00  0.00     0.175 C 
HETATM    6  C   UNL     1      42.574  -6.950  11.381  1.00  0.00     0.036 C 
HETATM    7  C   UNL     1      42.932  -8.403  11.424  1.00  0.00     0.077 C 
HETATM    8  C   UNL     1      44.002  -8.672  10.332  1.00  0.00     0.076 C 
HETATM    9  C   UNL     1      44.792  -9.852  10.474  1.00  0.00     0.100 C 
HETATM   10  N   UNL     1      45.410 -10.827  10.588  1.00  0.00    -0.192 NA
HETATM   11  C   UNL     1      44.210  -7.831   9.282  1.00  0.00     0.140 C 
HETATM   12  O   UNL     1      43.491  -6.630   9.152  1.00  0.00    -0.279 OA
ENDROOT
BRANCH   7  13
HETATM   13  C   UNL     1      41.746  -9.414  11.237  1.00  0.00     0.003 C 
HETATM   14  C   UNL     1      40.498  -8.852  10.518  1.00  0.00     0.032 C 
HETATM   15  C   UNL     1      39.447  -8.301  11.427  1.00  0.00    -0.030 C 
HETATM   16  C   UNL     1      39.369  -8.613  12.725  1.00  0.00    -0.031 C 
HETATM   17  C   UNL     1      40.308  -9.552  13.410  1.00  0.00     0.027 C 
HETATM   18  C   UNL     1      41.352 -10.203  12.502  1.00  0.00     0.009 C 
ENDBRANCH   7  13
BRANCH  11  19
HETATM   19  N   UNL     1      45.111  -8.026   8.261  1.00  0.00    -0.282 NA
HETATM   20  H   UNL     1      44.815  -7.701   7.343  1.00  0.00     0.126 HD
HETATM   21  H   UNL     1      46.048  -7.720   8.511  1.00  0.00     0.126 HD
ENDBRANCH  11  19
BRANCH   1  22
HETATM   22  C   UNL     1      41.865  -6.074  13.750  1.00  0.00    -0.005 A 
HETATM   23  C   UNL     1      42.714  -6.851  14.554  1.00  0.00     0.014 A 
HETATM   24  C   UNL     1      42.499  -6.957  15.930  1.00  0.00     0.001 A 
HETATM   25  C   UNL     1      41.422  -6.297  16.517  1.00  0.00     0.000 A 
HETATM   26  C   UNL     1      40.556  -5.544  15.728  1.00  0.00     0.001 A 
HETATM   27  C   UNL     1      40.771  -5.438  14.351  1.00  0.00     0.014 A 
ENDBRANCH   1  22
TORSDOF 3
ENDMDL
MODEL 10
REMARK VINA RESULT:      -7.6     14.407     16.544
REMARK  3 active torsions:
REMARK  status: ('A' for Active; 'I' for Inactive)
REMARK    1  A    between atoms: C_4  and  C_5 
REMARK    2  A    between atoms: C_11  and  C_12 
REMARK    3  A    between atoms: C_21  and  N_22 
ROOT
HETATM    1  C   UNL     1      46.086 -29.348   0.562  1.00  0.00     0.098 C 
HETATM    2  N   UNL     1      46.516 -28.398   1.419  1.00  0.00    -0.172 NA
HETATM    3  N   UNL     1      47.787 -28.160   1.061  1.00  0.00    -0.256 N 
HETATM    4  H   UNL     1      48.340 -27.516   1.614  1.00  0.00     0.191 HD
HETATM    5  C   UNL     1      48.183 -28.917   0.012  1.00  0.00     0.175 C 
HETATM    6  C   UNL     1      47.084 -29.616  -0.423  1.00  0.00     0.036 C 
HETATM    7  C   UNL     1      47.224 -30.521  -1.609  1.00  0.00     0.077 C 
HETATM    8  C   UNL     1      48.728 -30.860  -1.785  1.00  0.00     0.076 C 
HETATM    9  C   UNL     1      49.046 -32.020  -2.553  1.00  0.00     0.100 C 
HETATM   10  N   UNL     1      49.291 -32.950  -3.200  1.00  0.00    -0.192 NA
HETATM   11  C   UNL     1      49.721 -30.111  -1.232  1.00  0.00     0.140 C 
HETATM   12  O   UNL     1      49.435 -29.001  -0.419  1.00  0.00    -0.279 OA
ENDROOT
BRANCH   7  13
HETATM   13  C   UNL     1      46.661 -29.973  -2.967  1.00  0.00     0.003 C 
HETATM   14  C   UNL     1      46.152 -28.513  -2.938  1.00  0.00     0.032 C 
HETATM   15  C   UNL     1      44.692 -28.365  -2.656  1.00  0.00    -0.030 C 
HETATM   16  C   UNL     1      43.813 -29.361  -2.815  1.00  0.00    -0.031 C 
HETATM   17  C   UNL     1      44.185 -30.723  -3.302  1.00  0.00     0.027 C 
HETATM   18  C   UNL     1      45.656 -30.899  -3.681  1.00  0.00     0.009 C 
ENDBRANCH   7  13
BRANCH  11  19
HETATM   19  N   UNL     1      51.072 -30.330  -1.379  1.00  0.00    -0.282 NA
HETATM   20  H   UNL     1      51.338 -30.945  -2.145  1.00  0.00     0.126 HD
HETATM   21  H   UNL     1      51.606 -29.465  -1.356  1.00  0.00     0.126 HD
ENDBRANCH  11  19
BRANCH   1  22
HETATM   22  C   UNL     1      44.766 -29.952   0.761  1.00  0.00    -0.005 A 
HETATM   23  C   UNL     1      43.720 -29.182   1.293  1.00  0.00     0.014 A 
HETATM   24  C   UNL     1      42.449 -29.731   1.478  1.00  0.00     0.001 A 
HETATM   25  C   UNL     1      42.213 -31.063   1.145  1.00  0.00     0.000 A 
HETATM   26  C   UNL     1      43.249 -31.847   0.640  1.00  0.00     0.001 A 
HETATM   27  C   UNL     1      44.521 -31.297   0.455  1.00  0.00     0.014 A 
ENDBRANCH   1  22
TORSDOF 3
ENDMDL
