MODEL 1
REMARK VINA RESULT:      -9.8      0.000      0.000
REMARK  3 active torsions:
REMARK  status: ('A' for Active; 'I' for Inactive)
REMARK    1  A    between atoms: C_4  and  C_5 
REMARK    2  A    between atoms: C_5  and  C_6 
REMARK    3  A    between atoms: C_6  and  N_7 
ROOT
HETATM    1  N   UNL     1      40.821 -14.549   1.498  1.00  0.00    -0.071 N 
HETATM    2  H   UNL     1      40.654 -15.050   0.613  1.00  0.00     0.279 HD
HETATM    3  C   UNL     1      40.436 -15.479   2.629  1.00  0.00     0.237 C 
HETATM    4  C   UNL     1      41.296 -16.722   2.595  1.00  0.00     0.065 C 
HETATM    5  C   UNL     1      42.800 -16.402   2.736  1.00  0.00     0.076 C 
HETATM    6  N   UNL     1      43.541 -17.634   2.412  1.00  0.00    -0.373 N 
HETATM    7  C   UNL     1      43.625 -18.605   3.425  1.00  0.00     0.056 A 
HETATM    8  C   UNL     1      43.587 -18.260   4.787  1.00  0.00     0.065 A 
HETATM    9  N   UNL     1      43.419 -16.893   5.097  1.00  0.00    -0.321 N 
HETATM   10  C   UNL     1      43.109 -15.932   4.142  1.00  0.00     0.045 A 
HETATM   11  C   UNL     1      43.519 -16.279   6.322  1.00  0.00     0.097 A 
HETATM   12  C   UNL     1      43.392 -14.921   6.146  1.00  0.00     0.020 A 
HETATM   13  C   UNL     1      43.155 -14.699   4.772  1.00  0.00     0.029 A 
HETATM   14  C   UNL     1      43.891 -19.937   3.088  1.00  0.00     0.031 A 
HETATM   15  C   UNL     1      44.036 -20.911   4.079  1.00  0.00     0.002 A 
HETATM   16  C   UNL     1      43.951 -20.560   5.424  1.00  0.00     0.002 A 
HETATM   17  C   UNL     1      43.740 -19.230   5.785  1.00  0.00     0.032 A 
HETATM   18  C   UNL     1      43.193 -15.369   1.658  1.00  0.00     0.065 C 
HETATM   19  C   UNL     1      42.278 -14.157   1.551  1.00  0.00     0.237 C 
HETATM   20  H   UNL     1      43.340 -18.050   1.506  1.00  0.00     0.161 HD
ENDROOT
BRANCH   1  21
HETATM   21  C   UNL     1      39.884 -13.344   1.511  1.00  0.00     0.239 C 
BRANCH  21  22
HETATM   22  C   UNL     1      40.037 -12.461   0.271  1.00  0.00     0.066 C 
BRANCH  22  23
HETATM   23  C   UNL     1      39.263 -13.066  -0.871  1.00  0.00    -0.057 A 
HETATM   24  C   UNL     1      39.763 -14.189  -1.549  1.00  0.00     0.007 A 
HETATM   25  C   UNL     1      39.086 -14.704  -2.654  1.00  0.00     0.001 A 
HETATM   26  C   UNL     1      37.905 -14.106  -3.092  1.00  0.00     0.000 A 
HETATM   27  C   UNL     1      37.397 -12.996  -2.421  1.00  0.00     0.001 A 
HETATM   28  C   UNL     1      38.072 -12.477  -1.315  1.00  0.00     0.007 A 
ENDBRANCH  22  23
ENDBRANCH  21  22
ENDBRANCH   1  21
TORSDOF 3
ENDMDL
MODEL 2
REMARK VINA RESULT:      -9.7      1.557      7.723
REMARK  3 active torsions:
REMARK  status: ('A' for Active; 'I' for Inactive)
REMARK    1  A    between atoms: C_4  and  C_5 
REMARK    2  A    between atoms: C_5  and  C_6 
REMARK    3  A    between atoms: C_6  and  N_7 
ROOT
HETATM    1  N   UNL     1      41.906 -16.210   3.702  1.00  0.00    -0.071 N 
HETATM    2  H   UNL     1      41.689 -17.142   3.321  1.00  0.00     0.279 HD
HETATM    3  C   UNL     1      42.736 -15.476   2.672  1.00  0.00     0.237 C 
HETATM    4  C   UNL     1      41.950 -15.313   1.391  1.00  0.00     0.065 C 
HETATM    5  C   UNL     1      40.642 -14.520   1.599  1.00  0.00     0.076 C 
HETATM    6  N   UNL     1      39.842 -14.667   0.369  1.00  0.00    -0.373 N 
HETATM    7  C   UNL     1      40.199 -13.849  -0.718  1.00  0.00     0.056 A 
HETATM    8  C   UNL     1      40.803 -12.594  -0.534  1.00  0.00     0.065 A 
HETATM    9  N   UNL     1      41.076 -12.203   0.796  1.00  0.00    -0.321 N 
HETATM   10  C   UNL     1      40.949 -13.063   1.879  1.00  0.00     0.045 A 
HETATM   11  C   UNL     1      41.495 -10.977   1.254  1.00  0.00     0.097 A 
HETATM   12  C   UNL     1      41.527 -11.008   2.628  1.00  0.00     0.020 A 
HETATM   13  C   UNL     1      41.164 -12.314   3.025  1.00  0.00     0.029 A 
HETATM   14  C   UNL     1      39.825 -14.219  -2.014  1.00  0.00     0.031 A 
HETATM   15  C   UNL     1      40.116 -13.396  -3.105  1.00  0.00     0.002 A 
HETATM   16  C   UNL     1      40.756 -12.174  -2.910  1.00  0.00     0.002 A 
HETATM   17  C   UNL     1      41.090 -11.760  -1.622  1.00  0.00     0.032 A 
HETATM   18  C   UNL     1      39.826 -15.189   2.724  1.00  0.00     0.065 C 
HETATM   19  C   UNL     1      40.603 -15.505   3.995  1.00  0.00     0.237 C 
HETATM   20  H   UNL     1      39.647 -15.621   0.076  1.00  0.00     0.161 HD
ENDROOT
BRANCH   1  21
HETATM   21  C   UNL     1      42.754 -16.427   4.954  1.00  0.00     0.239 C 
BRANCH  21  22
HETATM   22  C   UNL     1      44.127 -17.024   4.641  1.00  0.00     0.066 C 
BRANCH  22  23
HETATM   23  C   UNL     1      43.973 -18.486   4.310  1.00  0.00    -0.057 A 
HETATM   24  C   UNL     1      44.022 -19.452   5.326  1.00  0.00     0.007 A 
HETATM   25  C   UNL     1      43.955 -20.809   5.012  1.00  0.00     0.001 A 
HETATM   26  C   UNL     1      43.836 -21.215   3.684  1.00  0.00     0.000 A 
HETATM   27  C   UNL     1      43.779 -20.263   2.669  1.00  0.00     0.001 A 
HETATM   28  C   UNL     1      43.847 -18.904   2.978  1.00  0.00     0.007 A 
ENDBRANCH  22  23
ENDBRANCH  21  22
ENDBRANCH   1  21
TORSDOF 3
ENDMDL
MODEL 3
REMARK VINA RESULT:      -9.4      3.206      7.679
REMARK  3 active torsions:
REMARK  status: ('A' for Active; 'I' for Inactive)
REMARK    1  A    between atoms: C_4  and  C_5 
REMARK    2  A    between atoms: C_5  and  C_6 
REMARK    3  A    between atoms: C_6  and  N_7 
ROOT
HETATM    1  N   UNL     1      42.656 -16.294   6.846  1.00  0.00    -0.071 N 
HETATM    2  H   UNL     1      42.354 -16.236   7.829  1.00  0.00     0.279 HD
HETATM    3  C   UNL     1      41.438 -16.052   5.979  1.00  0.00     0.237 C 
HETATM    4  C   UNL     1      40.879 -14.672   6.242  1.00  0.00     0.065 C 
HETATM    5  C   UNL     1      41.903 -13.556   5.944  1.00  0.00     0.076 C 
HETATM    6  N   UNL     1      41.355 -12.303   6.494  1.00  0.00    -0.373 N 
HETATM    7  C   UNL     1      40.376 -11.650   5.724  1.00  0.00     0.056 A 
HETATM    8  C   UNL     1      40.336 -11.767   4.324  1.00  0.00     0.065 A 
HETATM    9  N   UNL     1      41.300 -12.606   3.723  1.00  0.00    -0.321 N 
HETATM   10  C   UNL     1      42.137 -13.441   4.452  1.00  0.00     0.045 A 
HETATM   11  C   UNL     1      41.583 -12.757   2.387  1.00  0.00     0.097 A 
HETATM   12  C   UNL     1      42.669 -13.590   2.258  1.00  0.00     0.020 A 
HETATM   13  C   UNL     1      43.033 -14.006   3.558  1.00  0.00     0.029 A 
HETATM   14  C   UNL     1      39.500 -10.749   6.338  1.00  0.00     0.031 A 
HETATM   15  C   UNL     1      38.556 -10.043   5.586  1.00  0.00     0.002 A 
HETATM   16  C   UNL     1      38.500 -10.205   4.204  1.00  0.00     0.002 A 
HETATM   17  C   UNL     1      39.398 -11.057   3.564  1.00  0.00     0.032 A 
HETATM   18  C   UNL     1      43.197 -13.841   6.735  1.00  0.00     0.065 C 
HETATM   19  C   UNL     1      43.733 -15.262   6.619  1.00  0.00     0.237 C 
HETATM   20  H   UNL     1      41.110 -12.319   7.481  1.00  0.00     0.161 HD
ENDROOT
BRANCH   1  21
HETATM   21  C   UNL     1      43.147 -17.722   6.615  1.00  0.00     0.239 C 
BRANCH  21  22
HETATM   22  C   UNL     1      44.315 -17.793   5.630  1.00  0.00     0.066 C 
BRANCH  22  23
HETATM   23  C   UNL     1      43.901 -18.592   4.421  1.00  0.00    -0.057 A 
HETATM   24  C   UNL     1      44.078 -19.983   4.395  1.00  0.00     0.007 A 
HETATM   25  C   UNL     1      43.766 -20.713   3.248  1.00  0.00     0.001 A 
HETATM   26  C   UNL     1      43.271 -20.063   2.119  1.00  0.00     0.000 A 
HETATM   27  C   UNL     1      43.084 -18.682   2.137  1.00  0.00     0.001 A 
HETATM   28  C   UNL     1      43.397 -17.948   3.282  1.00  0.00     0.007 A 
ENDBRANCH  22  23
ENDBRANCH  21  22
ENDBRANCH   1  21
TORSDOF 3
ENDMDL
MODEL 4
REMARK VINA RESULT:      -9.4      1.977      3.759
REMARK  3 active torsions:
REMARK  status: ('A' for Active; 'I' for Inactive)
REMARK    1  A    between atoms: C_4  and  C_5 
REMARK    2  A    between atoms: C_5  and  C_6 
REMARK    3  A    between atoms: C_6  and  N_7 
ROOT
HETATM    1  N   UNL     1      40.808 -14.474   1.551  1.00  0.00    -0.071 N 
HETATM    2  H   UNL     1      40.620 -14.966   0.665  1.00  0.00     0.279 HD
HETATM    3  C   UNL     1      40.435 -15.408   2.681  1.00  0.00     0.237 C 
HETATM    4  C   UNL     1      41.283 -16.659   2.624  1.00  0.00     0.065 C 
HETATM    5  C   UNL     1      42.792 -16.353   2.739  1.00  0.00     0.076 C 
HETATM    6  N   UNL     1      43.516 -17.590   2.394  1.00  0.00    -0.373 N 
HETATM    7  C   UNL     1      43.608 -18.569   3.398  1.00  0.00     0.056 A 
HETATM    8  C   UNL     1      43.598 -18.234   4.762  1.00  0.00     0.065 A 
HETATM    9  N   UNL     1      43.448 -16.867   5.085  1.00  0.00    -0.321 N 
HETATM   10  C   UNL     1      43.130 -15.897   4.144  1.00  0.00     0.045 A 
HETATM   11  C   UNL     1      43.576 -16.263   6.313  1.00  0.00     0.097 A 
HETATM   12  C   UNL     1      43.458 -14.903   6.149  1.00  0.00     0.020 A 
HETATM   13  C   UNL     1      43.198 -14.668   4.781  1.00  0.00     0.029 A 
HETATM   14  C   UNL     1      43.856 -19.900   3.046  1.00  0.00     0.031 A 
HETATM   15  C   UNL     1      44.010 -20.883   4.027  1.00  0.00     0.002 A 
HETATM   16  C   UNL     1      43.952 -20.541   5.377  1.00  0.00     0.002 A 
HETATM   17  C   UNL     1      43.759 -19.212   5.751  1.00  0.00     0.032 A 
HETATM   18  C   UNL     1      43.175 -15.316   1.662  1.00  0.00     0.065 C 
HETATM   19  C   UNL     1      42.269 -14.095   1.580  1.00  0.00     0.237 C 
HETATM   20  H   UNL     1      43.295 -17.997   1.488  1.00  0.00     0.161 HD
ENDROOT
BRANCH   1  21
HETATM   21  C   UNL     1      39.882 -13.260   1.590  1.00  0.00     0.239 C 
BRANCH  21  22
HETATM   22  C   UNL     1      39.230 -13.057   2.959  1.00  0.00     0.066 C 
BRANCH  22  23
HETATM   23  C   UNL     1      40.124 -12.200   3.816  1.00  0.00    -0.057 A 
HETATM   24  C   UNL     1      40.910 -11.194   3.236  1.00  0.00     0.007 A 
HETATM   25  C   UNL     1      41.795 -10.451   4.017  1.00  0.00     0.001 A 
HETATM   26  C   UNL     1      41.902 -10.703   5.383  1.00  0.00     0.000 A 
HETATM   27  C   UNL     1      41.120 -11.696   5.971  1.00  0.00     0.001 A 
HETATM   28  C   UNL     1      40.235 -12.442   5.193  1.00  0.00     0.007 A 
ENDBRANCH  22  23
ENDBRANCH  21  22
ENDBRANCH   1  21
TORSDOF 3
ENDMDL
MODEL 5
REMARK VINA RESULT:      -9.1      3.814      7.799
REMARK  3 active torsions:
REMARK  status: ('A' for Active; 'I' for Inactive)
REMARK    1  A    between atoms: C_4  and  C_5 
REMARK    2  A    between atoms: C_5  and  C_6 
REMARK    3  A    between atoms: C_6  and  N_7 
ROOT
HETATM    1  N   UNL     1      40.882 -15.279   3.847  1.00  0.00    -0.071 N 
HETATM    2  H   UNL     1      39.870 -15.328   3.659  1.00  0.00     0.279 HD
HETATM    3  C   UNL     1      41.351 -13.890   3.471  1.00  0.00     0.237 C 
HETATM    4  C   UNL     1      40.642 -12.856   4.315  1.00  0.00     0.065 C 
HETATM    5  C   UNL     1      40.900 -13.050   5.825  1.00  0.00     0.076 C 
HETATM    6  N   UNL     1      39.953 -12.179   6.545  1.00  0.00    -0.373 N 
HETATM    7  C   UNL     1      40.290 -10.817   6.634  1.00  0.00     0.056 A 
HETATM    8  C   UNL     1      41.626 -10.383   6.624  1.00  0.00     0.065 A 
HETATM    9  N   UNL     1      42.621 -11.375   6.478  1.00  0.00    -0.321 N 
HETATM   10  C   UNL     1      42.333 -12.696   6.164  1.00  0.00     0.045 A 
HETATM   11  C   UNL     1      43.983 -11.240   6.607  1.00  0.00     0.097 A 
HETATM   12  C   UNL     1      44.561 -12.482   6.493  1.00  0.00     0.020 A 
HETATM   13  C   UNL     1      43.522 -13.404   6.235  1.00  0.00     0.029 A 
HETATM   14  C   UNL     1      39.289  -9.871   6.878  1.00  0.00     0.031 A 
HETATM   15  C   UNL     1      39.604  -8.518   7.029  1.00  0.00     0.002 A 
HETATM   16  C   UNL     1      40.931  -8.098   6.971  1.00  0.00     0.002 A 
HETATM   17  C   UNL     1      41.950  -9.030   6.782  1.00  0.00     0.032 A 
HETATM   18  C   UNL     1      40.531 -14.498   6.212  1.00  0.00     0.065 C 
HETATM   19  C   UNL     1      41.106 -15.581   5.310  1.00  0.00     0.237 C 
HETATM   20  H   UNL     1      38.969 -12.312   6.324  1.00  0.00     0.161 HD
ENDROOT
BRANCH   1  21
HETATM   21  C   UNL     1      41.556 -16.293   2.925  1.00  0.00     0.239 C 
BRANCH  21  22
HETATM   22  C   UNL     1      43.025 -16.532   3.281  1.00  0.00     0.066 C 
BRANCH  22  23
HETATM   23  C   UNL     1      43.291 -18.014   3.334  1.00  0.00    -0.057 A 
HETATM   24  C   UNL     1      43.852 -18.593   4.482  1.00  0.00     0.007 A 
HETATM   25  C   UNL     1      44.168 -19.951   4.504  1.00  0.00     0.001 A 
HETATM   26  C   UNL     1      43.926 -20.744   3.384  1.00  0.00     0.000 A 
HETATM   27  C   UNL     1      43.362 -20.180   2.242  1.00  0.00     0.001 A 
HETATM   28  C   UNL     1      43.045 -18.821   2.215  1.00  0.00     0.007 A 
ENDBRANCH  22  23
ENDBRANCH  21  22
ENDBRANCH   1  21
TORSDOF 3
ENDMDL
MODEL 6
REMARK VINA RESULT:      -9.0      4.254      7.979
REMARK  3 active torsions:
REMARK  status: ('A' for Active; 'I' for Inactive)
REMARK    1  A    between atoms: C_4  and  C_5 
REMARK    2  A    between atoms: C_5  and  C_6 
REMARK    3  A    between atoms: C_6  and  N_7 
ROOT
HETATM    1  N   UNL     1      43.064 -14.278   4.606  1.00  0.00    -0.071 N 
HETATM    2  H   UNL     1      44.013 -14.679   4.623  1.00  0.00     0.279 HD
HETATM    3  C   UNL     1      42.632 -14.065   6.041  1.00  0.00     0.237 C 
HETATM    4  C   UNL     1      43.566 -13.094   6.727  1.00  0.00     0.065 C 
HETATM    5  C   UNL     1      43.595 -11.715   6.031  1.00  0.00     0.076 C 
HETATM    6  N   UNL     1      44.725 -10.961   6.605  1.00  0.00    -0.373 N 
HETATM    7  C   UNL     1      44.511 -10.357   7.856  1.00  0.00     0.056 A 
HETATM    8  C   UNL     1      43.234  -9.943   8.269  1.00  0.00     0.065 A 
HETATM    9  N   UNL     1      42.161 -10.199   7.388  1.00  0.00    -0.321 N 
HETATM   10  C   UNL     1      42.286 -10.987   6.251  1.00  0.00     0.045 A 
HETATM   11  C   UNL     1      40.864  -9.751   7.472  1.00  0.00     0.097 A 
HETATM   12  C   UNL     1      40.187 -10.147   6.343  1.00  0.00     0.020 A 
HETATM   13  C   UNL     1      41.086 -10.908   5.563  1.00  0.00     0.029 A 
HETATM   14  C   UNL     1      45.606 -10.028   8.661  1.00  0.00     0.031 A 
HETATM   15  C   UNL     1      45.425  -9.374   9.884  1.00  0.00     0.002 A 
HETATM   16  C   UNL     1      44.146  -9.011  10.300  1.00  0.00     0.002 A 
HETATM   17  C   UNL     1      43.045  -9.281   9.489  1.00  0.00     0.032 A 
HETATM   18  C   UNL     1      43.928 -11.917   4.538  1.00  0.00     0.065 C 
HETATM   19  C   UNL     1      43.110 -12.986   3.826  1.00  0.00     0.237 C 
HETATM   20  H   UNL     1      45.634 -11.415   6.554  1.00  0.00     0.161 HD
ENDROOT
BRANCH   1  21
HETATM   21  C   UNL     1      42.151 -15.322   3.967  1.00  0.00     0.239 C 
BRANCH  21  22
HETATM   22  C   UNL     1      42.767 -15.966   2.724  1.00  0.00     0.066 C 
BRANCH  22  23
HETATM   23  C   UNL     1      43.132 -17.396   3.032  1.00  0.00    -0.057 A 
HETATM   24  C   UNL     1      43.767 -17.721   4.240  1.00  0.00     0.007 A 
HETATM   25  C   UNL     1      44.173 -19.031   4.493  1.00  0.00     0.001 A 
HETATM   26  C   UNL     1      43.948 -20.028   3.546  1.00  0.00     0.000 A 
HETATM   27  C   UNL     1      43.311 -19.717   2.347  1.00  0.00     0.001 A 
HETATM   28  C   UNL     1      42.904 -18.407   2.088  1.00  0.00     0.007 A 
ENDBRANCH  22  23
ENDBRANCH  21  22
ENDBRANCH   1  21
TORSDOF 3
ENDMDL
MODEL 7
REMARK VINA RESULT:      -8.8      3.484      7.123
REMARK  3 active torsions:
REMARK  status: ('A' for Active; 'I' for Inactive)
REMARK    1  A    between atoms: C_4  and  C_5 
REMARK    2  A    between atoms: C_5  and  C_6 
REMARK    3  A    between atoms: C_6  and  N_7 
ROOT
HETATM    1  N   UNL     1      41.585 -12.383   6.369  1.00  0.00    -0.071 N 
HETATM    2  H   UNL     1      42.061 -12.526   7.272  1.00  0.00     0.279 HD
HETATM    3  C   UNL     1      42.558 -12.766   5.275  1.00  0.00     0.237 C 
HETATM    4  C   UNL     1      42.940 -14.224   5.405  1.00  0.00     0.065 C 
HETATM    5  C   UNL     1      41.719 -15.163   5.305  1.00  0.00     0.076 C 
HETATM    6  N   UNL     1      42.165 -16.505   5.721  1.00  0.00    -0.373 N 
HETATM    7  C   UNL     1      42.863 -17.263   4.764  1.00  0.00     0.056 A 
HETATM    8  C   UNL     1      42.646 -17.096   3.386  1.00  0.00     0.065 A 
HETATM    9  N   UNL     1      41.723 -16.099   2.998  1.00  0.00    -0.321 N 
HETATM   10  C   UNL     1      41.182 -15.181   3.889  1.00  0.00     0.045 A 
HETATM   11  C   UNL     1      41.211 -15.853   1.747  1.00  0.00     0.097 A 
HETATM   12  C   UNL     1      40.261 -14.863   1.847  1.00  0.00     0.020 A 
HETATM   13  C   UNL     1      40.227 -14.453   3.198  1.00  0.00     0.029 A 
HETATM   14  C   UNL     1      43.693 -18.309   5.180  1.00  0.00     0.031 A 
HETATM   15  C   UNL     1      44.353 -19.114   4.248  1.00  0.00     0.002 A 
HETATM   16  C   UNL     1      44.162 -18.906   2.884  1.00  0.00     0.002 A 
HETATM   17  C   UNL     1      43.297 -17.904   2.445  1.00  0.00     0.032 A 
HETATM   18  C   UNL     1      40.663 -14.722   6.342  1.00  0.00     0.065 C 
HETATM   19  C   UNL     1      40.339 -13.235   6.351  1.00  0.00     0.237 C 
HETATM   20  H   UNL     1      42.598 -16.566   6.639  1.00  0.00     0.161 HD
ENDROOT
BRANCH   1  21
HETATM   21  C   UNL     1      41.283 -10.890   6.257  1.00  0.00     0.239 C 
BRANCH  21  22
HETATM   22  C   UNL     1      42.547 -10.038   6.128  1.00  0.00     0.066 C 
BRANCH  22  23
HETATM   23  C   UNL     1      43.284 -10.038   7.443  1.00  0.00    -0.057 A 
HETATM   24  C   UNL     1      42.684  -9.503   8.592  1.00  0.00     0.007 A 
HETATM   25  C   UNL     1      43.393  -9.433   9.791  1.00  0.00     0.001 A 
HETATM   26  C   UNL     1      44.705  -9.898   9.855  1.00  0.00     0.000 A 
HETATM   27  C   UNL     1      45.308 -10.438   8.720  1.00  0.00     0.001 A 
HETATM   28  C   UNL     1      44.602 -10.509   7.519  1.00  0.00     0.007 A 
ENDBRANCH  22  23
ENDBRANCH  21  22
ENDBRANCH   1  21
TORSDOF 3
ENDMDL
MODEL 8
REMARK VINA RESULT:      -8.7      1.925      8.696
REMARK  3 active torsions:
REMARK  status: ('A' for Active; 'I' for Inactive)
REMARK    1  A    between atoms: C_4  and  C_5 
REMARK    2  A    between atoms: C_5  and  C_6 
REMARK    3  A    between atoms: C_6  and  N_7 
ROOT
HETATM    1  N   UNL     1      41.308 -15.307   2.600  1.00  0.00    -0.071 N 
HETATM    2  H   UNL     1      41.510 -14.931   3.538  1.00  0.00     0.279 HD
HETATM    3  C   UNL     1      39.826 -15.131   2.347  1.00  0.00     0.237 C 
HETATM    4  C   UNL     1      39.464 -13.664   2.378  1.00  0.00     0.065 C 
HETATM    5  C   UNL     1      40.228 -12.847   1.313  1.00  0.00     0.076 C 
HETATM    6  N   UNL     1      40.011 -11.421   1.619  1.00  0.00    -0.373 N 
HETATM    7  C   UNL     1      38.786 -10.866   1.208  1.00  0.00     0.056 A 
HETATM    8  C   UNL     1      38.086 -11.361   0.095  1.00  0.00     0.065 A 
HETATM    9  N   UNL     1      38.646 -12.473  -0.573  1.00  0.00    -0.321 N 
HETATM   10  C   UNL     1      39.726 -13.190  -0.074  1.00  0.00     0.045 A 
HETATM   11  C   UNL     1      38.260 -13.032  -1.767  1.00  0.00     0.097 A 
HETATM   12  C   UNL     1      39.151 -14.026  -2.097  1.00  0.00     0.020 A 
HETATM   13  C   UNL     1      40.087 -14.113  -1.042  1.00  0.00     0.029 A 
HETATM   14  C   UNL     1      38.310  -9.705   1.826  1.00  0.00     0.031 A 
HETATM   15  C   UNL     1      37.125  -9.101   1.398  1.00  0.00     0.002 A 
HETATM   16  C   UNL     1      36.418  -9.631   0.321  1.00  0.00     0.002 A 
HETATM   17  C   UNL     1      36.902 -10.756  -0.345  1.00  0.00     0.032 A 
HETATM   18  C   UNL     1      41.741 -13.096   1.483  1.00  0.00     0.065 C 
HETATM   19  C   UNL     1      42.152 -14.558   1.598  1.00  0.00     0.237 C 
HETATM   20  H   UNL     1      40.264 -11.123   2.558  1.00  0.00     0.161 HD
ENDROOT
BRANCH   1  21
HETATM   21  C   UNL     1      41.626 -16.800   2.642  1.00  0.00     0.239 C 
BRANCH  21  22
HETATM   22  C   UNL     1      43.113 -17.095   2.433  1.00  0.00     0.066 C 
BRANCH  22  23
HETATM   23  C   UNL     1      43.434 -18.459   2.986  1.00  0.00    -0.057 A 
HETATM   24  C   UNL     1      43.919 -18.597   4.295  1.00  0.00     0.007 A 
HETATM   25  C   UNL     1      44.288 -19.851   4.782  1.00  0.00     0.001 A 
HETATM   26  C   UNL     1      44.175 -20.977   3.970  1.00  0.00     0.000 A 
HETATM   27  C   UNL     1      43.688 -20.852   2.671  1.00  0.00     0.001 A 
HETATM   28  C   UNL     1      43.318 -19.600   2.179  1.00  0.00     0.007 A 
ENDBRANCH  22  23
ENDBRANCH  21  22
ENDBRANCH   1  21
TORSDOF 3
ENDMDL
MODEL 9
REMARK VINA RESULT:      -8.6      2.166      8.031
REMARK  3 active torsions:
REMARK  status: ('A' for Active; 'I' for Inactive)
REMARK    1  A    between atoms: C_4  and  C_5 
REMARK    2  A    between atoms: C_5  and  C_6 
REMARK    3  A    between atoms: C_6  and  N_7 
ROOT
HETATM    1  N   UNL     1      42.214 -15.099   5.031  1.00  0.00    -0.071 N 
HETATM    2  H   UNL     1      42.345 -14.562   5.900  1.00  0.00     0.279 HD
HETATM    3  C   UNL     1      40.756 -14.984   4.638  1.00  0.00     0.237 C 
HETATM    4  C   UNL     1      40.400 -13.538   4.381  1.00  0.00     0.065 C 
HETATM    5  C   UNL     1      41.247 -12.915   3.250  1.00  0.00     0.076 C 
HETATM    6  N   UNL     1      41.014 -11.459   3.281  1.00  0.00    -0.373 N 
HETATM    7  C   UNL     1      39.827 -10.997   2.686  1.00  0.00     0.056 A 
HETATM    8  C   UNL     1      39.211 -11.687   1.628  1.00  0.00     0.065 A 
HETATM    9  N   UNL     1      39.815 -12.894   1.213  1.00  0.00    -0.321 N 
HETATM   10  C   UNL     1      40.850 -13.502   1.911  1.00  0.00     0.045 A 
HETATM   11  C   UNL     1      39.519 -13.659   0.110  1.00  0.00     0.097 A 
HETATM   12  C   UNL     1      40.428 -14.688   0.031  1.00  0.00     0.020 A 
HETATM   13  C   UNL     1      41.280 -14.579   1.152  1.00  0.00     0.029 A 
HETATM   14  C   UNL     1      39.310  -9.749   3.051  1.00  0.00     0.031 A 
HETATM   15  C   UNL     1      38.165  -9.241   2.434  1.00  0.00     0.002 A 
HETATM   16  C   UNL     1      37.540  -9.959   1.417  1.00  0.00     0.002 A 
HETATM   17  C   UNL     1      38.067 -11.180   0.999  1.00  0.00     0.032 A 
HETATM   18  C   UNL     1      42.742 -13.118   3.576  1.00  0.00     0.065 C 
HETATM   19  C   UNL     1      43.136 -14.532   3.979  1.00  0.00     0.237 C 
HETATM   20  H   UNL     1      41.196 -10.998   4.169  1.00  0.00     0.161 HD
ENDROOT
BRANCH   1  21
HETATM   21  C   UNL     1      42.520 -16.559   5.360  1.00  0.00     0.239 C 
BRANCH  21  22
HETATM   22  C   UNL     1      43.934 -16.974   4.947  1.00  0.00     0.066 C 
BRANCH  22  23
HETATM   23  C   UNL     1      43.866 -18.251   4.149  1.00  0.00    -0.057 A 
HETATM   24  C   UNL     1      43.408 -18.234   2.824  1.00  0.00     0.007 A 
HETATM   25  C   UNL     1      43.273 -19.425   2.109  1.00  0.00     0.001 A 
HETATM   26  C   UNL     1      43.595 -20.640   2.709  1.00  0.00     0.000 A 
HETATM   27  C   UNL     1      44.059 -20.666   4.023  1.00  0.00     0.001 A 
HETATM   28  C   UNL     1      44.194 -19.478   4.742  1.00  0.00     0.007 A 
ENDBRANCH  22  23
ENDBRANCH  21  22
ENDBRANCH   1  21
TORSDOF 3
ENDMDL
MODEL 10
REMARK VINA RESULT:      -8.5      2.358      7.729
REMARK  3 active torsions:
REMARK  status: ('A' for Active; 'I' for Inactive)
REMARK    1  A    between atoms: C_4  and  C_5 
REMARK    2  A    between atoms: C_5  and  C_6 
REMARK    3  A    between atoms: C_6  and  N_7 
ROOT
HETATM    1  N   UNL     1      42.240 -15.803   3.389  1.00  0.00    -0.071 N 
HETATM    2  H   UNL     1      42.566 -16.639   2.883  1.00  0.00     0.279 HD
HETATM    3  C   UNL     1      42.531 -14.599   2.517  1.00  0.00     0.237 C 
HETATM    4  C   UNL     1      41.777 -14.709   1.212  1.00  0.00     0.065 C 
HETATM    5  C   UNL     1      40.249 -14.787   1.419  1.00  0.00     0.076 C 
HETATM    6  N   UNL     1      39.652 -15.168   0.126  1.00  0.00    -0.373 N 
HETATM    7  C   UNL     1      39.499 -14.145  -0.826  1.00  0.00     0.056 A 
HETATM    8  C   UNL     1      39.321 -12.803  -0.448  1.00  0.00     0.065 A 
HETATM    9  N   UNL     1      39.344 -12.518   0.936  1.00  0.00    -0.321 N 
HETATM   10  C   UNL     1      39.713 -13.453   1.895  1.00  0.00     0.045 A 
HETATM   11  C   UNL     1      39.030 -11.340   1.568  1.00  0.00     0.097 A 
HETATM   12  C   UNL     1      39.081 -11.541   2.927  1.00  0.00     0.020 A 
HETATM   13  C   UNL     1      39.491 -12.877   3.135  1.00  0.00     0.029 A 
HETATM   14  C   UNL     1      39.380 -14.471  -2.181  1.00  0.00     0.031 A 
HETATM   15  C   UNL     1      39.170 -13.477  -3.141  1.00  0.00     0.002 A 
HETATM   16  C   UNL     1      39.040 -12.146  -2.753  1.00  0.00     0.002 A 
HETATM   17  C   UNL     1      39.102 -11.803  -1.403  1.00  0.00     0.032 A 
HETATM   18  C   UNL     1      39.935 -15.942   2.393  1.00  0.00     0.065 C 
HETATM   19  C   UNL     1      40.766 -15.963   3.669  1.00  0.00     0.237 C 
HETATM   20  H   UNL     1      40.007 -16.024  -0.294  1.00  0.00     0.161 HD
ENDROOT
BRANCH   1  21
HETATM   21  C   UNL     1      43.076 -15.700   4.663  1.00  0.00     0.239 C 
BRANCH  21  22
HETATM   22  C   UNL     1      42.279 -15.163   5.852  1.00  0.00     0.066 C 
BRANCH  22  23
HETATM   23  C   UNL     1      42.682 -13.736   6.120  1.00  0.00    -0.057 A 
HETATM   24  C   UNL     1      43.930 -13.447   6.691  1.00  0.00     0.007 A 
HETATM   25  C   UNL     1      44.273 -12.132   7.009  1.00  0.00     0.001 A 
HETATM   26  C   UNL     1      43.376 -11.096   6.757  1.00  0.00     0.000 A 
HETATM   27  C   UNL     1      42.137 -11.372   6.183  1.00  0.00     0.001 A 
HETATM   28  C   UNL     1      41.789 -12.685   5.864  1.00  0.00     0.007 A 
ENDBRANCH  22  23
ENDBRANCH  21  22
ENDBRANCH   1  21
TORSDOF 3
ENDMDL
