MODEL 1
REMARK VINA RESULT:      -8.8      0.000      0.000
REMARK  3 active torsions:
REMARK  status: ('A' for Active; 'I' for Inactive)
REMARK    1  A    between atoms: C_9  and  C_10 
REMARK       I    between atoms: C_10  and  N_11 
REMARK    2  A    between atoms: N_11  and  C_12 
REMARK    3  A    between atoms: C_13  and  O_14 
ROOT
HETATM    1  C   UNL     1      42.260 -13.671   1.893  1.00  0.00     0.268 C 
HETATM    2  N   UNL     1      41.257 -13.736   0.964  1.00  0.00    -0.344 N 
HETATM    3  O   UNL     1      42.851 -12.619   2.130  1.00  0.00    -0.266 OA
HETATM    4  H   UNL     1      40.747 -14.597   0.833  1.00  0.00     0.163 HD
ENDROOT
BRANCH   1   5
HETATM    5  C   UNL     1      42.584 -14.915   2.549  1.00  0.00     0.102 A 
HETATM    6  N   UNL     1      42.868 -14.966   3.895  1.00  0.00    -0.351 N 
HETATM    7  C   UNL     1      43.231 -16.234   4.279  1.00  0.00     0.043 A 
HETATM    8  H   UNL     1      42.848 -14.157   4.502  1.00  0.00     0.166 HD
HETATM    9  C   UNL     1      43.127 -17.054   3.158  1.00  0.00    -0.001 A 
HETATM   10  C   UNL     1      43.640 -16.704   5.527  1.00  0.00     0.031 A 
HETATM   11  C   UNL     1      43.439 -18.435   3.266  1.00  0.00    -0.043 A 
HETATM   12  C   UNL     1      42.706 -16.212   2.083  1.00  0.00     0.049 A 
HETATM   13  C   UNL     1      43.887 -18.919   4.524  1.00  0.00    -0.055 A 
HETATM   14  C   UNL     1      43.336 -19.371   2.088  1.00  0.00     0.049 C 
HETATM   15  C   UNL     1      44.260 -20.367   4.712  1.00  0.00     0.049 C 
HETATM   16  C   UNL     1      43.970 -18.056   5.627  1.00  0.00     0.009 A 
ENDBRANCH   1   5
BRANCH   2  17
HETATM   17  C   UNL     1      40.929 -12.612   0.112  1.00  0.00     0.147 C 
HETATM   18  C   UNL     1      40.045 -11.512   0.783  1.00  0.00     0.149 C 
HETATM   19  C   UNL     1      38.581 -11.883   0.473  1.00  0.00     0.073 C 
HETATM   20  C   UNL     1      38.717 -12.652  -0.804  1.00  0.00    -0.047 A 
HETATM   21  C   UNL     1      40.040 -13.058  -1.013  1.00  0.00    -0.027 A 
HETATM   22  C   UNL     1      37.716 -13.003  -1.693  1.00  0.00     0.008 A 
HETATM   23  C   UNL     1      40.386 -13.824  -2.116  1.00  0.00     0.010 A 
HETATM   24  C   UNL     1      39.385 -14.174  -3.022  1.00  0.00     0.001 A 
HETATM   25  C   UNL     1      38.058 -13.766  -2.812  1.00  0.00     0.001 A 
BRANCH  18  26
HETATM   26  O   UNL     1      40.238 -11.369   2.187  1.00  0.00    -0.393 OA
HETATM   27  H   UNL     1      40.273 -12.273   2.562  1.00  0.00     0.210 HD
ENDBRANCH  18  26
ENDBRANCH   2  17
TORSDOF 3
ENDMDL
MODEL 2
REMARK VINA RESULT:      -8.7      7.011      9.473
REMARK  3 active torsions:
REMARK  status: ('A' for Active; 'I' for Inactive)
REMARK    1  A    between atoms: C_9  and  C_10 
REMARK       I    between atoms: C_10  and  N_11 
REMARK    2  A    between atoms: N_11  and  C_12 
REMARK    3  A    between atoms: C_13  and  O_14 
ROOT
HETATM    1  C   UNL     1      44.368 -11.483   7.993  1.00  0.00     0.268 C 
HETATM    2  N   UNL     1      43.694 -11.027   9.094  1.00  0.00    -0.344 N 
HETATM    3  O   UNL     1      45.580 -11.317   7.866  1.00  0.00    -0.266 OA
HETATM    4  H   UNL     1      42.712 -11.231   9.203  1.00  0.00     0.163 HD
ENDROOT
BRANCH   1   5
HETATM    5  C   UNL     1      43.560 -12.143   6.996  1.00  0.00     0.102 A 
HETATM    6  N   UNL     1      42.340 -11.636   6.608  1.00  0.00    -0.351 N 
HETATM    7  C   UNL     1      41.715 -12.474   5.716  1.00  0.00     0.043 A 
HETATM    8  H   UNL     1      41.949 -10.777   6.972  1.00  0.00     0.166 HD
HETATM    9  C   UNL     1      42.578 -13.538   5.470  1.00  0.00    -0.001 A 
HETATM   10  C   UNL     1      40.459 -12.363   5.120  1.00  0.00     0.031 A 
HETATM   11  C   UNL     1      42.190 -14.566   4.570  1.00  0.00    -0.043 A 
HETATM   12  C   UNL     1      43.739 -13.308   6.271  1.00  0.00     0.049 A 
HETATM   13  C   UNL     1      40.899 -14.480   3.981  1.00  0.00    -0.055 A 
HETATM   14  C   UNL     1      43.087 -15.736   4.259  1.00  0.00     0.049 C 
HETATM   15  C   UNL     1      40.404 -15.544   3.035  1.00  0.00     0.049 C 
HETATM   16  C   UNL     1      40.066 -13.385   4.255  1.00  0.00     0.009 A 
ENDBRANCH   1   5
BRANCH   2  17
HETATM   17  C   UNL     1      44.337 -10.206  10.100  1.00  0.00     0.147 C 
HETATM   18  C   UNL     1      44.003 -10.593  11.576  1.00  0.00     0.149 C 
HETATM   19  C   UNL     1      42.786  -9.740  11.984  1.00  0.00     0.073 C 
HETATM   20  C   UNL     1      42.930  -8.544  11.095  1.00  0.00    -0.047 A 
HETATM   21  C   UNL     1      43.808  -8.803  10.037  1.00  0.00    -0.027 A 
HETATM   22  C   UNL     1      42.282  -7.326  11.202  1.00  0.00     0.008 A 
HETATM   23  C   UNL     1      44.055  -7.846   9.064  1.00  0.00     0.010 A 
HETATM   24  C   UNL     1      43.414  -6.611   9.169  1.00  0.00     0.001 A 
HETATM   25  C   UNL     1      42.533  -6.353  10.231  1.00  0.00     0.001 A 
BRANCH  18  26
HETATM   26  O   UNL     1      43.737 -11.977  11.784  1.00  0.00    -0.393 OA
HETATM   27  H   UNL     1      43.562 -12.091  12.741  1.00  0.00     0.210 HD
ENDBRANCH  18  26
ENDBRANCH   2  17
TORSDOF 3
ENDMDL
MODEL 3
REMARK VINA RESULT:      -8.5      6.062      8.615
REMARK  3 active torsions:
REMARK  status: ('A' for Active; 'I' for Inactive)
REMARK    1  A    between atoms: C_9  and  C_10 
REMARK       I    between atoms: C_10  and  N_11 
REMARK    2  A    between atoms: N_11  and  C_12 
REMARK    3  A    between atoms: C_13  and  O_14 
ROOT
HETATM    1  C   UNL     1      42.962 -10.636   6.270  1.00  0.00     0.268 C 
HETATM    2  N   UNL     1      43.905 -10.469   7.248  1.00  0.00    -0.344 N 
HETATM    3  O   UNL     1      42.254  -9.703   5.893  1.00  0.00    -0.266 OA
HETATM    4  H   UNL     1      44.515 -11.235   7.495  1.00  0.00     0.163 HD
ENDROOT
BRANCH   1   5
HETATM    5  C   UNL     1      42.845 -11.972   5.736  1.00  0.00     0.102 A 
HETATM    6  N   UNL     1      42.494 -13.037   6.535  1.00  0.00    -0.351 N 
HETATM    7  C   UNL     1      42.531 -14.218   5.833  1.00  0.00     0.043 A 
HETATM    8  H   UNL     1      42.280 -12.952   7.520  1.00  0.00     0.166 HD
HETATM    9  C   UNL     1      42.862 -13.909   4.517  1.00  0.00    -0.001 A 
HETATM   10  C   UNL     1      42.296 -15.521   6.270  1.00  0.00     0.031 A 
HETATM   11  C   UNL     1      42.966 -14.948   3.555  1.00  0.00    -0.043 A 
HETATM   12  C   UNL     1      43.043 -12.492   4.470  1.00  0.00     0.049 A 
HETATM   13  C   UNL     1      42.761 -16.284   3.995  1.00  0.00    -0.055 A 
HETATM   14  C   UNL     1      43.313 -14.672   2.114  1.00  0.00     0.049 C 
HETATM   15  C   UNL     1      42.877 -17.444   3.040  1.00  0.00     0.049 C 
HETATM   16  C   UNL     1      42.422 -16.545   5.331  1.00  0.00     0.009 A 
ENDBRANCH   1   5
BRANCH   2  17
HETATM   17  C   UNL     1      44.029  -9.231   7.989  1.00  0.00     0.147 C 
HETATM   18  C   UNL     1      45.473  -8.905   8.490  1.00  0.00     0.149 C 
HETATM   19  C   UNL     1      45.586  -9.502   9.907  1.00  0.00     0.073 C 
HETATM   20  C   UNL     1      44.161  -9.489  10.366  1.00  0.00    -0.047 A 
HETATM   21  C   UNL     1      43.283  -9.330   9.288  1.00  0.00    -0.027 A 
HETATM   22  C   UNL     1      43.684  -9.655  11.655  1.00  0.00     0.008 A 
HETATM   23  C   UNL     1      41.909  -9.336   9.480  1.00  0.00     0.010 A 
HETATM   24  C   UNL     1      41.420  -9.493  10.777  1.00  0.00     0.001 A 
HETATM   25  C   UNL     1      42.302  -9.652  11.857  1.00  0.00     0.001 A 
BRANCH  18  26
HETATM   26  O   UNL     1      46.517  -9.397   7.655  1.00  0.00    -0.393 OA
HETATM   27  H   UNL     1      46.423  -8.947   6.790  1.00  0.00     0.210 HD
ENDBRANCH  18  26
ENDBRANCH   2  17
TORSDOF 3
ENDMDL
MODEL 4
REMARK VINA RESULT:      -8.5      1.962      2.926
REMARK  3 active torsions:
REMARK  status: ('A' for Active; 'I' for Inactive)
REMARK    1  A    between atoms: C_9  and  C_10 
REMARK       I    between atoms: C_10  and  N_11 
REMARK    2  A    between atoms: N_11  and  C_12 
REMARK    3  A    between atoms: C_13  and  O_14 
ROOT
HETATM    1  C   UNL     1      39.806 -13.845   1.987  1.00  0.00     0.268 C 
HETATM    2  N   UNL     1      39.876 -13.744   0.624  1.00  0.00    -0.344 N 
HETATM    3  O   UNL     1      39.038 -13.144   2.646  1.00  0.00    -0.266 OA
HETATM    4  H   UNL     1      40.468 -14.373   0.103  1.00  0.00     0.163 HD
ENDROOT
BRANCH   1   5
HETATM    5  C   UNL     1      40.701 -14.803   2.589  1.00  0.00     0.102 A 
HETATM    6  N   UNL     1      41.271 -14.579   3.822  1.00  0.00    -0.351 N 
HETATM    7  C   UNL     1      42.151 -15.582   4.152  1.00  0.00     0.043 A 
HETATM    8  H   UNL     1      41.089 -13.757   4.382  1.00  0.00     0.166 HD
HETATM    9  C   UNL     1      42.113 -16.523   3.126  1.00  0.00    -0.001 A 
HETATM   10  C   UNL     1      42.967 -15.717   5.275  1.00  0.00     0.031 A 
HETATM   11  C   UNL     1      42.926 -17.684   3.206  1.00  0.00    -0.043 A 
HETATM   12  C   UNL     1      41.186 -16.025   2.159  1.00  0.00     0.049 A 
HETATM   13  C   UNL     1      43.786 -17.817   4.330  1.00  0.00    -0.055 A 
HETATM   14  C   UNL     1      42.919 -18.740   2.130  1.00  0.00     0.049 C 
HETATM   15  C   UNL     1      44.698 -19.008   4.475  1.00  0.00     0.049 C 
HETATM   16  C   UNL     1      43.785 -16.845   5.342  1.00  0.00     0.009 A 
ENDBRANCH   1   5
BRANCH   2  17
HETATM   17  C   UNL     1      39.160 -12.718  -0.106  1.00  0.00     0.147 C 
HETATM   18  C   UNL     1      38.694 -13.132  -1.538  1.00  0.00     0.149 C 
HETATM   19  C   UNL     1      39.822 -12.711  -2.501  1.00  0.00     0.073 C 
HETATM   20  C   UNL     1      40.453 -11.570  -1.762  1.00  0.00    -0.047 A 
HETATM   21  C   UNL     1      40.076 -11.569  -0.415  1.00  0.00    -0.027 A 
HETATM   22  C   UNL     1      41.340 -10.629  -2.255  1.00  0.00     0.008 A 
HETATM   23  C   UNL     1      40.580 -10.624   0.466  1.00  0.00     0.010 A 
HETATM   24  C   UNL     1      41.467  -9.665  -0.024  1.00  0.00     0.001 A 
HETATM   25  C   UNL     1      41.844  -9.668  -1.376  1.00  0.00     0.001 A 
BRANCH  18  26
HETATM   26  O   UNL     1      38.398 -14.517  -1.690  1.00  0.00    -0.393 OA
HETATM   27  H   UNL     1      37.630 -14.578  -2.295  1.00  0.00     0.210 HD
ENDBRANCH  18  26
ENDBRANCH   2  17
TORSDOF 3
ENDMDL
MODEL 5
REMARK VINA RESULT:      -8.4      2.383      7.650
REMARK  3 active torsions:
REMARK  status: ('A' for Active; 'I' for Inactive)
REMARK    1  A    between atoms: C_9  and  C_10 
REMARK       I    between atoms: C_10  and  N_11 
REMARK    2  A    between atoms: N_11  and  C_12 
REMARK    3  A    between atoms: C_13  and  O_14 
ROOT
HETATM    1  C   UNL     1      40.327 -15.048   1.754  1.00  0.00     0.268 C 
HETATM    2  N   UNL     1      40.838 -15.109   3.023  1.00  0.00    -0.344 N 
HETATM    3  O   UNL     1      39.667 -15.973   1.281  1.00  0.00    -0.266 OA
HETATM    4  H   UNL     1      41.322 -14.312   3.409  1.00  0.00     0.163 HD
ENDROOT
BRANCH   1   5
HETATM    5  C   UNL     1      40.630 -13.846   1.016  1.00  0.00     0.102 A 
HETATM    6  N   UNL     1      41.021 -12.690   1.653  1.00  0.00    -0.351 N 
HETATM    7  C   UNL     1      41.171 -11.657   0.759  1.00  0.00     0.043 A 
HETATM    8  H   UNL     1      41.137 -12.614   2.655  1.00  0.00     0.166 HD
HETATM    9  C   UNL     1      40.926 -12.168  -0.513  1.00  0.00    -0.001 A 
HETATM   10  C   UNL     1      41.503 -10.322   0.989  1.00  0.00     0.031 A 
HETATM   11  C   UNL     1      41.018 -11.314  -1.644  1.00  0.00    -0.043 A 
HETATM   12  C   UNL     1      40.601 -13.548  -0.335  1.00  0.00     0.049 A 
HETATM   13  C   UNL     1      41.324  -9.945  -1.419  1.00  0.00    -0.055 A 
HETATM   14  C   UNL     1      40.772 -11.814  -3.044  1.00  0.00     0.049 C 
HETATM   15  C   UNL     1      41.415  -8.970  -2.566  1.00  0.00     0.049 C 
HETATM   16  C   UNL     1      41.569  -9.477  -0.119  1.00  0.00     0.009 A 
ENDBRANCH   1   5
BRANCH   2  17
HETATM   17  C   UNL     1      40.755 -16.312   3.825  1.00  0.00     0.147 C 
HETATM   18  C   UNL     1      40.672 -16.070   5.366  1.00  0.00     0.149 C 
HETATM   19  C   UNL     1      42.123 -16.094   5.888  1.00  0.00     0.073 C 
HETATM   20  C   UNL     1      42.804 -16.964   4.878  1.00  0.00    -0.047 A 
HETATM   21  C   UNL     1      42.033 -17.093   3.718  1.00  0.00    -0.027 A 
HETATM   22  C   UNL     1      44.050 -17.560   4.975  1.00  0.00     0.008 A 
HETATM   23  C   UNL     1      42.494 -17.821   2.631  1.00  0.00     0.010 A 
HETATM   24  C   UNL     1      43.745 -18.433   2.724  1.00  0.00     0.001 A 
HETATM   25  C   UNL     1      44.518 -18.303   3.888  1.00  0.00     0.001 A 
BRANCH  18  26
HETATM   26  O   UNL     1      40.024 -14.860   5.745  1.00  0.00    -0.393 OA
HETATM   27  H   UNL     1      40.125 -14.238   4.995  1.00  0.00     0.210 HD
ENDBRANCH  18  26
ENDBRANCH   2  17
TORSDOF 3
ENDMDL
MODEL 6
REMARK VINA RESULT:      -8.2     14.708     17.767
REMARK  3 active torsions:
REMARK  status: ('A' for Active; 'I' for Inactive)
REMARK    1  A    between atoms: C_9  and  C_10 
REMARK       I    between atoms: C_10  and  N_11 
REMARK    2  A    between atoms: N_11  and  C_12 
REMARK    3  A    between atoms: C_13  and  O_14 
ROOT
HETATM    1  C   UNL     1      47.260 -28.684   1.444  1.00  0.00     0.268 C 
HETATM    2  N   UNL     1      48.276 -29.537   1.783  1.00  0.00    -0.344 N 
HETATM    3  O   UNL     1      47.004 -27.688   2.119  1.00  0.00    -0.266 OA
HETATM    4  H   UNL     1      48.505 -30.312   1.178  1.00  0.00     0.163 HD
ENDROOT
BRANCH   1   5
HETATM    5  C   UNL     1      46.509 -29.045   0.266  1.00  0.00     0.102 A 
HETATM    6  N   UNL     1      45.903 -30.275   0.148  1.00  0.00    -0.351 N 
HETATM    7  C   UNL     1      45.322 -30.427  -1.088  1.00  0.00     0.043 A 
HETATM    8  H   UNL     1      45.927 -30.983   0.871  1.00  0.00     0.166 HD
HETATM    9  C   UNL     1      45.505 -29.234  -1.782  1.00  0.00    -0.001 A 
HETATM   10  C   UNL     1      44.656 -31.526  -1.630  1.00  0.00     0.031 A 
HETATM   11  C   UNL     1      44.994 -29.102  -3.101  1.00  0.00    -0.043 A 
HETATM   12  C   UNL     1      46.241 -28.371  -0.912  1.00  0.00     0.049 A 
HETATM   13  C   UNL     1      44.342 -30.226  -3.676  1.00  0.00    -0.055 A 
HETATM   14  C   UNL     1      45.155 -27.832  -3.896  1.00  0.00     0.049 C 
HETATM   15  C   UNL     1      43.794 -30.173  -5.079  1.00  0.00     0.049 C 
HETATM   16  C   UNL     1      44.176 -31.406  -2.934  1.00  0.00     0.009 A 
ENDBRANCH   1   5
BRANCH   2  17
HETATM   17  C   UNL     1      49.012 -29.398   3.023  1.00  0.00     0.147 C 
HETATM   18  C   UNL     1      50.519 -29.799   2.942  1.00  0.00     0.149 C 
HETATM   19  C   UNL     1      50.593 -31.289   3.329  1.00  0.00     0.073 C 
HETATM   20  C   UNL     1      49.390 -31.444   4.206  1.00  0.00    -0.047 A 
HETATM   21  C   UNL     1      48.500 -30.377   4.040  1.00  0.00    -0.027 A 
HETATM   22  C   UNL     1      49.091 -32.493   5.059  1.00  0.00     0.008 A 
HETATM   23  C   UNL     1      47.294 -30.339   4.723  1.00  0.00     0.010 A 
HETATM   24  C   UNL     1      46.990 -31.387   5.592  1.00  0.00     0.001 A 
HETATM   25  C   UNL     1      47.883 -32.458   5.758  1.00  0.00     0.001 A 
BRANCH  18  26
HETATM   26  O   UNL     1      51.126 -29.581   1.672  1.00  0.00    -0.393 OA
HETATM   27  H   UNL     1      51.055 -30.423   1.176  1.00  0.00     0.210 HD
ENDBRANCH  18  26
ENDBRANCH   2  17
TORSDOF 3
ENDMDL
MODEL 7
REMARK VINA RESULT:      -8.0      7.136      9.562
REMARK  3 active torsions:
REMARK  status: ('A' for Active; 'I' for Inactive)
REMARK    1  A    between atoms: C_9  and  C_10 
REMARK       I    between atoms: C_10  and  N_11 
REMARK    2  A    between atoms: N_11  and  C_12 
REMARK    3  A    between atoms: C_13  and  O_14 
ROOT
HETATM    1  C   UNL     1      44.323 -10.725   8.320  1.00  0.00     0.268 C 
HETATM    2  N   UNL     1      43.625 -10.858   9.490  1.00  0.00    -0.344 N 
HETATM    3  O   UNL     1      45.242  -9.915   8.207  1.00  0.00    -0.266 OA
HETATM    4  H   UNL     1      42.918 -11.573   9.575  1.00  0.00     0.163 HD
ENDROOT
BRANCH   1   5
HETATM    5  C   UNL     1      43.893 -11.575   7.236  1.00  0.00     0.102 A 
HETATM    6  N   UNL     1      43.647 -12.916   7.429  1.00  0.00    -0.351 N 
HETATM    7  C   UNL     1      43.336 -13.540   6.244  1.00  0.00     0.043 A 
HETATM    8  H   UNL     1      43.730 -13.378   8.325  1.00  0.00     0.166 HD
HETATM    9  C   UNL     1      43.323 -12.563   5.252  1.00  0.00    -0.001 A 
HETATM   10  C   UNL     1      43.070 -14.884   5.989  1.00  0.00     0.031 A 
HETATM   11  C   UNL     1      43.020 -12.926   3.912  1.00  0.00    -0.043 A 
HETATM   12  C   UNL     1      43.661 -11.332   5.894  1.00  0.00     0.049 A 
HETATM   13  C   UNL     1      42.779 -14.299   3.634  1.00  0.00    -0.055 A 
HETATM   14  C   UNL     1      42.983 -11.910   2.799  1.00  0.00     0.049 C 
HETATM   15  C   UNL     1      42.475 -14.766   2.234  1.00  0.00     0.049 C 
HETATM   16  C   UNL     1      42.797 -15.245   4.669  1.00  0.00     0.009 A 
ENDBRANCH   1   5
BRANCH   2  17
HETATM   17  C   UNL     1      43.832  -9.965  10.611  1.00  0.00     0.147 C 
HETATM   18  C   UNL     1      43.465 -10.564  12.006  1.00  0.00     0.149 C 
HETATM   19  C   UNL     1      41.993 -10.185  12.268  1.00  0.00     0.073 C 
HETATM   20  C   UNL     1      41.844  -8.934  11.459  1.00  0.00    -0.047 A 
HETATM   21  C   UNL     1      42.882  -8.805  10.529  1.00  0.00    -0.027 A 
HETATM   22  C   UNL     1      40.823  -8.002  11.520  1.00  0.00     0.008 A 
HETATM   23  C   UNL     1      42.918  -7.739   9.643  1.00  0.00     0.010 A 
HETATM   24  C   UNL     1      41.898  -6.789   9.704  1.00  0.00     0.001 A 
HETATM   25  C   UNL     1      40.857  -6.920  10.637  1.00  0.00     0.001 A 
BRANCH  18  26
HETATM   26  O   UNL     1      43.646 -11.972  12.116  1.00  0.00    -0.393 OA
HETATM   27  H   UNL     1      44.542 -12.114  12.486  1.00  0.00     0.210 HD
ENDBRANCH  18  26
ENDBRANCH   2  17
TORSDOF 3
ENDMDL
MODEL 8
REMARK VINA RESULT:      -7.8     14.631     17.668
REMARK  3 active torsions:
REMARK  status: ('A' for Active; 'I' for Inactive)
REMARK    1  A    between atoms: C_9  and  C_10 
REMARK       I    between atoms: C_10  and  N_11 
REMARK    2  A    between atoms: N_11  and  C_12 
REMARK    3  A    between atoms: C_13  and  O_14 
ROOT
HETATM    1  C   UNL     1      47.395 -28.601   1.399  1.00  0.00     0.268 C 
HETATM    2  N   UNL     1      48.462 -29.376   1.766  1.00  0.00    -0.344 N 
HETATM    3  O   UNL     1      46.974 -27.701   2.125  1.00  0.00    -0.266 OA
HETATM    4  H   UNL     1      48.826 -30.066   1.126  1.00  0.00     0.163 HD
ENDROOT
BRANCH   1   5
HETATM    5  C   UNL     1      46.794 -28.927   0.129  1.00  0.00     0.102 A 
HETATM    6  N   UNL     1      46.697 -27.996  -0.881  1.00  0.00    -0.351 N 
HETATM    7  C   UNL     1      46.015 -28.503  -1.961  1.00  0.00     0.043 A 
HETATM    8  H   UNL     1      47.050 -27.051  -0.807  1.00  0.00     0.166 HD
HETATM    9  C   UNL     1      45.703 -29.828  -1.671  1.00  0.00    -0.001 A 
HETATM   10  C   UNL     1      45.656 -27.884  -3.158  1.00  0.00     0.031 A 
HETATM   11  C   UNL     1      44.996 -30.609  -2.623  1.00  0.00    -0.043 A 
HETATM   12  C   UNL     1      46.212 -30.083  -0.360  1.00  0.00     0.049 A 
HETATM   13  C   UNL     1      44.598 -29.980  -3.833  1.00  0.00    -0.055 A 
HETATM   14  C   UNL     1      44.640 -32.051  -2.367  1.00  0.00     0.049 C 
HETATM   15  C   UNL     1      43.823 -30.735  -4.883  1.00  0.00     0.049 C 
HETATM   16  C   UNL     1      44.940 -28.643  -4.084  1.00  0.00     0.009 A 
ENDBRANCH   1   5
BRANCH   2  17
HETATM   17  C   UNL     1      49.066 -29.276   3.079  1.00  0.00     0.147 C 
HETATM   18  C   UNL     1      50.581 -29.654   3.137  1.00  0.00     0.149 C 
HETATM   19  C   UNL     1      50.641 -31.157   3.472  1.00  0.00     0.073 C 
HETATM   20  C   UNL     1      49.357 -31.363   4.215  1.00  0.00    -0.047 A 
HETATM   21  C   UNL     1      48.471 -30.302   4.000  1.00  0.00    -0.027 A 
HETATM   22  C   UNL     1      48.993 -32.449   4.992  1.00  0.00     0.008 A 
HETATM   23  C   UNL     1      47.202 -30.307   4.558  1.00  0.00     0.010 A 
HETATM   24  C   UNL     1      46.829 -31.393   5.350  1.00  0.00     0.001 A 
HETATM   25  C   UNL     1      47.719 -32.458   5.566  1.00  0.00     0.001 A 
BRANCH  18  26
HETATM   26  O   UNL     1      51.309 -29.378   1.944  1.00  0.00    -0.393 OA
HETATM   27  H   UNL     1      52.081 -29.981   1.938  1.00  0.00     0.210 HD
ENDBRANCH  18  26
ENDBRANCH   2  17
TORSDOF 3
ENDMDL
MODEL 9
REMARK VINA RESULT:      -7.8      6.548      8.900
REMARK  3 active torsions:
REMARK  status: ('A' for Active; 'I' for Inactive)
REMARK    1  A    between atoms: C_9  and  C_10 
REMARK       I    between atoms: C_10  and  N_11 
REMARK    2  A    between atoms: N_11  and  C_12 
REMARK    3  A    between atoms: C_13  and  O_14 
ROOT
HETATM    1  C   UNL     1      43.099 -10.601   7.183  1.00  0.00     0.268 C 
HETATM    2  N   UNL     1      43.404 -10.559   8.517  1.00  0.00    -0.344 N 
HETATM    3  O   UNL     1      42.736  -9.597   6.574  1.00  0.00    -0.266 OA
HETATM    4  H   UNL     1      43.759 -11.383   8.979  1.00  0.00     0.163 HD
ENDROOT
BRANCH   1   5
HETATM    5  C   UNL     1      43.212 -11.897   6.558  1.00  0.00     0.102 A 
HETATM    6  N   UNL     1      42.916 -12.081   5.226  1.00  0.00    -0.351 N 
HETATM    7  C   UNL     1      43.011 -13.407   4.875  1.00  0.00     0.043 A 
HETATM    8  H   UNL     1      42.627 -11.335   4.609  1.00  0.00     0.166 HD
HETATM    9  C   UNL     1      43.438 -14.106   6.001  1.00  0.00    -0.001 A 
HETATM   10  C   UNL     1      42.750 -14.025   3.652  1.00  0.00     0.031 A 
HETATM   11  C   UNL     1      43.631 -15.511   5.925  1.00  0.00    -0.043 A 
HETATM   12  C   UNL     1      43.573 -13.140   7.046  1.00  0.00     0.049 A 
HETATM   13  C   UNL     1      43.337 -16.156   4.693  1.00  0.00    -0.055 A 
HETATM   14  C   UNL     1      44.100 -16.317   7.109  1.00  0.00     0.049 C 
HETATM   15  C   UNL     1      43.494 -17.647   4.541  1.00  0.00     0.049 C 
HETATM   16  C   UNL     1      42.916 -15.408   3.584  1.00  0.00     0.009 A 
ENDBRANCH   1   5
BRANCH   2  17
HETATM   17  C   UNL     1      43.185  -9.370   9.315  1.00  0.00     0.147 C 
HETATM   18  C   UNL     1      44.185  -9.179  10.500  1.00  0.00     0.149 C 
HETATM   19  C   UNL     1      43.538  -9.848  11.728  1.00  0.00     0.073 C 
HETATM   20  C   UNL     1      42.079  -9.749  11.405  1.00  0.00    -0.047 A 
HETATM   21  C   UNL     1      41.878  -9.474  10.048  1.00  0.00    -0.027 A 
HETATM   22  C   UNL     1      41.006  -9.940  12.259  1.00  0.00     0.008 A 
HETATM   23  C   UNL     1      40.599  -9.384   9.519  1.00  0.00     0.010 A 
HETATM   24  C   UNL     1      39.512  -9.565  10.374  1.00  0.00     0.001 A 
HETATM   25  C   UNL     1      39.715  -9.841  11.736  1.00  0.00     0.001 A 
BRANCH  18  26
HETATM   26  O   UNL     1      45.488  -9.708  10.270  1.00  0.00    -0.393 OA
HETATM   27  H   UNL     1      45.946  -9.717  11.136  1.00  0.00     0.210 HD
ENDBRANCH  18  26
ENDBRANCH   2  17
TORSDOF 3
ENDMDL
MODEL 10
REMARK VINA RESULT:      -7.6      2.283      7.877
REMARK  3 active torsions:
REMARK  status: ('A' for Active; 'I' for Inactive)
REMARK    1  A    between atoms: C_9  and  C_10 
REMARK       I    between atoms: C_10  and  N_11 
REMARK    2  A    between atoms: N_11  and  C_12 
REMARK    3  A    between atoms: C_13  and  O_14 
ROOT
HETATM    1  C   UNL     1      39.822 -13.555   2.243  1.00  0.00     0.268 C 
HETATM    2  N   UNL     1      40.854 -14.426   2.468  1.00  0.00    -0.344 N 
HETATM    3  O   UNL     1      38.875 -13.463   3.023  1.00  0.00    -0.266 OA
HETATM    4  H   UNL     1      41.648 -14.437   1.845  1.00  0.00     0.163 HD
ENDROOT
BRANCH   1   5
HETATM    5  C   UNL     1      39.913 -12.779   1.029  1.00  0.00     0.102 A 
HETATM    6  N   UNL     1      39.101 -13.037  -0.052  1.00  0.00    -0.351 N 
HETATM    7  C   UNL     1      39.425 -12.234  -1.119  1.00  0.00     0.043 A 
HETATM    8  H   UNL     1      38.390 -13.757  -0.060  1.00  0.00     0.166 HD
HETATM    9  C   UNL     1      40.445 -11.383  -0.705  1.00  0.00    -0.001 A 
HETATM   10  C   UNL     1      38.889 -12.206  -2.407  1.00  0.00     0.031 A 
HETATM   11  C   UNL     1      40.978 -10.429  -1.612  1.00  0.00    -0.043 A 
HETATM   12  C   UNL     1      40.731 -11.729   0.652  1.00  0.00     0.049 A 
HETATM   13  C   UNL     1      40.463 -10.412  -2.936  1.00  0.00    -0.055 A 
HETATM   14  C   UNL     1      42.077  -9.477  -1.216  1.00  0.00     0.049 C 
HETATM   15  C   UNL     1      40.993  -9.446  -3.964  1.00  0.00     0.049 C 
HETATM   16  C   UNL     1      39.429 -11.285  -3.306  1.00  0.00     0.009 A 
ENDBRANCH   1   5
BRANCH   2  17
HETATM   17  C   UNL     1      40.825 -15.384   3.554  1.00  0.00     0.147 C 
HETATM   18  C   UNL     1      41.311 -14.830   4.932  1.00  0.00     0.149 C 
HETATM   19  C   UNL     1      42.821 -15.128   5.011  1.00  0.00     0.073 C 
HETATM   20  C   UNL     1      42.950 -16.327   4.123  1.00  0.00    -0.047 A 
HETATM   21  C   UNL     1      41.824 -16.476   3.306  1.00  0.00    -0.027 A 
HETATM   22  C   UNL     1      44.023 -17.196   4.023  1.00  0.00     0.008 A 
HETATM   23  C   UNL     1      41.750 -17.499   2.372  1.00  0.00     0.010 A 
HETATM   24  C   UNL     1      42.823 -18.384   2.270  1.00  0.00     0.001 A 
HETATM   25  C   UNL     1      43.952 -18.234   3.091  1.00  0.00     0.001 A 
BRANCH  18  26
HETATM   26  O   UNL     1      41.063 -13.443   5.137  1.00  0.00    -0.393 OA
HETATM   27  H   UNL     1      41.843 -12.962   4.791  1.00  0.00     0.210 HD
ENDBRANCH  18  26
ENDBRANCH   2  17
TORSDOF 3
ENDMDL
