MODEL 1
REMARK VINA RESULT:      -8.8      0.000      0.000
REMARK  3 active torsions:
REMARK  status: ('A' for Active; 'I' for Inactive)
REMARK    1  A    between atoms: C_10  and  C_11 
REMARK       I    between atoms: C_11  and  N_12 
REMARK    2  A    between atoms: N_12  and  C_13 
REMARK    3  A    between atoms: C_16  and  N_17 
ROOT
HETATM    1  C   UNL     1      42.799 -16.125   2.095  1.00  0.00     0.258 C 
HETATM    2  N   UNL     1      41.585 -15.475   2.093  1.00  0.00    -0.322 N 
HETATM    3  O   UNL     1      43.573 -16.140   1.141  1.00  0.00    -0.267 OA
HETATM    4  H   UNL     1      40.998 -15.597   2.908  1.00  0.00     0.169 HD
ENDROOT
BRANCH   2   5
HETATM    5  C   UNL     1      41.106 -14.566   1.128  1.00  0.00     0.052 A 
HETATM    6  C   UNL     1      41.442 -13.224   1.041  1.00  0.00     0.148 A 
HETATM    7  N   UNL     1      40.879 -12.351   0.161  1.00  0.00    -0.247 NA
HETATM    8  C   UNL     1      39.937 -12.800  -0.694  1.00  0.00     0.105 A 
HETATM    9  C   UNL     1      39.572 -14.146  -0.687  1.00  0.00     0.047 A 
HETATM   10  C   UNL     1      40.161 -15.031   0.220  1.00  0.00     0.034 A 
BRANCH   8  11
HETATM   11  N   UNL     1      39.265 -11.884  -1.517  1.00  0.00    -0.258 NA
HETATM   12  C   UNL     1      37.854 -12.226  -1.813  1.00  0.00     0.199 C 
HETATM   13  C   UNL     1      37.169 -11.244  -2.784  1.00  0.00     0.231 C 
HETATM   14  O   UNL     1      35.944 -11.184  -2.894  1.00  0.00    -0.272 OA
HETATM   15  N   UNL     1      37.956 -10.479  -3.608  1.00  0.00    -0.359 N 
HETATM   16  C   UNL     1      39.358 -10.251  -3.323  1.00  0.00     0.137 C 
HETATM   17  H   UNL     1      37.445  -9.807  -4.165  1.00  0.00     0.162 HD
HETATM   18  C   UNL     1      40.039 -11.474  -2.702  1.00  0.00     0.117 C 
ENDBRANCH   8  11
ENDBRANCH   2   5
BRANCH   1  19
HETATM   19  C   UNL     1      43.151 -16.811   3.350  1.00  0.00     0.063 A 
HETATM   20  C   UNL     1      43.453 -18.189   3.658  1.00  0.00     0.046 A 
HETATM   21  C   UNL     1      43.571 -19.392   2.927  1.00  0.00     0.130 A 
HETATM   22  C   UNL     1      43.645 -18.276   5.044  1.00  0.00     0.046 A 
HETATM   23  C   UNL     1      43.857 -20.602   3.562  1.00  0.00     0.043 A 
HETATM   24  F   UNL     1      43.414 -19.400   1.596  1.00  0.00    -0.205 F 
HETATM   25  C   UNL     1      44.031 -20.644   4.939  1.00  0.00     0.005 A 
HETATM   26  C   UNL     1      43.929 -19.480   5.706  1.00  0.00     0.030 A 
HETATM   27  N   UNL     1      43.495 -17.013   5.559  1.00  0.00    -0.364 N 
HETATM   28  H   UNL     1      43.575 -16.775   6.540  1.00  0.00     0.165 HD
HETATM   29  C   UNL     1      43.201 -16.132   4.559  1.00  0.00     0.106 A 
ENDBRANCH   1  19
TORSDOF 3
ENDMDL
MODEL 2
REMARK VINA RESULT:      -8.7      1.288      1.776
REMARK  3 active torsions:
REMARK  status: ('A' for Active; 'I' for Inactive)
REMARK    1  A    between atoms: C_10  and  C_11 
REMARK       I    between atoms: C_11  and  N_12 
REMARK    2  A    between atoms: N_12  and  C_13 
REMARK    3  A    between atoms: C_16  and  N_17 
ROOT
HETATM    1  C   UNL     1      42.863 -16.206   2.123  1.00  0.00     0.258 C 
HETATM    2  N   UNL     1      41.554 -15.778   2.094  1.00  0.00    -0.322 N 
HETATM    3  O   UNL     1      43.678 -15.988   1.231  1.00  0.00    -0.267 OA
HETATM    4  H   UNL     1      40.954 -16.084   2.848  1.00  0.00     0.169 HD
ENDROOT
BRANCH   2   5
HETATM    5  C   UNL     1      40.974 -14.869   1.186  1.00  0.00     0.052 A 
HETATM    6  C   UNL     1      39.998 -15.171   0.249  1.00  0.00     0.148 A 
HETATM    7  N   UNL     1      39.536 -14.293  -0.683  1.00  0.00    -0.247 NA
HETATM    8  C   UNL     1      40.041 -13.042  -0.712  1.00  0.00     0.105 A 
HETATM    9  C   UNL     1      41.002 -12.656   0.223  1.00  0.00     0.047 A 
HETATM   10  C   UNL     1      41.464 -13.568   1.176  1.00  0.00     0.034 A 
BRANCH   8  11
HETATM   11  N   UNL     1      39.661 -12.171  -1.743  1.00  0.00    -0.258 NA
HETATM   12  C   UNL     1      40.734 -11.272  -2.230  1.00  0.00     0.199 C 
HETATM   13  C   UNL     1      40.265 -10.274  -3.307  1.00  0.00     0.231 C 
HETATM   14  O   UNL     1      41.059  -9.680  -4.037  1.00  0.00    -0.272 OA
HETATM   15  N   UNL     1      38.926  -9.978  -3.389  1.00  0.00    -0.359 N 
HETATM   16  C   UNL     1      37.920 -10.847  -2.814  1.00  0.00     0.137 C 
HETATM   17  H   UNL     1      38.681  -9.374  -4.163  1.00  0.00     0.162 HD
HETATM   18  C   UNL     1      38.378 -11.491  -1.503  1.00  0.00     0.117 C 
ENDBRANCH   8  11
ENDBRANCH   2   5
BRANCH   1  19
HETATM   19  C   UNL     1      43.261 -16.949   3.330  1.00  0.00     0.063 A 
HETATM   20  C   UNL     1      43.515 -18.349   3.575  1.00  0.00     0.046 A 
HETATM   21  C   UNL     1      43.526 -19.531   2.801  1.00  0.00     0.130 A 
HETATM   22  C   UNL     1      43.793 -18.492   4.942  1.00  0.00     0.046 A 
HETATM   23  C   UNL     1      43.794 -20.775   3.378  1.00  0.00     0.043 A 
HETATM   24  F   UNL     1      43.283 -19.487   1.484  1.00  0.00    -0.205 F 
HETATM   25  C   UNL     1      44.055 -20.871   4.739  1.00  0.00     0.005 A 
HETATM   26  C   UNL     1      44.060 -19.730   5.546  1.00  0.00     0.030 A 
HETATM   27  N   UNL     1      43.738 -17.242   5.504  1.00  0.00    -0.364 N 
HETATM   28  H   UNL     1      43.893 -17.041   6.484  1.00  0.00     0.165 HD
HETATM   29  C   UNL     1      43.423 -16.315   4.554  1.00  0.00     0.106 A 
ENDBRANCH   1  19
TORSDOF 3
ENDMDL
MODEL 3
REMARK VINA RESULT:      -8.6      5.991      9.572
REMARK  3 active torsions:
REMARK  status: ('A' for Active; 'I' for Inactive)
REMARK    1  A    between atoms: C_10  and  C_11 
REMARK       I    between atoms: C_11  and  N_12 
REMARK    2  A    between atoms: N_12  and  C_13 
REMARK    3  A    between atoms: C_16  and  N_17 
ROOT
HETATM    1  C   UNL     1      42.055 -12.428   6.082  1.00  0.00     0.258 C 
HETATM    2  N   UNL     1      43.203 -13.125   5.774  1.00  0.00    -0.322 N 
HETATM    3  O   UNL     1      40.922 -12.890   5.985  1.00  0.00    -0.267 OA
HETATM    4  H   UNL     1      44.075 -12.616   5.818  1.00  0.00     0.169 HD
ENDROOT
BRANCH   2   5
HETATM    5  C   UNL     1      43.316 -14.504   5.504  1.00  0.00     0.052 A 
HETATM    6  C   UNL     1      43.811 -15.462   6.375  1.00  0.00     0.148 A 
HETATM    7  N   UNL     1      44.004 -16.768   6.045  1.00  0.00    -0.247 NA
HETATM    8  C   UNL     1      43.697 -17.180   4.798  1.00  0.00     0.105 A 
HETATM    9  C   UNL     1      43.162 -16.279   3.877  1.00  0.00     0.047 A 
HETATM   10  C   UNL     1      42.966 -14.942   4.232  1.00  0.00     0.034 A 
BRANCH   8  11
HETATM   11  N   UNL     1      44.008 -18.492   4.412  1.00  0.00    -0.258 NA
HETATM   12  C   UNL     1      43.472 -18.900   3.092  1.00  0.00     0.199 C 
HETATM   13  C   UNL     1      43.762 -20.371   2.732  1.00  0.00     0.231 C 
HETATM   14  O   UNL     1      43.677 -20.789   1.577  1.00  0.00    -0.272 OA
HETATM   15  N   UNL     1      44.037 -21.252   3.748  1.00  0.00    -0.359 N 
HETATM   16  C   UNL     1      44.470 -20.796   5.053  1.00  0.00     0.137 C 
HETATM   17  H   UNL     1      44.289 -22.181   3.436  1.00  0.00     0.162 HD
HETATM   18  C   UNL     1      43.793 -19.489   5.474  1.00  0.00     0.117 C 
ENDBRANCH   8  11
ENDBRANCH   2   5
BRANCH   1  19
HETATM   19  C   UNL     1      42.260 -11.055   6.574  1.00  0.00     0.063 A 
HETATM   20  C   UNL     1      43.354 -10.418   7.268  1.00  0.00     0.046 A 
HETATM   21  C   UNL     1      44.637 -10.806   7.715  1.00  0.00     0.130 A 
HETATM   22  C   UNL     1      42.964  -9.102   7.549  1.00  0.00     0.046 A 
HETATM   23  C   UNL     1      45.464  -9.919   8.407  1.00  0.00     0.043 A 
HETATM   24  F   UNL     1      45.097 -12.043   7.480  1.00  0.00    -0.205 F 
HETATM   25  C   UNL     1      45.033  -8.625   8.672  1.00  0.00     0.005 A 
HETATM   26  C   UNL     1      43.774  -8.193   8.246  1.00  0.00     0.030 A 
HETATM   27  N   UNL     1      41.705  -8.928   7.032  1.00  0.00    -0.364 N 
HETATM   28  H   UNL     1      41.169  -8.071   7.091  1.00  0.00     0.165 HD
HETATM   29  C   UNL     1      41.276 -10.084   6.448  1.00  0.00     0.106 A 
ENDBRANCH   1  19
TORSDOF 3
ENDMDL
MODEL 4
REMARK VINA RESULT:      -8.4      6.211      8.614
REMARK  3 active torsions:
REMARK  status: ('A' for Active; 'I' for Inactive)
REMARK    1  A    between atoms: C_10  and  C_11 
REMARK       I    between atoms: C_11  and  N_12 
REMARK    2  A    between atoms: N_12  and  C_13 
REMARK    3  A    between atoms: C_16  and  N_17 
ROOT
HETATM    1  C   UNL     1      42.312 -14.695   5.534  1.00  0.00     0.258 C 
HETATM    2  N   UNL     1      43.290 -13.739   5.377  1.00  0.00    -0.322 N 
HETATM    3  O   UNL     1      41.564 -14.762   6.506  1.00  0.00    -0.267 OA
HETATM    4  H   UNL     1      43.896 -13.830   4.573  1.00  0.00     0.169 HD
ENDROOT
BRANCH   2   5
HETATM    5  C   UNL     1      43.480 -12.577   6.153  1.00  0.00     0.052 A 
HETATM    6  C   UNL     1      44.437 -12.411   7.142  1.00  0.00     0.148 A 
HETATM    7  N   UNL     1      44.524 -11.315   7.945  1.00  0.00    -0.247 NA
HETATM    8  C   UNL     1      43.636 -10.312   7.782  1.00  0.00     0.105 A 
HETATM    9  C   UNL     1      42.666 -10.394   6.784  1.00  0.00     0.047 A 
HETATM   10  C   UNL     1      42.591 -11.525   5.965  1.00  0.00     0.034 A 
BRANCH   8  11
HETATM   11  N   UNL     1      43.642  -9.237   8.683  1.00  0.00    -0.258 NA
HETATM   12  C   UNL     1      43.402  -9.605  10.097  1.00  0.00     0.199 C 
HETATM   13  C   UNL     1      43.334  -8.395  11.050  1.00  0.00     0.231 C 
HETATM   14  O   UNL     1      43.456  -8.517  12.270  1.00  0.00    -0.272 OA
HETATM   15  N   UNL     1      43.042  -7.161  10.524  1.00  0.00    -0.359 N 
HETATM   16  C   UNL     1      43.207  -6.879   9.112  1.00  0.00     0.137 C 
HETATM   17  H   UNL     1      43.086  -6.403  11.192  1.00  0.00     0.162 HD
HETATM   18  C   UNL     1      42.856  -8.078   8.228  1.00  0.00     0.117 C 
ENDBRANCH   8  11
ENDBRANCH   2   5
BRANCH   1  19
HETATM   19  C   UNL     1      42.184 -15.661   4.430  1.00  0.00     0.063 A 
HETATM   20  C   UNL     1      42.917 -16.857   4.089  1.00  0.00     0.046 A 
HETATM   21  C   UNL     1      43.982 -17.593   4.655  1.00  0.00     0.130 A 
HETATM   22  C   UNL     1      42.397 -17.337   2.879  1.00  0.00     0.046 A 
HETATM   23  C   UNL     1      44.490 -18.734   4.030  1.00  0.00     0.043 A 
HETATM   24  F   UNL     1      44.533 -17.213   5.817  1.00  0.00    -0.205 F 
HETATM   25  C   UNL     1      43.951 -19.168   2.826  1.00  0.00     0.005 A 
HETATM   26  C   UNL     1      42.893 -18.478   2.229  1.00  0.00     0.030 A 
HETATM   27  N   UNL     1      41.380 -16.495   2.506  1.00  0.00    -0.364 N 
HETATM   28  H   UNL     1      40.825 -16.594   1.666  1.00  0.00     0.165 HD
HETATM   29  C   UNL     1      41.244 -15.493   3.423  1.00  0.00     0.106 A 
ENDBRANCH   1  19
TORSDOF 3
ENDMDL
MODEL 5
REMARK VINA RESULT:      -8.2     14.930     17.543
REMARK  3 active torsions:
REMARK  status: ('A' for Active; 'I' for Inactive)
REMARK    1  A    between atoms: C_10  and  C_11 
REMARK       I    between atoms: C_11  and  N_12 
REMARK    2  A    between atoms: N_12  and  C_13 
REMARK    3  A    between atoms: C_16  and  N_17 
ROOT
HETATM    1  C   UNL     1      43.142 -29.781   1.685  1.00  0.00     0.258 C 
HETATM    2  N   UNL     1      43.086 -30.884   2.507  1.00  0.00    -0.322 N 
HETATM    3  O   UNL     1      42.156 -29.237   1.193  1.00  0.00    -0.267 OA
HETATM    4  H   UNL     1      43.967 -31.291   2.790  1.00  0.00     0.169 HD
ENDROOT
BRANCH   2   5
HETATM    5  C   UNL     1      41.937 -31.452   3.094  1.00  0.00     0.052 A 
HETATM    6  C   UNL     1      41.163 -32.463   2.546  1.00  0.00     0.148 A 
HETATM    7  N   UNL     1      40.001 -32.916   3.090  1.00  0.00    -0.247 NA
HETATM    8  C   UNL     1      39.557 -32.364   4.239  1.00  0.00     0.105 A 
HETATM    9  C   UNL     1      40.301 -31.366   4.866  1.00  0.00     0.047 A 
HETATM   10  C   UNL     1      41.495 -30.913   4.297  1.00  0.00     0.034 A 
BRANCH   8  11
HETATM   11  N   UNL     1      38.301 -32.737   4.740  1.00  0.00    -0.258 NA
HETATM   12  C   UNL     1      38.325 -33.368   6.080  1.00  0.00     0.199 C 
HETATM   13  C   UNL     1      36.940 -33.839   6.568  1.00  0.00     0.231 C 
HETATM   14  O   UNL     1      36.717 -34.090   7.753  1.00  0.00    -0.272 OA
HETATM   15  N   UNL     1      35.959 -34.067   5.636  1.00  0.00    -0.359 N 
HETATM   16  C   UNL     1      36.029 -33.501   4.304  1.00  0.00     0.137 C 
HETATM   17  H   UNL     1      35.057 -34.303   6.030  1.00  0.00     0.162 HD
HETATM   18  C   UNL     1      37.460 -33.448   3.762  1.00  0.00     0.117 C 
ENDBRANCH   8  11
ENDBRANCH   2   5
BRANCH   1  19
HETATM   19  C   UNL     1      44.491 -29.248   1.428  1.00  0.00     0.063 A 
HETATM   20  C   UNL     1      45.170 -28.854   0.216  1.00  0.00     0.046 A 
HETATM   21  C   UNL     1      44.842 -28.779  -1.155  1.00  0.00     0.130 A 
HETATM   22  C   UNL     1      46.477 -28.487   0.569  1.00  0.00     0.046 A 
HETATM   23  C   UNL     1      45.779 -28.366  -2.105  1.00  0.00     0.043 A 
HETATM   24  F   UNL     1      43.612 -29.100  -1.581  1.00  0.00    -0.205 F 
HETATM   25  C   UNL     1      47.065 -28.021  -1.713  1.00  0.00     0.005 A 
HETATM   26  C   UNL     1      47.437 -28.074  -0.367  1.00  0.00     0.030 A 
HETATM   27  N   UNL     1      46.588 -28.624   1.930  1.00  0.00    -0.364 N 
HETATM   28  H   UNL     1      47.426 -28.432   2.464  1.00  0.00     0.165 HD
HETATM   29  C   UNL     1      45.411 -29.076   2.452  1.00  0.00     0.106 A 
ENDBRANCH   1  19
TORSDOF 3
ENDMDL
MODEL 6
REMARK VINA RESULT:      -8.0      1.691      2.553
REMARK  3 active torsions:
REMARK  status: ('A' for Active; 'I' for Inactive)
REMARK    1  A    between atoms: C_10  and  C_11 
REMARK       I    between atoms: C_11  and  N_12 
REMARK    2  A    between atoms: N_12  and  C_13 
REMARK    3  A    between atoms: C_16  and  N_17 
ROOT
HETATM    1  C   UNL     1      42.869 -15.820   2.285  1.00  0.00     0.258 C 
HETATM    2  N   UNL     1      41.587 -15.336   2.147  1.00  0.00    -0.322 N 
HETATM    3  O   UNL     1      43.752 -15.679   1.444  1.00  0.00    -0.267 OA
HETATM    4  H   UNL     1      40.923 -15.581   2.869  1.00  0.00     0.169 HD
ENDROOT
BRANCH   2   5
HETATM    5  C   UNL     1      41.114 -14.444   1.163  1.00  0.00     0.052 A 
HETATM    6  C   UNL     1      41.423 -13.096   1.076  1.00  0.00     0.148 A 
HETATM    7  N   UNL     1      40.866 -12.240   0.176  1.00  0.00    -0.247 NA
HETATM    8  C   UNL     1      39.956 -12.714  -0.701  1.00  0.00     0.105 A 
HETATM    9  C   UNL     1      39.620 -14.068  -0.695  1.00  0.00     0.047 A 
HETATM   10  C   UNL     1      40.204 -14.934   0.233  1.00  0.00     0.034 A 
BRANCH   8  11
HETATM   11  N   UNL     1      39.287 -11.818  -1.548  1.00  0.00    -0.258 NA
HETATM   12  C   UNL     1      37.868 -12.149  -1.814  1.00  0.00     0.199 C 
HETATM   13  C   UNL     1      37.184 -11.192  -2.811  1.00  0.00     0.231 C 
HETATM   14  O   UNL     1      35.959 -11.118  -2.908  1.00  0.00    -0.272 OA
HETATM   15  N   UNL     1      37.972 -10.469  -3.672  1.00  0.00    -0.359 N 
HETATM   16  C   UNL     1      39.380 -10.252  -3.411  1.00  0.00     0.137 C 
HETATM   17  H   UNL     1      37.463  -9.809  -4.245  1.00  0.00     0.162 HD
HETATM   18  C   UNL     1      40.051 -11.462  -2.756  1.00  0.00     0.117 C 
ENDBRANCH   8  11
ENDBRANCH   2   5
BRANCH   1  19
HETATM   19  C   UNL     1      43.148 -16.525   3.547  1.00  0.00     0.063 A 
HETATM   20  C   UNL     1      43.075 -16.118   4.930  1.00  0.00     0.046 A 
HETATM   21  C   UNL     1      42.694 -14.950   5.627  1.00  0.00     0.130 A 
HETATM   22  C   UNL     1      43.530 -17.192   5.708  1.00  0.00     0.046 A 
HETATM   23  C   UNL     1      42.774 -14.876   7.019  1.00  0.00     0.043 A 
HETATM   24  F   UNL     1      42.236 -13.878   4.964  1.00  0.00    -0.205 F 
HETATM   25  C   UNL     1      43.240 -15.961   7.750  1.00  0.00     0.005 A 
HETATM   26  C   UNL     1      43.625 -17.140   7.107  1.00  0.00     0.030 A 
HETATM   27  N   UNL     1      43.842 -18.217   4.851  1.00  0.00    -0.364 N 
HETATM   28  H   UNL     1      44.201 -19.119   5.135  1.00  0.00     0.165 HD
HETATM   29  C   UNL     1      43.617 -17.832   3.561  1.00  0.00     0.106 A 
ENDBRANCH   1  19
TORSDOF 3
ENDMDL
MODEL 7
REMARK VINA RESULT:      -7.9      3.077      3.479
REMARK  3 active torsions:
REMARK  status: ('A' for Active; 'I' for Inactive)
REMARK    1  A    between atoms: C_10  and  C_11 
REMARK       I    between atoms: C_11  and  N_12 
REMARK    2  A    between atoms: N_12  and  C_13 
REMARK    3  A    between atoms: C_16  and  N_17 
ROOT
HETATM    1  C   UNL     1      42.633 -15.656   3.576  1.00  0.00     0.258 C 
HETATM    2  N   UNL     1      41.263 -15.538   3.650  1.00  0.00    -0.322 N 
HETATM    3  O   UNL     1      43.362 -14.863   2.985  1.00  0.00    -0.267 OA
HETATM    4  H   UNL     1      40.760 -16.293   4.097  1.00  0.00     0.169 HD
ENDROOT
BRANCH   2   5
HETATM    5  C   UNL     1      40.481 -14.430   3.266  1.00  0.00     0.052 A 
HETATM    6  C   UNL     1      40.056 -14.145   1.977  1.00  0.00     0.148 A 
HETATM    7  N   UNL     1      39.391 -13.011   1.625  1.00  0.00    -0.247 NA
HETATM    8  C   UNL     1      39.112 -12.093   2.575  1.00  0.00     0.105 A 
HETATM    9  C   UNL     1      39.479 -12.328   3.900  1.00  0.00     0.047 A 
HETATM   10  C   UNL     1      40.158 -13.499   4.247  1.00  0.00     0.034 A 
BRANCH   8  11
HETATM   11  N   UNL     1      38.539 -10.870   2.200  1.00  0.00    -0.258 NA
HETATM   12  C   UNL     1      38.473  -9.854   3.277  1.00  0.00     0.199 C 
HETATM   13  C   UNL     1      37.766  -8.550   2.857  1.00  0.00     0.231 C 
HETATM   14  O   UNL     1      37.893  -7.504   3.495  1.00  0.00    -0.272 OA
HETATM   15  N   UNL     1      36.903  -8.586   1.789  1.00  0.00    -0.359 N 
HETATM   16  C   UNL     1      36.948  -9.655   0.812  1.00  0.00     0.137 C 
HETATM   17  H   UNL     1      36.533  -7.683   1.524  1.00  0.00     0.162 HD
HETATM   18  C   UNL     1      37.287 -11.010   1.438  1.00  0.00     0.117 C 
ENDBRANCH   8  11
ENDBRANCH   2   5
BRANCH   1  19
HETATM   19  C   UNL     1      43.209 -16.811   4.285  1.00  0.00     0.063 A 
HETATM   20  C   UNL     1      43.460 -18.176   3.886  1.00  0.00     0.046 A 
HETATM   21  C   UNL     1      43.304 -18.935   2.705  1.00  0.00     0.130 A 
HETATM   22  C   UNL     1      43.963 -18.854   5.005  1.00  0.00     0.046 A 
HETATM   23  C   UNL     1      43.630 -20.292   2.665  1.00  0.00     0.043 A 
HETATM   24  F   UNL     1      42.841 -18.365   1.583  1.00  0.00    -0.205 F 
HETATM   25  C   UNL     1      44.116 -20.927   3.800  1.00  0.00     0.005 A 
HETATM   26  C   UNL     1      44.293 -20.218   4.992  1.00  0.00     0.030 A 
HETATM   27  N   UNL     1      44.042 -17.948   6.032  1.00  0.00    -0.364 N 
HETATM   28  H   UNL     1      44.368 -18.160   6.967  1.00  0.00     0.165 HD
HETATM   29  C   UNL     1      43.597 -16.728   5.615  1.00  0.00     0.106 A 
ENDBRANCH   1  19
TORSDOF 3
ENDMDL
MODEL 8
REMARK VINA RESULT:      -7.7      4.055      4.911
REMARK  3 active torsions:
REMARK  status: ('A' for Active; 'I' for Inactive)
REMARK    1  A    between atoms: C_10  and  C_11 
REMARK       I    between atoms: C_11  and  N_12 
REMARK    2  A    between atoms: N_12  and  C_13 
REMARK    3  A    between atoms: C_16  and  N_17 
ROOT
HETATM    1  C   UNL     1      42.772 -15.982   5.056  1.00  0.00     0.258 C 
HETATM    2  N   UNL     1      41.515 -15.749   4.543  1.00  0.00    -0.322 N 
HETATM    3  O   UNL     1      43.522 -15.101   5.469  1.00  0.00    -0.267 OA
HETATM    4  H   UNL     1      41.020 -16.544   4.163  1.00  0.00     0.169 HD
ENDROOT
BRANCH   2   5
HETATM    5  C   UNL     1      40.789 -14.541   4.583  1.00  0.00     0.052 A 
HETATM    6  C   UNL     1      40.455 -13.760   3.488  1.00  0.00     0.148 A 
HETATM    7  N   UNL     1      39.844 -12.547   3.572  1.00  0.00    -0.247 NA
HETATM    8  C   UNL     1      39.529 -12.055   4.789  1.00  0.00     0.105 A 
HETATM    9  C   UNL     1      39.805 -12.801   5.935  1.00  0.00     0.047 A 
HETATM   10  C   UNL     1      40.429 -14.047   5.832  1.00  0.00     0.034 A 
BRANCH   8  11
HETATM   11  N   UNL     1      39.014 -10.755   4.892  1.00  0.00    -0.258 NA
HETATM   12  C   UNL     1      38.602 -10.142   3.608  1.00  0.00     0.199 C 
HETATM   13  C   UNL     1      38.114  -8.686   3.744  1.00  0.00     0.231 C 
HETATM   14  O   UNL     1      37.452  -8.134   2.864  1.00  0.00    -0.272 OA
HETATM   15  N   UNL     1      38.508  -7.962   4.843  1.00  0.00    -0.359 N 
HETATM   16  C   UNL     1      38.992  -8.609   6.045  1.00  0.00     0.137 C 
HETATM   17  H   UNL     1      38.093  -7.042   4.904  1.00  0.00     0.162 HD
HETATM   18  C   UNL     1      39.817  -9.864   5.746  1.00  0.00     0.117 C 
ENDBRANCH   8  11
ENDBRANCH   2   5
BRANCH   1  19
HETATM   19  C   UNL     1      43.184 -17.395   5.110  1.00  0.00     0.063 A 
HETATM   20  C   UNL     1      43.385 -18.393   4.086  1.00  0.00     0.046 A 
HETATM   21  C   UNL     1      43.313 -18.431   2.676  1.00  0.00     0.130 A 
HETATM   22  C   UNL     1      43.709 -19.595   4.730  1.00  0.00     0.046 A 
HETATM   23  C   UNL     1      43.548 -19.612   1.968  1.00  0.00     0.043 A 
HETATM   24  F   UNL     1      43.020 -17.325   1.977  1.00  0.00    -0.205 F 
HETATM   25  C   UNL     1      43.857 -20.783   2.648  1.00  0.00     0.005 A 
HETATM   26  C   UNL     1      43.944 -20.795   4.042  1.00  0.00     0.030 A 
HETATM   27  N   UNL     1      43.732 -19.345   6.079  1.00  0.00    -0.364 N 
HETATM   28  H   UNL     1      43.934 -20.034   6.792  1.00  0.00     0.165 HD
HETATM   29  C   UNL     1      43.421 -18.037   6.317  1.00  0.00     0.106 A 
ENDBRANCH   1  19
TORSDOF 3
ENDMDL
MODEL 9
REMARK VINA RESULT:      -7.7      5.699      6.738
REMARK  3 active torsions:
REMARK  status: ('A' for Active; 'I' for Inactive)
REMARK    1  A    between atoms: C_10  and  C_11 
REMARK       I    between atoms: C_11  and  N_12 
REMARK    2  A    between atoms: N_12  and  C_13 
REMARK    3  A    between atoms: C_16  and  N_17 
ROOT
HETATM    1  C   UNL     1      42.712 -15.511   4.811  1.00  0.00     0.258 C 
HETATM    2  N   UNL     1      42.275 -14.825   5.923  1.00  0.00    -0.322 N 
HETATM    3  O   UNL     1      42.755 -15.033   3.680  1.00  0.00    -0.267 OA
HETATM    4  H   UNL     1      42.210 -15.345   6.787  1.00  0.00     0.169 HD
ENDROOT
BRANCH   2   5
HETATM    5  C   UNL     1      42.006 -13.445   6.022  1.00  0.00     0.052 A 
HETATM    6  C   UNL     1      42.910 -12.468   6.410  1.00  0.00     0.148 A 
HETATM    7  N   UNL     1      42.588 -11.159   6.596  1.00  0.00    -0.247 NA
HETATM    8  C   UNL     1      41.315 -10.762   6.391  1.00  0.00     0.105 A 
HETATM    9  C   UNL     1      40.357 -11.683   5.965  1.00  0.00     0.047 A 
HETATM   10  C   UNL     1      40.704 -13.024   5.775  1.00  0.00     0.034 A 
BRANCH   8  11
HETATM   11  N   UNL     1      40.948  -9.444   6.698  1.00  0.00    -0.258 NA
HETATM   12  C   UNL     1      42.057  -8.463   6.667  1.00  0.00     0.199 C 
HETATM   13  C   UNL     1      41.638  -7.040   7.087  1.00  0.00     0.231 C 
HETATM   14  O   UNL     1      42.327  -6.053   6.826  1.00  0.00    -0.272 OA
HETATM   15  N   UNL     1      40.507  -6.887   7.850  1.00  0.00    -0.359 N 
HETATM   16  C   UNL     1      39.493  -7.920   7.920  1.00  0.00     0.137 C 
HETATM   17  H   UNL     1      40.251  -5.925   8.027  1.00  0.00     0.162 HD
HETATM   18  C   UNL     1      40.086  -9.331   7.887  1.00  0.00     0.117 C 
ENDBRANCH   8  11
ENDBRANCH   2   5
BRANCH   1  19
HETATM   19  C   UNL     1      43.164 -16.891   5.054  1.00  0.00     0.063 A 
HETATM   20  C   UNL     1      43.370 -18.020   4.177  1.00  0.00     0.046 A 
HETATM   21  C   UNL     1      43.269 -18.260   2.789  1.00  0.00     0.130 A 
HETATM   22  C   UNL     1      43.741 -19.110   4.977  1.00  0.00     0.046 A 
HETATM   23  C   UNL     1      43.521 -19.524   2.250  1.00  0.00     0.043 A 
HETATM   24  F   UNL     1      42.931 -17.273   1.947  1.00  0.00    -0.205 F 
HETATM   25  C   UNL     1      43.876 -20.578   3.081  1.00  0.00     0.005 A 
HETATM   26  C   UNL     1      43.994 -20.389   4.460  1.00  0.00     0.030 A 
HETATM   27  N   UNL     1      43.786 -18.669   6.275  1.00  0.00    -0.364 N 
HETATM   28  H   UNL     1      44.022 -19.245   7.074  1.00  0.00     0.165 HD
HETATM   29  C   UNL     1      43.445 -17.349   6.333  1.00  0.00     0.106 A 
ENDBRANCH   1  19
TORSDOF 3
ENDMDL
MODEL 10
REMARK VINA RESULT:      -7.7      5.577      6.933
REMARK  3 active torsions:
REMARK  status: ('A' for Active; 'I' for Inactive)
REMARK    1  A    between atoms: C_10  and  C_11 
REMARK       I    between atoms: C_11  and  N_12 
REMARK    2  A    between atoms: N_12  and  C_13 
REMARK    3  A    between atoms: C_16  and  N_17 
ROOT
HETATM    1  C   UNL     1      42.807 -15.538   5.138  1.00  0.00     0.258 C 
HETATM    2  N   UNL     1      43.000 -14.276   4.620  1.00  0.00    -0.322 N 
HETATM    3  O   UNL     1      42.472 -15.762   6.298  1.00  0.00    -0.267 OA
HETATM    4  H   UNL     1      43.351 -14.216   3.674  1.00  0.00     0.169 HD
ENDROOT
BRANCH   2   5
HETATM    5  C   UNL     1      42.664 -13.047   5.223  1.00  0.00     0.052 A 
HETATM    6  C   UNL     1      43.522 -12.241   5.954  1.00  0.00     0.148 A 
HETATM    7  N   UNL     1      43.138 -11.113   6.611  1.00  0.00    -0.247 NA
HETATM    8  C   UNL     1      41.844 -10.732   6.556  1.00  0.00     0.105 A 
HETATM    9  C   UNL     1      40.929 -11.474   5.810  1.00  0.00     0.047 A 
HETATM   10  C   UNL     1      41.341 -12.629   5.138  1.00  0.00     0.034 A 
BRANCH   8  11
HETATM   11  N   UNL     1      41.416  -9.642   7.328  1.00  0.00    -0.258 NA
HETATM   12  C   UNL     1      39.994  -9.690   7.742  1.00  0.00     0.199 C 
HETATM   13  C   UNL     1      39.533  -8.442   8.521  1.00  0.00     0.231 C 
HETATM   14  O   UNL     1      38.507  -8.439   9.202  1.00  0.00    -0.272 OA
HETATM   15  N   UNL     1      40.246  -7.277   8.376  1.00  0.00    -0.359 N 
HETATM   16  C   UNL     1      41.606  -7.277   7.877  1.00  0.00     0.137 C 
HETATM   17  H   UNL     1      39.932  -6.521   8.970  1.00  0.00     0.162 HD
HETATM   18  C   UNL     1      41.837  -8.336   6.796  1.00  0.00     0.117 C 
ENDBRANCH   8  11
ENDBRANCH   2   5
BRANCH   1  19
HETATM   19  C   UNL     1      43.007 -16.649   4.192  1.00  0.00     0.063 A 
HETATM   20  C   UNL     1      43.372 -18.033   4.376  1.00  0.00     0.046 A 
HETATM   21  C   UNL     1      43.643 -18.876   5.477  1.00  0.00     0.130 A 
HETATM   22  C   UNL     1      43.486 -18.610   3.103  1.00  0.00     0.046 A 
HETATM   23  C   UNL     1      44.010 -20.211   5.297  1.00  0.00     0.043 A 
HETATM   24  F   UNL     1      43.548 -18.412   6.731  1.00  0.00    -0.205 F 
HETATM   25  C   UNL     1      44.120 -20.739   4.017  1.00  0.00     0.005 A 
HETATM   26  C   UNL     1      43.858 -19.947   2.896  1.00  0.00     0.030 A 
HETATM   27  N   UNL     1      43.181 -17.638   2.184  1.00  0.00    -0.364 N 
HETATM   28  H   UNL     1      43.186 -17.768   1.180  1.00  0.00     0.165 HD
HETATM   29  C   UNL     1      42.894 -16.466   2.821  1.00  0.00     0.106 A 
ENDBRANCH   1  19
TORSDOF 3
ENDMDL
