MODEL 1
REMARK VINA RESULT:      -8.1      0.000      0.000
REMARK  5 active torsions:
REMARK  status: ('A' for Active; 'I' for Inactive)
REMARK    1  A    between atoms: C_2  and  C_3 
REMARK    2  A    between atoms: C_5  and  N_6 
REMARK       I    between atoms: N_6  and  C_7 
REMARK    3  A    between atoms: C_7  and  C_8 
REMARK    4  A    between atoms: C_9  and  C_10 
REMARK    5  A    between atoms: C_21  and  O_22 
ROOT
HETATM    1  N   UNL     1      42.793 -12.253   5.519  1.00  0.00    -0.321 N 
HETATM    2  C   UNL     1      43.042 -12.188   4.169  1.00  0.00     0.245 C 
HETATM    3  O   UNL     1      43.171 -11.185   3.480  1.00  0.00    -0.268 OA
HETATM    4  H   UNL     1      42.839 -13.156   5.979  1.00  0.00     0.169 HD
ENDROOT
BRANCH   1   5
HETATM    5  C   UNL     1      42.547 -11.186   6.413  1.00  0.00     0.069 A 
HETATM    6  C   UNL     1      43.539 -10.593   7.201  1.00  0.00     0.040 A 
HETATM    7  C   UNL     1      43.257  -9.513   8.064  1.00  0.00    -0.048 A 
HETATM    8  C   UNL     1      41.932  -9.056   8.112  1.00  0.00     0.011 A 
HETATM    9  C   UNL     1      40.928  -9.640   7.328  1.00  0.00     0.039 A 
HETATM   10  C   UNL     1      41.227 -10.700   6.474  1.00  0.00     0.095 A 
BRANCH   7  11
HETATM   11  C   UNL     1      44.388  -8.873   8.890  1.00  0.00    -0.024 C 
HETATM   12  C   UNL     1      44.125  -7.358   9.033  1.00  0.00     0.019 C 
HETATM   13  C   UNL     1      45.744  -9.089   8.186  1.00  0.00     0.019 C 
HETATM   14  C   UNL     1      44.520  -9.450  10.318  1.00  0.00     0.019 C 
ENDBRANCH   7  11
BRANCH  10  15
HETATM   15  O   UNL     1      40.321 -11.339   5.658  1.00  0.00    -0.354 OA
HETATM   16  C   UNL     1      39.567 -10.522   4.770  1.00  0.00     0.210 C 
ENDBRANCH  10  15
ENDBRANCH   1   5
BRANCH   2  17
HETATM   17  C   UNL     1      43.182 -13.544   3.576  1.00  0.00     0.077 C 
HETATM   18  C   UNL     1      43.025 -14.631   4.347  1.00  0.00     0.038 C 
BRANCH  18  19
HETATM   19  C   UNL     1      43.184 -16.000   3.849  1.00  0.00     0.075 A 
HETATM   20  N   UNL     1      43.558 -16.953   4.735  1.00  0.00    -0.245 NA
HETATM   21  C   UNL     1      43.668 -18.213   4.267  1.00  0.00     0.086 A 
HETATM   22  C   UNL     1      43.422 -18.523   2.906  1.00  0.00     0.085 A 
HETATM   23  C   UNL     1      44.023 -19.237   5.138  1.00  0.00     0.034 A 
HETATM   24  N   UNL     1      43.062 -17.570   2.025  1.00  0.00    -0.256 NA
HETATM   25  C   UNL     1      43.552 -19.839   2.480  1.00  0.00     0.034 A 
HETATM   26  C   UNL     1      42.942 -16.315   2.520  1.00  0.00     0.148 A 
HETATM   27  C   UNL     1      43.911 -20.858   3.364  1.00  0.00     0.002 A 
HETATM   28  C   UNL     1      44.145 -20.556   4.699  1.00  0.00     0.002 A 
ENDBRANCH  18  19
ENDBRANCH   2  17
TORSDOF 5
ENDMDL
MODEL 2
REMARK VINA RESULT:      -8.1      2.575      3.620
REMARK  5 active torsions:
REMARK  status: ('A' for Active; 'I' for Inactive)
REMARK    1  A    between atoms: C_2  and  C_3 
REMARK    2  A    between atoms: C_5  and  N_6 
REMARK       I    between atoms: N_6  and  C_7 
REMARK    3  A    between atoms: C_7  and  C_8 
REMARK    4  A    between atoms: C_9  and  C_10 
REMARK    5  A    between atoms: C_21  and  O_22 
ROOT
HETATM    1  N   UNL     1      43.108 -10.373   8.044  1.00  0.00    -0.321 N 
HETATM    2  C   UNL     1      44.258 -11.121   7.971  1.00  0.00     0.245 C 
HETATM    3  O   UNL     1      45.220 -11.090   8.727  1.00  0.00    -0.268 OA
HETATM    4  H   UNL     1      42.341 -10.598   7.419  1.00  0.00     0.169 HD
ENDROOT
BRANCH   1   5
HETATM    5  C   UNL     1      42.797  -9.338   8.955  1.00  0.00     0.069 A 
HETATM    6  C   UNL     1      42.644  -9.539  10.331  1.00  0.00     0.040 A 
HETATM    7  C   UNL     1      42.357  -8.475  11.211  1.00  0.00    -0.048 A 
HETATM    8  C   UNL     1      42.221  -7.196  10.652  1.00  0.00     0.011 A 
HETATM    9  C   UNL     1      42.372  -6.979   9.276  1.00  0.00     0.039 A 
HETATM   10  C   UNL     1      42.665  -8.042   8.423  1.00  0.00     0.095 A 
BRANCH   7  11
HETATM   11  C   UNL     1      42.226  -8.741  12.723  1.00  0.00    -0.024 C 
HETATM   12  C   UNL     1      43.121  -7.748  13.496  1.00  0.00     0.019 C 
HETATM   13  C   UNL     1      42.670 -10.183  13.046  1.00  0.00     0.019 C 
HETATM   14  C   UNL     1      40.787  -8.576  13.262  1.00  0.00     0.019 C 
ENDBRANCH   7  11
BRANCH  10  15
HETATM   15  O   UNL     1      42.841  -7.937   7.061  1.00  0.00    -0.354 OA
HETATM   16  C   UNL     1      41.755  -7.407   6.311  1.00  0.00     0.210 C 
ENDBRANCH  10  15
ENDBRANCH   1   5
BRANCH   2  17
HETATM   17  C   UNL     1      44.221 -12.066   6.824  1.00  0.00     0.077 C 
HETATM   18  C   UNL     1      43.373 -13.106   6.842  1.00  0.00     0.038 C 
BRANCH  18  19
HETATM   19  C   UNL     1      43.301 -14.104   5.770  1.00  0.00     0.075 A 
HETATM   20  N   UNL     1      43.801 -15.337   6.023  1.00  0.00    -0.245 NA
HETATM   21  C   UNL     1      43.697 -16.252   5.038  1.00  0.00     0.086 A 
HETATM   22  C   UNL     1      43.110 -15.933   3.788  1.00  0.00     0.085 A 
HETATM   23  C   UNL     1      44.169 -17.542   5.252  1.00  0.00     0.034 A 
HETATM   24  N   UNL     1      42.625 -14.702   3.536  1.00  0.00    -0.256 NA
HETATM   25  C   UNL     1      43.032 -16.916   2.809  1.00  0.00     0.034 A 
HETATM   26  C   UNL     1      42.725 -13.803   4.545  1.00  0.00     0.148 A 
HETATM   27  C   UNL     1      43.511 -18.208   3.036  1.00  0.00     0.002 A 
HETATM   28  C   UNL     1      44.079 -18.522   4.263  1.00  0.00     0.002 A 
ENDBRANCH  18  19
ENDBRANCH   2  17
TORSDOF 5
ENDMDL
MODEL 3
REMARK VINA RESULT:      -8.0      2.340      3.824
REMARK  5 active torsions:
REMARK  status: ('A' for Active; 'I' for Inactive)
REMARK    1  A    between atoms: C_2  and  C_3 
REMARK    2  A    between atoms: C_5  and  N_6 
REMARK       I    between atoms: N_6  and  C_7 
REMARK    3  A    between atoms: C_7  and  C_8 
REMARK    4  A    between atoms: C_9  and  C_10 
REMARK    5  A    between atoms: C_21  and  O_22 
ROOT
HETATM    1  N   UNL     1      43.367 -11.093   7.869  1.00  0.00    -0.321 N 
HETATM    2  C   UNL     1      42.731 -10.653   6.734  1.00  0.00     0.245 C 
HETATM    3  O   UNL     1      42.265  -9.541   6.522  1.00  0.00    -0.268 OA
HETATM    4  H   UNL     1      43.815 -12.004   7.854  1.00  0.00     0.169 HD
ENDROOT
BRANCH   1   5
HETATM    5  C   UNL     1      43.561 -10.400   9.086  1.00  0.00     0.069 A 
HETATM    6  C   UNL     1      42.517 -10.039   9.945  1.00  0.00     0.040 A 
HETATM    7  C   UNL     1      42.756  -9.367  11.163  1.00  0.00    -0.048 A 
HETATM    8  C   UNL     1      44.087  -9.063  11.481  1.00  0.00     0.011 A 
HETATM    9  C   UNL     1      45.142  -9.419  10.631  1.00  0.00     0.039 A 
HETATM   10  C   UNL     1      44.889 -10.090   9.435  1.00  0.00     0.095 A 
BRANCH   7  11
HETATM   11  C   UNL     1      41.577  -9.017  12.090  1.00  0.00    -0.024 C 
HETATM   12  C   UNL     1      40.365  -9.906  11.736  1.00  0.00     0.019 C 
HETATM   13  C   UNL     1      41.189  -7.534  11.914  1.00  0.00     0.019 C 
HETATM   14  C   UNL     1      41.879  -9.233  13.591  1.00  0.00     0.019 C 
ENDBRANCH   7  11
BRANCH  10  15
HETATM   15  O   UNL     1      45.850 -10.491   8.535  1.00  0.00    -0.354 OA
HETATM   16  C   UNL     1      46.550  -9.466   7.841  1.00  0.00     0.210 C 
ENDBRANCH  10  15
ENDBRANCH   1   5
BRANCH   2  17
HETATM   17  C   UNL     1      42.678 -11.713   5.693  1.00  0.00     0.077 C 
HETATM   18  C   UNL     1      42.801 -13.002   6.045  1.00  0.00     0.038 C 
BRANCH  18  19
HETATM   19  C   UNL     1      42.798 -14.104   5.078  1.00  0.00     0.075 A 
HETATM   20  N   UNL     1      43.454 -15.239   5.415  1.00  0.00    -0.245 NA
HETATM   21  C   UNL     1      43.414 -16.254   4.528  1.00  0.00     0.086 A 
HETATM   22  C   UNL     1      42.734 -16.132   3.291  1.00  0.00     0.085 A 
HETATM   23  C   UNL     1      44.049 -17.453   4.833  1.00  0.00     0.034 A 
HETATM   24  N   UNL     1      42.093 -14.997   2.955  1.00  0.00    -0.256 NA
HETATM   25  C   UNL     1      42.728 -17.211   2.415  1.00  0.00     0.034 A 
HETATM   26  C   UNL     1      42.131 -13.996   3.866  1.00  0.00     0.148 A 
HETATM   27  C   UNL     1      43.369 -18.409   2.733  1.00  0.00     0.002 A 
HETATM   28  C   UNL     1      44.030 -18.531   3.948  1.00  0.00     0.002 A 
ENDBRANCH  18  19
ENDBRANCH   2  17
TORSDOF 5
ENDMDL
MODEL 4
REMARK VINA RESULT:      -7.9      3.339      9.068
REMARK  5 active torsions:
REMARK  status: ('A' for Active; 'I' for Inactive)
REMARK    1  A    between atoms: C_2  and  C_3 
REMARK    2  A    between atoms: C_5  and  N_6 
REMARK       I    between atoms: N_6  and  C_7 
REMARK    3  A    between atoms: C_7  and  C_8 
REMARK    4  A    between atoms: C_9  and  C_10 
REMARK    5  A    between atoms: C_21  and  O_22 
ROOT
HETATM    1  N   UNL     1      41.532 -13.408   3.524  1.00  0.00    -0.321 N 
HETATM    2  C   UNL     1      42.804 -12.914   3.683  1.00  0.00     0.245 C 
HETATM    3  O   UNL     1      43.666 -12.776   2.826  1.00  0.00    -0.268 OA
HETATM    4  H   UNL     1      40.884 -13.343   4.301  1.00  0.00     0.169 HD
ENDROOT
BRANCH   1   5
HETATM    5  C   UNL     1      40.947 -13.949   2.356  1.00  0.00     0.069 A 
HETATM    6  C   UNL     1      40.719 -13.209   1.191  1.00  0.00     0.040 A 
HETATM    7  C   UNL     1      40.154 -13.793   0.038  1.00  0.00    -0.048 A 
HETATM    8  C   UNL     1      39.818 -15.153   0.103  1.00  0.00     0.011 A 
HETATM    9  C   UNL     1      40.041 -15.907   1.262  1.00  0.00     0.039 A 
HETATM   10  C   UNL     1      40.609 -15.315   2.390  1.00  0.00     0.095 A 
BRANCH   7  11
HETATM   11  C   UNL     1      39.949 -12.944  -1.232  1.00  0.00    -0.024 C 
HETATM   12  C   UNL     1      40.020 -13.857  -2.475  1.00  0.00     0.019 C 
HETATM   13  C   UNL     1      41.047 -11.865  -1.329  1.00  0.00     0.019 C 
HETATM   14  C   UNL     1      38.587 -12.213  -1.279  1.00  0.00     0.019 C 
ENDBRANCH   7  11
BRANCH  10  15
HETATM   15  O   UNL     1      40.877 -15.965   3.573  1.00  0.00    -0.354 OA
HETATM   16  C   UNL     1      41.981 -16.861   3.580  1.00  0.00     0.210 C 
ENDBRANCH  10  15
ENDBRANCH   1   5
BRANCH   2  17
HETATM   17  C   UNL     1      43.054 -12.499   5.089  1.00  0.00     0.077 C 
HETATM   18  C   UNL     1      43.803 -11.415   5.343  1.00  0.00     0.038 C 
BRANCH  18  19
HETATM   19  C   UNL     1      44.129 -10.962   6.698  1.00  0.00     0.075 A 
HETATM   20  N   UNL     1      43.187 -10.259   7.371  1.00  0.00    -0.245 NA
HETATM   21  C   UNL     1      43.491  -9.878   8.628  1.00  0.00     0.086 A 
HETATM   22  C   UNL     1      44.745 -10.183   9.214  1.00  0.00     0.085 A 
HETATM   23  C   UNL     1      42.551  -9.176   9.375  1.00  0.00     0.034 A 
HETATM   24  N   UNL     1      45.683 -10.873   8.537  1.00  0.00    -0.256 NA
HETATM   25  C   UNL     1      45.003  -9.764  10.513  1.00  0.00     0.034 A 
HETATM   26  C   UNL     1      45.352 -11.259   7.282  1.00  0.00     0.148 A 
HETATM   27  C   UNL     1      44.052  -9.059  11.252  1.00  0.00     0.002 A 
HETATM   28  C   UNL     1      42.820  -8.766  10.681  1.00  0.00     0.002 A 
ENDBRANCH  18  19
ENDBRANCH   2  17
TORSDOF 5
ENDMDL
MODEL 5
REMARK VINA RESULT:      -7.8      2.505      3.832
REMARK  5 active torsions:
REMARK  status: ('A' for Active; 'I' for Inactive)
REMARK    1  A    between atoms: C_2  and  C_3 
REMARK    2  A    between atoms: C_5  and  N_6 
REMARK       I    between atoms: N_6  and  C_7 
REMARK    3  A    between atoms: C_7  and  C_8 
REMARK    4  A    between atoms: C_9  and  C_10 
REMARK    5  A    between atoms: C_21  and  O_22 
ROOT
HETATM    1  N   UNL     1      43.240 -10.703   8.166  1.00  0.00    -0.321 N 
HETATM    2  C   UNL     1      44.527 -11.097   7.887  1.00  0.00     0.245 C 
HETATM    3  O   UNL     1      45.566 -10.616   8.319  1.00  0.00    -0.268 OA
HETATM    4  H   UNL     1      42.473 -11.278   7.834  1.00  0.00     0.169 HD
ENDROOT
BRANCH   1   5
HETATM    5  C   UNL     1      42.814  -9.605   8.948  1.00  0.00     0.069 A 
HETATM    6  C   UNL     1      42.721  -9.640  10.344  1.00  0.00     0.040 A 
HETATM    7  C   UNL     1      42.314  -8.515  11.090  1.00  0.00    -0.048 A 
HETATM    8  C   UNL     1      41.994  -7.350  10.377  1.00  0.00     0.011 A 
HETATM    9  C   UNL     1      42.082  -7.301   8.979  1.00  0.00     0.039 A 
HETATM   10  C   UNL     1      42.496  -8.420   8.259  1.00  0.00     0.095 A 
BRANCH   7  11
HETATM   11  C   UNL     1      42.255  -8.592  12.628  1.00  0.00    -0.024 C 
HETATM   12  C   UNL     1      40.882  -8.077  13.114  1.00  0.00     0.019 C 
HETATM   13  C   UNL     1      43.371  -7.723  13.243  1.00  0.00     0.019 C 
HETATM   14  C   UNL     1      42.431 -10.022  13.187  1.00  0.00     0.019 C 
ENDBRANCH   7  11
BRANCH  10  15
HETATM   15  O   UNL     1      42.625  -8.476   6.890  1.00  0.00    -0.354 OA
HETATM   16  C   UNL     1      41.435  -8.326   6.124  1.00  0.00     0.210 C 
ENDBRANCH  10  15
ENDBRANCH   1   5
BRANCH   2  17
HETATM   17  C   UNL     1      44.552 -12.265   6.968  1.00  0.00     0.077 C 
HETATM   18  C   UNL     1      43.482 -13.072   6.884  1.00  0.00     0.038 C 
BRANCH  18  19
HETATM   19  C   UNL     1      43.440 -14.264   6.033  1.00  0.00     0.075 A 
HETATM   20  N   UNL     1      43.151 -14.092   4.721  1.00  0.00    -0.245 NA
HETATM   21  C   UNL     1      43.149 -15.196   3.946  1.00  0.00     0.086 A 
HETATM   22  C   UNL     1      43.418 -16.480   4.482  1.00  0.00     0.085 A 
HETATM   23  C   UNL     1      42.884 -15.075   2.587  1.00  0.00     0.034 A 
HETATM   24  N   UNL     1      43.694 -16.648   5.789  1.00  0.00    -0.256 NA
HETATM   25  C   UNL     1      43.400 -17.581   3.636  1.00  0.00     0.034 A 
HETATM   26  C   UNL     1      43.707 -15.525   6.547  1.00  0.00     0.148 A 
HETATM   27  C   UNL     1      43.132 -17.447   2.272  1.00  0.00     0.002 A 
HETATM   28  C   UNL     1      42.875 -16.188   1.746  1.00  0.00     0.002 A 
ENDBRANCH  18  19
ENDBRANCH   2  17
TORSDOF 5
ENDMDL
MODEL 6
REMARK VINA RESULT:      -7.8     16.545     18.392
REMARK  5 active torsions:
REMARK  status: ('A' for Active; 'I' for Inactive)
REMARK    1  A    between atoms: C_2  and  C_3 
REMARK    2  A    between atoms: C_5  and  N_6 
REMARK       I    between atoms: N_6  and  C_7 
REMARK    3  A    between atoms: C_7  and  C_8 
REMARK    4  A    between atoms: C_9  and  C_10 
REMARK    5  A    between atoms: C_21  and  O_22 
ROOT
HETATM    1  N   UNL     1      44.279 -29.416   1.557  1.00  0.00    -0.321 N 
HETATM    2  C   UNL     1      42.918 -29.310   1.721  1.00  0.00     0.245 C 
HETATM    3  O   UNL     1      42.097 -28.901   0.912  1.00  0.00    -0.268 OA
HETATM    4  H   UNL     1      44.819 -29.894   2.270  1.00  0.00     0.169 HD
ENDROOT
BRANCH   1   5
HETATM    5  C   UNL     1      45.059 -29.002   0.453  1.00  0.00     0.069 A 
HETATM    6  C   UNL     1      44.680 -29.201  -0.879  1.00  0.00     0.040 A 
HETATM    7  C   UNL     1      45.476 -28.752  -1.954  1.00  0.00    -0.048 A 
HETATM    8  C   UNL     1      46.676 -28.100  -1.637  1.00  0.00     0.011 A 
HETATM    9  C   UNL     1      47.068 -27.893  -0.308  1.00  0.00     0.039 A 
HETATM   10  C   UNL     1      46.264 -28.336   0.741  1.00  0.00     0.095 A 
BRANCH   7  11
HETATM   11  C   UNL     1      45.003 -28.968  -3.404  1.00  0.00    -0.024 C 
HETATM   12  C   UNL     1      45.870 -30.060  -4.068  1.00  0.00     0.019 C 
HETATM   13  C   UNL     1      45.136 -27.656  -4.204  1.00  0.00     0.019 C 
HETATM   14  C   UNL     1      43.530 -29.423  -3.517  1.00  0.00     0.019 C 
ENDBRANCH   7  11
BRANCH  10  15
HETATM   15  O   UNL     1      46.551 -28.177   2.078  1.00  0.00    -0.354 OA
HETATM   16  C   UNL     1      47.883 -28.460   2.489  1.00  0.00     0.210 C 
ENDBRANCH  10  15
ENDBRANCH   1   5
BRANCH   2  17
HETATM   17  C   UNL     1      42.492 -29.802   3.058  1.00  0.00     0.077 C 
HETATM   18  C   UNL     1      41.596 -30.797   3.149  1.00  0.00     0.038 C 
BRANCH  18  19
HETATM   19  C   UNL     1      41.094 -31.313   4.426  1.00  0.00     0.075 A 
HETATM   20  N   UNL     1      41.952 -31.343   5.474  1.00  0.00    -0.245 NA
HETATM   21  C   UNL     1      41.465 -31.789   6.649  1.00  0.00     0.086 A 
HETATM   22  C   UNL     1      40.123 -32.226   6.779  1.00  0.00     0.085 A 
HETATM   23  C   UNL     1      42.294 -31.817   7.765  1.00  0.00     0.034 A 
HETATM   24  N   UNL     1      39.277 -32.206   5.732  1.00  0.00    -0.256 NA
HETATM   25  C   UNL     1      39.677 -32.677   8.015  1.00  0.00     0.034 A 
HETATM   26  C   UNL     1      39.781 -31.738   4.565  1.00  0.00     0.148 A 
HETATM   27  C   UNL     1      40.519 -32.701   9.128  1.00  0.00     0.002 A 
HETATM   28  C   UNL     1      41.833 -32.267   9.003  1.00  0.00     0.002 A 
ENDBRANCH  18  19
ENDBRANCH   2  17
TORSDOF 5
ENDMDL
MODEL 7
REMARK VINA RESULT:      -7.8     16.644     18.644
REMARK  5 active torsions:
REMARK  status: ('A' for Active; 'I' for Inactive)
REMARK    1  A    between atoms: C_2  and  C_3 
REMARK    2  A    between atoms: C_5  and  N_6 
REMARK       I    between atoms: N_6  and  C_7 
REMARK    3  A    between atoms: C_7  and  C_8 
REMARK    4  A    between atoms: C_9  and  C_10 
REMARK    5  A    between atoms: C_21  and  O_22 
ROOT
HETATM    1  N   UNL     1      44.186 -29.554   1.572  1.00  0.00    -0.321 N 
HETATM    2  C   UNL     1      42.837 -29.369   1.756  1.00  0.00     0.245 C 
HETATM    3  O   UNL     1      42.043 -28.843   0.988  1.00  0.00    -0.268 OA
HETATM    4  H   UNL     1      44.695 -30.122   2.242  1.00  0.00     0.169 HD
ENDROOT
BRANCH   1   5
HETATM    5  C   UNL     1      44.989 -29.110   0.497  1.00  0.00     0.069 A 
HETATM    6  C   UNL     1      44.654 -29.302  -0.848  1.00  0.00     0.040 A 
HETATM    7  C   UNL     1      45.471 -28.822  -1.893  1.00  0.00    -0.048 A 
HETATM    8  C   UNL     1      46.647 -28.148  -1.534  1.00  0.00     0.011 A 
HETATM    9  C   UNL     1      46.996 -27.949  -0.192  1.00  0.00     0.039 A 
HETATM   10  C   UNL     1      46.171 -28.422   0.828  1.00  0.00     0.095 A 
BRANCH   7  11
HETATM   11  C   UNL     1      45.046 -29.031  -3.359  1.00  0.00    -0.024 C 
HETATM   12  C   UNL     1      45.933 -30.120  -4.000  1.00  0.00     0.019 C 
HETATM   13  C   UNL     1      45.206 -27.715  -4.148  1.00  0.00     0.019 C 
HETATM   14  C   UNL     1      43.577 -29.483  -3.523  1.00  0.00     0.019 C 
ENDBRANCH   7  11
BRANCH  10  15
HETATM   15  O   UNL     1      46.415 -28.274   2.175  1.00  0.00    -0.354 OA
HETATM   16  C   UNL     1      47.575 -28.912   2.693  1.00  0.00     0.210 C 
ENDBRANCH  10  15
ENDBRANCH   1   5
BRANCH   2  17
HETATM   17  C   UNL     1      42.382 -29.932   3.054  1.00  0.00     0.077 C 
HETATM   18  C   UNL     1      41.351 -30.791   3.086  1.00  0.00     0.038 C 
BRANCH  18  19
HETATM   19  C   UNL     1      40.816 -31.361   4.326  1.00  0.00     0.075 A 
HETATM   20  N   UNL     1      39.677 -32.087   4.245  1.00  0.00    -0.245 NA
HETATM   21  C   UNL     1      39.217 -32.631   5.390  1.00  0.00     0.086 A 
HETATM   22  C   UNL     1      39.885 -32.437   6.625  1.00  0.00     0.085 A 
HETATM   23  C   UNL     1      38.065 -33.409   5.362  1.00  0.00     0.034 A 
HETATM   24  N   UNL     1      41.012 -31.704   6.703  1.00  0.00    -0.256 NA
HETATM   25  C   UNL     1      39.364 -33.021   7.773  1.00  0.00     0.034 A 
HETATM   26  C   UNL     1      41.465 -31.180   5.539  1.00  0.00     0.148 A 
HETATM   27  C   UNL     1      38.205 -33.799   7.732  1.00  0.00     0.002 A 
HETATM   28  C   UNL     1      37.555 -33.995   6.521  1.00  0.00     0.002 A 
ENDBRANCH  18  19
ENDBRANCH   2  17
TORSDOF 5
ENDMDL
MODEL 8
REMARK VINA RESULT:      -7.6      5.207      7.224
REMARK  5 active torsions:
REMARK  status: ('A' for Active; 'I' for Inactive)
REMARK    1  A    between atoms: C_2  and  C_3 
REMARK    2  A    between atoms: C_5  and  N_6 
REMARK       I    between atoms: N_6  and  C_7 
REMARK    3  A    between atoms: C_7  and  C_8 
REMARK    4  A    between atoms: C_9  and  C_10 
REMARK    5  A    between atoms: C_21  and  O_22 
ROOT
HETATM    1  N   UNL     1      41.331 -12.717  -0.523  1.00  0.00    -0.321 N 
HETATM    2  C   UNL     1      41.305 -12.800   0.848  1.00  0.00     0.245 C 
HETATM    3  O   UNL     1      40.755 -12.038   1.633  1.00  0.00    -0.268 OA
HETATM    4  H   UNL     1      41.719 -13.492  -1.050  1.00  0.00     0.169 HD
ENDROOT
BRANCH   1   5
HETATM    5  C   UNL     1      40.803 -11.695  -1.346  1.00  0.00     0.069 A 
HETATM    6  C   UNL     1      41.403 -10.440  -1.500  1.00  0.00     0.040 A 
HETATM    7  C   UNL     1      40.858  -9.455  -2.350  1.00  0.00    -0.048 A 
HETATM    8  C   UNL     1      39.677  -9.778  -3.035  1.00  0.00     0.011 A 
HETATM    9  C   UNL     1      39.065 -11.030  -2.890  1.00  0.00     0.039 A 
HETATM   10  C   UNL     1      39.624 -11.995  -2.053  1.00  0.00     0.095 A 
BRANCH   7  11
HETATM   11  C   UNL     1      41.570  -8.099  -2.511  1.00  0.00    -0.024 C 
HETATM   12  C   UNL     1      40.648  -6.972  -1.996  1.00  0.00     0.019 C 
HETATM   13  C   UNL     1      41.898  -7.848  -3.998  1.00  0.00     0.019 C 
HETATM   14  C   UNL     1      42.899  -7.996  -1.728  1.00  0.00     0.019 C 
ENDBRANCH   7  11
BRANCH  10  15
HETATM   15  O   UNL     1      39.111 -13.255  -1.846  1.00  0.00    -0.354 OA
HETATM   16  C   UNL     1      37.849 -13.541  -2.438  1.00  0.00     0.210 C 
ENDBRANCH  10  15
ENDBRANCH   1   5
BRANCH   2  17
HETATM   17  C   UNL     1      42.031 -14.002   1.335  1.00  0.00     0.077 C 
HETATM   18  C   UNL     1      41.591 -14.654   2.422  1.00  0.00     0.038 C 
BRANCH  18  19
HETATM   19  C   UNL     1      42.270 -15.823   2.988  1.00  0.00     0.075 A 
HETATM   20  N   UNL     1      42.240 -16.975   2.278  1.00  0.00    -0.245 NA
HETATM   21  C   UNL     1      42.898 -18.031   2.798  1.00  0.00     0.086 A 
HETATM   22  C   UNL     1      43.575 -17.946   4.040  1.00  0.00     0.085 A 
HETATM   23  C   UNL     1      42.921 -19.232   2.099  1.00  0.00     0.034 A 
HETATM   24  N   UNL     1      43.593 -16.801   4.749  1.00  0.00    -0.256 NA
HETATM   25  C   UNL     1      44.234 -19.067   4.527  1.00  0.00     0.034 A 
HETATM   26  C   UNL     1      42.940 -15.748   4.201  1.00  0.00     0.148 A 
HETATM   27  C   UNL     1      44.250 -20.268   3.816  1.00  0.00     0.002 A 
HETATM   28  C   UNL     1      43.592 -20.350   2.596  1.00  0.00     0.002 A 
ENDBRANCH  18  19
ENDBRANCH   2  17
TORSDOF 5
ENDMDL
MODEL 9
REMARK VINA RESULT:      -7.5      3.168      9.853
REMARK  5 active torsions:
REMARK  status: ('A' for Active; 'I' for Inactive)
REMARK    1  A    between atoms: C_2  and  C_3 
REMARK    2  A    between atoms: C_5  and  N_6 
REMARK       I    between atoms: N_6  and  C_7 
REMARK    3  A    between atoms: C_7  and  C_8 
REMARK    4  A    between atoms: C_9  and  C_10 
REMARK    5  A    between atoms: C_21  and  O_22 
ROOT
HETATM    1  N   UNL     1      43.284 -11.603   6.969  1.00  0.00    -0.321 N 
HETATM    2  C   UNL     1      44.422 -11.195   7.621  1.00  0.00     0.245 C 
HETATM    3  O   UNL     1      45.581 -11.481   7.352  1.00  0.00    -0.268 OA
HETATM    4  H   UNL     1      42.397 -11.182   7.228  1.00  0.00     0.169 HD
ENDROOT
BRANCH   1   5
HETATM    5  C   UNL     1      43.174 -12.511   5.891  1.00  0.00     0.069 A 
HETATM    6  C   UNL     1      43.229 -13.901   6.041  1.00  0.00     0.040 A 
HETATM    7  C   UNL     1      43.091 -14.773   4.942  1.00  0.00    -0.048 A 
HETATM    8  C   UNL     1      42.904 -14.194   3.679  1.00  0.00     0.011 A 
HETATM    9  C   UNL     1      42.847 -12.804   3.513  1.00  0.00     0.039 A 
HETATM   10  C   UNL     1      42.975 -11.956   4.612  1.00  0.00     0.095 A 
BRANCH   7  11
HETATM   11  C   UNL     1      43.128 -16.298   5.161  1.00  0.00    -0.024 C 
HETATM   12  C   UNL     1      44.448 -16.681   5.865  1.00  0.00     0.019 C 
HETATM   13  C   UNL     1      43.044 -17.029   3.805  1.00  0.00     0.019 C 
HETATM   14  C   UNL     1      41.971 -16.830   6.037  1.00  0.00     0.019 C 
ENDBRANCH   7  11
BRANCH  10  15
HETATM   15  O   UNL     1      42.926 -10.582   4.562  1.00  0.00    -0.354 OA
HETATM   16  C   UNL     1      41.738  -9.999   4.042  1.00  0.00     0.210 C 
ENDBRANCH  10  15
ENDBRANCH   1   5
BRANCH   2  17
HETATM   17  C   UNL     1      44.105 -10.282   8.751  1.00  0.00     0.077 C 
HETATM   18  C   UNL     1      43.060  -9.444   8.659  1.00  0.00     0.038 C 
BRANCH  18  19
HETATM   19  C   UNL     1      42.703  -8.487   9.710  1.00  0.00     0.075 A 
HETATM   20  N   UNL     1      43.161  -8.725  10.962  1.00  0.00    -0.245 NA
HETATM   21  C   UNL     1      42.852  -7.817  11.909  1.00  0.00     0.086 A 
HETATM   22  C   UNL     1      42.066  -6.674  11.614  1.00  0.00     0.085 A 
HETATM   23  C   UNL     1      43.318  -7.997  13.206  1.00  0.00     0.034 A 
HETATM   24  N   UNL     1      41.602  -6.447  10.370  1.00  0.00    -0.256 NA
HETATM   25  C   UNL     1      41.777  -5.773  12.631  1.00  0.00     0.034 A 
HETATM   26  C   UNL     1      41.938  -7.363   9.430  1.00  0.00     0.148 A 
HETATM   27  C   UNL     1      42.250  -5.966  13.930  1.00  0.00     0.002 A 
HETATM   28  C   UNL     1      43.025  -7.081  14.218  1.00  0.00     0.002 A 
ENDBRANCH  18  19
ENDBRANCH   2  17
TORSDOF 5
ENDMDL
MODEL 10
REMARK VINA RESULT:      -7.5      5.158      8.397
REMARK  5 active torsions:
REMARK  status: ('A' for Active; 'I' for Inactive)
REMARK    1  A    between atoms: C_2  and  C_3 
REMARK    2  A    between atoms: C_5  and  N_6 
REMARK       I    between atoms: N_6  and  C_7 
REMARK    3  A    between atoms: C_7  and  C_8 
REMARK    4  A    between atoms: C_9  and  C_10 
REMARK    5  A    between atoms: C_21  and  O_22 
ROOT
HETATM    1  N   UNL     1      40.995 -14.276   2.544  1.00  0.00    -0.321 N 
HETATM    2  C   UNL     1      40.376 -14.926   1.503  1.00  0.00     0.245 C 
HETATM    3  O   UNL     1      39.873 -16.042   1.512  1.00  0.00    -0.268 OA
HETATM    4  H   UNL     1      41.251 -13.301   2.425  1.00  0.00     0.169 HD
ENDROOT
BRANCH   1   5
HETATM    5  C   UNL     1      41.270 -14.769   3.840  1.00  0.00     0.069 A 
HETATM    6  C   UNL     1      42.251 -15.730   4.110  1.00  0.00     0.040 A 
HETATM    7  C   UNL     1      42.512 -16.178   5.422  1.00  0.00    -0.048 A 
HETATM    8  C   UNL     1      41.740 -15.628   6.455  1.00  0.00     0.011 A 
HETATM    9  C   UNL     1      40.754 -14.666   6.201  1.00  0.00     0.039 A 
HETATM   10  C   UNL     1      40.517 -14.227   4.898  1.00  0.00     0.095 A 
BRANCH   7  11
HETATM   11  C   UNL     1      43.622 -17.216   5.673  1.00  0.00    -0.024 C 
HETATM   12  C   UNL     1      44.865 -16.505   6.253  1.00  0.00     0.019 C 
HETATM   13  C   UNL     1      44.005 -17.911   4.350  1.00  0.00     0.019 C 
HETATM   14  C   UNL     1      43.223 -18.326   6.671  1.00  0.00     0.019 C 
ENDBRANCH   7  11
BRANCH  10  15
HETATM   15  O   UNL     1      39.582 -13.283   4.540  1.00  0.00    -0.354 OA
HETATM   16  C   UNL     1      39.560 -12.079   5.297  1.00  0.00     0.210 C 
ENDBRANCH  10  15
ENDBRANCH   1   5
BRANCH   2  17
HETATM   17  C   UNL     1      40.340 -14.083   0.280  1.00  0.00     0.077 C 
HETATM   18  C   UNL     1      40.886 -12.857   0.296  1.00  0.00     0.038 C 
BRANCH  18  19
HETATM   19  C   UNL     1      40.858 -11.949  -0.854  1.00  0.00     0.075 A 
HETATM   20  N   UNL     1      41.456 -10.741  -0.718  1.00  0.00    -0.245 NA
HETATM   21  C   UNL     1      41.449  -9.932  -1.796  1.00  0.00     0.086 A 
HETATM   22  C   UNL     1      40.830 -10.318  -3.011  1.00  0.00     0.085 A 
HETATM   23  C   UNL     1      42.071  -8.690  -1.722  1.00  0.00     0.034 A 
HETATM   24  N   UNL     1      40.227 -11.515  -3.139  1.00  0.00    -0.256 NA
HETATM   25  C   UNL     1      40.853  -9.441  -4.089  1.00  0.00     0.034 A 
HETATM   26  C   UNL     1      40.259 -12.319  -2.050  1.00  0.00     0.148 A 
HETATM   27  C   UNL     1      41.480  -8.197  -4.001  1.00  0.00     0.002 A 
HETATM   28  C   UNL     1      42.093  -7.821  -2.813  1.00  0.00     0.002 A 
ENDBRANCH  18  19
ENDBRANCH   2  17
TORSDOF 5
ENDMDL
