MODEL 1
REMARK VINA RESULT:      -7.8      0.000      0.000
REMARK  6 active torsions:
REMARK  status: ('A' for Active; 'I' for Inactive)
REMARK    1  A    between atoms: C_2  and  O_3 
REMARK    2  A    between atoms: O_3  and  C_4 
REMARK    3  A    between atoms: C_11  and  C_12 
REMARK    4  A    between atoms: C_12  and  N_13 
REMARK    5  A    between atoms: N_13  and  C_14 
REMARK    6  A    between atoms: C_17  and  O_18 
ROOT
HETATM    1  C   UNL     1      43.928 -18.614   3.389  1.00  0.00     0.069 A 
HETATM    2  C   UNL     1      44.151 -17.856   4.542  1.00  0.00     0.050 A 
HETATM    3  C   UNL     1      43.620 -16.565   4.645  1.00  0.00    -0.006 A 
HETATM    4  C   UNL     1      42.863 -16.039   3.592  1.00  0.00     0.045 A 
HETATM    5  N   UNL     1      42.334 -14.748   3.708  1.00  0.00    -0.322 N 
HETATM    6  C   UNL     1      42.506 -13.952   4.810  1.00  0.00     0.253 A 
HETATM    7  O   UNL     1      42.006 -12.832   4.867  1.00  0.00    -0.268 OA
HETATM    8  C   UNL     1      43.321 -14.505   5.929  1.00  0.00     0.024 A 
HETATM    9  C   UNL     1      43.844 -15.742   5.832  1.00  0.00     0.027 A 
HETATM   10  C   UNL     1      42.635 -16.786   2.441  1.00  0.00     0.033 A 
HETATM   11  C   UNL     1      43.172 -18.072   2.345  1.00  0.00     0.039 A 
HETATM   12  H   UNL     1      41.777 -14.356   2.961  1.00  0.00     0.169 HD
ENDROOT
BRANCH   8  13
HETATM   13  C   UNL     1      43.560 -13.607   7.107  1.00  0.00     0.136 C 
BRANCH  13  14
HETATM   14  N   UNL     1      44.589 -12.636   6.748  1.00  0.00    -0.289 NA
HETATM   15  H   UNL     1      45.517 -13.049   6.855  1.00  0.00     0.128 HD
BRANCH  14  16
HETATM   16  C   UNL     1      44.557 -11.359   7.324  1.00  0.00     0.008 A 
HETATM   17  C   UNL     1      45.769 -10.680   7.511  1.00  0.00     0.026 A 
HETATM   18  C   UNL     1      45.801  -9.371   8.004  1.00  0.00     0.038 A 
HETATM   19  C   UNL     1      44.619  -8.690   8.288  1.00  0.00     0.068 A 
HETATM   20  C   UNL     1      43.405  -9.335   8.071  1.00  0.00     0.038 A 
HETATM   21  C   UNL     1      43.379 -10.651   7.581  1.00  0.00     0.026 A 
BRANCH  19  22
HETATM   22  O   UNL     1      44.784  -7.416   8.755  1.00  0.00    -0.356 OA
HETATM   23  C   UNL     1      43.612  -6.735   9.184  1.00  0.00     0.210 C 
ENDBRANCH  19  22
ENDBRANCH  14  16
ENDBRANCH  13  14
ENDBRANCH   8  13
BRANCH   1  24
HETATM   24  O   UNL     1      44.390 -19.881   3.160  1.00  0.00    -0.351 OA
BRANCH  24  25
HETATM   25  C   UNL     1      43.675 -20.957   3.764  1.00  0.00     0.171 C 
HETATM   26  C   UNL     1      44.010 -20.972   5.244  1.00  0.00     0.034 C 
ENDBRANCH  24  25
ENDBRANCH   1  24
TORSDOF 6
ENDMDL
MODEL 2
REMARK VINA RESULT:      -7.7      4.419      7.370
REMARK  6 active torsions:
REMARK  status: ('A' for Active; 'I' for Inactive)
REMARK    1  A    between atoms: C_2  and  O_3 
REMARK    2  A    between atoms: O_3  and  C_4 
REMARK    3  A    between atoms: C_11  and  C_12 
REMARK    4  A    between atoms: C_12  and  N_13 
REMARK    5  A    between atoms: N_13  and  C_14 
REMARK    6  A    between atoms: C_17  and  O_18 
ROOT
HETATM    1  C   UNL     1      43.709 -18.171   4.267  1.00  0.00     0.069 A 
HETATM    2  C   UNL     1      43.041 -17.281   3.422  1.00  0.00     0.050 A 
HETATM    3  C   UNL     1      42.239 -16.270   3.964  1.00  0.00    -0.006 A 
HETATM    4  C   UNL     1      42.111 -16.153   5.352  1.00  0.00     0.045 A 
HETATM    5  N   UNL     1      41.308 -15.136   5.882  1.00  0.00    -0.322 N 
HETATM    6  C   UNL     1      40.631 -14.224   5.116  1.00  0.00     0.253 A 
HETATM    7  O   UNL     1      39.953 -13.340   5.632  1.00  0.00    -0.268 OA
HETATM    8  C   UNL     1      40.756 -14.352   3.635  1.00  0.00     0.024 A 
HETATM    9  C   UNL     1      41.518 -15.329   3.108  1.00  0.00     0.027 A 
HETATM   10  C   UNL     1      42.772 -17.035   6.201  1.00  0.00     0.033 A 
HETATM   11  C   UNL     1      43.568 -18.043   5.652  1.00  0.00     0.039 A 
HETATM   12  H   UNL     1      41.213 -15.031   6.883  1.00  0.00     0.169 HD
ENDROOT
BRANCH   8  13
HETATM   13  C   UNL     1      39.964 -13.392   2.798  1.00  0.00     0.136 C 
BRANCH  13  14
HETATM   14  N   UNL     1      40.849 -12.814   1.793  1.00  0.00    -0.289 NA
HETATM   15  H   UNL     1      40.951 -11.810   1.948  1.00  0.00     0.128 HD
BRANCH  14  16
HETATM   16  C   UNL     1      40.608 -13.073   0.436  1.00  0.00     0.008 A 
HETATM   17  C   UNL     1      39.867 -14.212   0.096  1.00  0.00     0.026 A 
HETATM   18  C   UNL     1      39.520 -14.485  -1.232  1.00  0.00     0.038 A 
HETATM   19  C   UNL     1      39.873 -13.605  -2.253  1.00  0.00     0.068 A 
HETATM   20  C   UNL     1      40.575 -12.448  -1.928  1.00  0.00     0.038 A 
HETATM   21  C   UNL     1      40.924 -12.183  -0.594  1.00  0.00     0.026 A 
BRANCH  19  22
HETATM   22  O   UNL     1      39.469 -13.980  -3.503  1.00  0.00    -0.356 OA
HETATM   23  C   UNL     1      38.198 -14.609  -3.603  1.00  0.00     0.210 C 
ENDBRANCH  19  22
ENDBRANCH  14  16
ENDBRANCH  13  14
ENDBRANCH   8  13
BRANCH   1  24
HETATM   24  O   UNL     1      44.518 -19.201   3.870  1.00  0.00    -0.351 OA
BRANCH  24  25
HETATM   25  C   UNL     1      43.883 -20.419   3.486  1.00  0.00     0.171 C 
HETATM   26  C   UNL     1      43.758 -20.428   1.974  1.00  0.00     0.034 C 
ENDBRANCH  24  25
ENDBRANCH   1  24
TORSDOF 6
ENDMDL
MODEL 3
REMARK VINA RESULT:      -7.5      1.801      2.311
REMARK  6 active torsions:
REMARK  status: ('A' for Active; 'I' for Inactive)
REMARK    1  A    between atoms: C_2  and  O_3 
REMARK    2  A    between atoms: O_3  and  C_4 
REMARK    3  A    between atoms: C_11  and  C_12 
REMARK    4  A    between atoms: C_12  and  N_13 
REMARK    5  A    between atoms: N_13  and  C_14 
REMARK    6  A    between atoms: C_17  and  O_18 
ROOT
HETATM    1  C   UNL     1      43.933 -17.925   4.032  1.00  0.00     0.069 A 
HETATM    2  C   UNL     1      43.662 -16.726   4.697  1.00  0.00     0.050 A 
HETATM    3  C   UNL     1      42.778 -15.798   4.135  1.00  0.00    -0.006 A 
HETATM    4  C   UNL     1      42.164 -16.076   2.909  1.00  0.00     0.045 A 
HETATM    5  N   UNL     1      41.279 -15.143   2.358  1.00  0.00    -0.322 N 
HETATM    6  C   UNL     1      40.961 -13.952   2.957  1.00  0.00     0.253 A 
HETATM    7  O   UNL     1      40.165 -13.174   2.439  1.00  0.00    -0.268 OA
HETATM    8  C   UNL     1      41.621 -13.647   4.259  1.00  0.00     0.024 A 
HETATM    9  C   UNL     1      42.481 -14.530   4.799  1.00  0.00     0.027 A 
HETATM   10  C   UNL     1      42.428 -17.268   2.239  1.00  0.00     0.033 A 
HETATM   11  C   UNL     1      43.315 -18.187   2.805  1.00  0.00     0.039 A 
HETATM   12  H   UNL     1      40.820 -15.332   1.478  1.00  0.00     0.169 HD
ENDROOT
BRANCH   8  13
HETATM   13  C   UNL     1      41.319 -12.315   4.881  1.00  0.00     0.136 C 
BRANCH  13  14
HETATM   14  N   UNL     1      42.466 -11.437   4.674  1.00  0.00    -0.289 NA
HETATM   15  H   UNL     1      42.978 -11.715   3.835  1.00  0.00     0.128 HD
BRANCH  14  16
HETATM   16  C   UNL     1      43.357 -11.212   5.733  1.00  0.00     0.008 A 
HETATM   17  C   UNL     1      42.852 -10.686   6.930  1.00  0.00     0.026 A 
HETATM   18  C   UNL     1      43.670 -10.515   8.052  1.00  0.00     0.038 A 
HETATM   19  C   UNL     1      45.009 -10.900   8.020  1.00  0.00     0.068 A 
HETATM   20  C   UNL     1      45.517 -11.461   6.852  1.00  0.00     0.038 A 
HETATM   21  C   UNL     1      44.693 -11.626   5.728  1.00  0.00     0.026 A 
BRANCH  19  22
HETATM   22  O   UNL     1      45.698 -10.689   9.181  1.00  0.00    -0.356 OA
HETATM   23  C   UNL     1      45.048  -9.913  10.179  1.00  0.00     0.210 C 
ENDBRANCH  19  22
ENDBRANCH  14  16
ENDBRANCH  13  14
ENDBRANCH   8  13
BRANCH   1  24
HETATM   24  O   UNL     1      44.776 -18.912   4.466  1.00  0.00    -0.351 OA
BRANCH  24  25
HETATM   25  C   UNL     1      44.199 -20.185   4.751  1.00  0.00     0.171 C 
HETATM   26  C   UNL     1      43.522 -20.102   6.106  1.00  0.00     0.034 C 
ENDBRANCH  24  25
ENDBRANCH   1  24
TORSDOF 6
ENDMDL
MODEL 4
REMARK VINA RESULT:      -7.3      1.722      8.574
REMARK  6 active torsions:
REMARK  status: ('A' for Active; 'I' for Inactive)
REMARK    1  A    between atoms: C_2  and  O_3 
REMARK    2  A    between atoms: O_3  and  C_4 
REMARK    3  A    between atoms: C_11  and  C_12 
REMARK    4  A    between atoms: C_12  and  N_13 
REMARK    5  A    between atoms: N_13  and  C_14 
REMARK    6  A    between atoms: C_17  and  O_18 
ROOT
HETATM    1  C   UNL     1      44.597 -11.114   7.374  1.00  0.00     0.069 A 
HETATM    2  C   UNL     1      44.365 -12.287   6.653  1.00  0.00     0.050 A 
HETATM    3  C   UNL     1      43.174 -12.444   5.934  1.00  0.00    -0.006 A 
HETATM    4  C   UNL     1      42.220 -11.421   5.938  1.00  0.00     0.045 A 
HETATM    5  N   UNL     1      41.034 -11.586   5.214  1.00  0.00    -0.322 N 
HETATM    6  C   UNL     1      40.743 -12.706   4.479  1.00  0.00     0.253 A 
HETATM    7  O   UNL     1      39.694 -12.795   3.847  1.00  0.00    -0.268 OA
HETATM    8  C   UNL     1      41.753 -13.804   4.481  1.00  0.00     0.024 A 
HETATM    9  C   UNL     1      42.895 -13.664   5.179  1.00  0.00     0.027 A 
HETATM   10  C   UNL     1      42.443 -10.248   6.654  1.00  0.00     0.033 A 
HETATM   11  C   UNL     1      43.632 -10.101   7.371  1.00  0.00     0.039 A 
HETATM   12  H   UNL     1      40.339 -10.853   5.198  1.00  0.00     0.169 HD
ENDROOT
BRANCH   8  13
HETATM   13  C   UNL     1      41.402 -15.052   3.727  1.00  0.00     0.136 C 
BRANCH  13  14
HETATM   14  N   UNL     1      42.574 -15.480   2.969  1.00  0.00    -0.289 NA
HETATM   15  H   UNL     1      42.438 -15.293   1.974  1.00  0.00     0.128 HD
BRANCH  14  16
HETATM   16  C   UNL     1      43.076 -16.776   3.155  1.00  0.00     0.008 A 
HETATM   17  C   UNL     1      43.517 -17.143   4.433  1.00  0.00     0.026 A 
HETATM   18  C   UNL     1      43.951 -18.445   4.706  1.00  0.00     0.038 A 
HETATM   19  C   UNL     1      43.921 -19.426   3.717  1.00  0.00     0.068 A 
HETATM   20  C   UNL     1      43.448 -19.088   2.452  1.00  0.00     0.038 A 
HETATM   21  C   UNL     1      43.018 -17.779   2.183  1.00  0.00     0.026 A 
BRANCH  19  22
HETATM   22  O   UNL     1      44.363 -20.658   4.111  1.00  0.00    -0.356 OA
HETATM   23  C   UNL     1      44.086 -21.038   5.452  1.00  0.00     0.210 C 
ENDBRANCH  19  22
ENDBRANCH  14  16
ENDBRANCH  13  14
ENDBRANCH   8  13
BRANCH   1  24
HETATM   24  O   UNL     1      45.712 -10.835   8.118  1.00  0.00    -0.351 OA
BRANCH  24  25
HETATM   25  C   UNL     1      45.758  -9.570   8.776  1.00  0.00     0.171 C 
HETATM   26  C   UNL     1      45.452  -9.793  10.245  1.00  0.00     0.034 C 
ENDBRANCH  24  25
ENDBRANCH   1  24
TORSDOF 6
ENDMDL
MODEL 5
REMARK VINA RESULT:      -7.3     16.331     19.529
REMARK  6 active torsions:
REMARK  status: ('A' for Active; 'I' for Inactive)
REMARK    1  A    between atoms: C_2  and  O_3 
REMARK    2  A    between atoms: O_3  and  C_4 
REMARK    3  A    between atoms: C_11  and  C_12 
REMARK    4  A    between atoms: C_12  and  N_13 
REMARK    5  A    between atoms: N_13  and  C_14 
REMARK    6  A    between atoms: C_17  and  O_18 
ROOT
HETATM    1  C   UNL     1      51.372 -31.444  -1.363  1.00  0.00     0.069 A 
HETATM    2  C   UNL     1      50.360 -30.712  -1.989  1.00  0.00     0.050 A 
HETATM    3  C   UNL     1      49.449 -29.978  -1.220  1.00  0.00    -0.006 A 
HETATM    4  C   UNL     1      49.557 -29.979   0.175  1.00  0.00     0.045 A 
HETATM    5  N   UNL     1      48.643 -29.239   0.934  1.00  0.00    -0.322 N 
HETATM    6  C   UNL     1      47.632 -28.493   0.389  1.00  0.00     0.253 A 
HETATM    7  O   UNL     1      46.865 -27.848   1.099  1.00  0.00    -0.268 OA
HETATM    8  C   UNL     1      47.505 -28.498  -1.097  1.00  0.00     0.024 A 
HETATM    9  C   UNL     1      48.372 -29.210  -1.842  1.00  0.00     0.027 A 
HETATM   10  C   UNL     1      50.562 -30.706   0.807  1.00  0.00     0.033 A 
HETATM   11  C   UNL     1      51.465 -31.438   0.032  1.00  0.00     0.039 A 
HETATM   12  H   UNL     1      48.713 -29.221   1.942  1.00  0.00     0.169 HD
ENDROOT
BRANCH   8  13
HETATM   13  C   UNL     1      46.359 -27.731  -1.687  1.00  0.00     0.136 C 
BRANCH  13  14
HETATM   14  N   UNL     1      45.137 -28.506  -1.496  1.00  0.00    -0.289 NA
HETATM   15  H   UNL     1      45.154 -28.975  -0.589  1.00  0.00     0.128 HD
BRANCH  14  16
HETATM   16  C   UNL     1      44.727 -29.398  -2.497  1.00  0.00     0.008 A 
HETATM   17  C   UNL     1      44.648 -28.930  -3.815  1.00  0.00     0.026 A 
HETATM   18  C   UNL     1      44.326 -29.789  -4.873  1.00  0.00     0.038 A 
HETATM   19  C   UNL     1      44.112 -31.146  -4.646  1.00  0.00     0.068 A 
HETATM   20  C   UNL     1      44.227 -31.635  -3.348  1.00  0.00     0.038 A 
HETATM   21  C   UNL     1      44.545 -30.769  -2.290  1.00  0.00     0.026 A 
BRANCH  19  22
HETATM   22  O   UNL     1      43.814 -31.879  -5.761  1.00  0.00    -0.356 OA
HETATM   23  C   UNL     1      44.084 -31.270  -7.017  1.00  0.00     0.210 C 
ENDBRANCH  19  22
ENDBRANCH  14  16
ENDBRANCH  13  14
ENDBRANCH   8  13
BRANCH   1  24
HETATM   24  O   UNL     1      52.321 -32.203  -1.994  1.00  0.00    -0.351 OA
BRANCH  24  25
HETATM   25  C   UNL     1      53.076 -33.105  -1.187  1.00  0.00     0.171 C 
HETATM   26  C   UNL     1      54.548 -32.861  -1.462  1.00  0.00     0.034 C 
ENDBRANCH  24  25
ENDBRANCH   1  24
TORSDOF 6
ENDMDL
MODEL 6
REMARK VINA RESULT:      -7.3      5.162      7.695
REMARK  6 active torsions:
REMARK  status: ('A' for Active; 'I' for Inactive)
REMARK    1  A    between atoms: C_2  and  O_3 
REMARK    2  A    between atoms: O_3  and  C_4 
REMARK    3  A    between atoms: C_11  and  C_12 
REMARK    4  A    between atoms: C_12  and  N_13 
REMARK    5  A    between atoms: N_13  and  C_14 
REMARK    6  A    between atoms: C_17  and  O_18 
ROOT
HETATM    1  C   UNL     1      43.142 -17.513   4.997  1.00  0.00     0.069 A 
HETATM    2  C   UNL     1      42.863 -17.243   3.655  1.00  0.00     0.050 A 
HETATM    3  C   UNL     1      41.907 -16.278   3.319  1.00  0.00    -0.006 A 
HETATM    4  C   UNL     1      41.234 -15.584   4.330  1.00  0.00     0.045 A 
HETATM    5  N   UNL     1      40.282 -14.619   3.982  1.00  0.00    -0.322 N 
HETATM    6  C   UNL     1      39.963 -14.297   2.689  1.00  0.00     0.253 A 
HETATM    7  O   UNL     1      39.131 -13.431   2.437  1.00  0.00    -0.268 OA
HETATM    8  C   UNL     1      40.670 -15.043   1.607  1.00  0.00     0.024 A 
HETATM    9  C   UNL     1      41.583 -15.980   1.924  1.00  0.00     0.027 A 
HETATM   10  C   UNL     1      41.505 -15.846   5.670  1.00  0.00     0.033 A 
HETATM   11  C   UNL     1      42.458 -16.813   5.996  1.00  0.00     0.039 A 
HETATM   12  H   UNL     1      39.793 -14.102   4.700  1.00  0.00     0.169 HD
ENDROOT
BRANCH   8  13
HETATM   13  C   UNL     1      40.274 -14.733   0.195  1.00  0.00     0.136 C 
BRANCH  13  14
HETATM   14  N   UNL     1      41.007 -13.550  -0.244  1.00  0.00    -0.289 NA
HETATM   15  H   UNL     1      41.309 -13.002   0.563  1.00  0.00     0.128 HD
BRANCH  14  16
HETATM   16  C   UNL     1      40.438 -12.712  -1.213  1.00  0.00     0.008 A 
HETATM   17  C   UNL     1      39.042 -12.609  -1.271  1.00  0.00     0.026 A 
HETATM   18  C   UNL     1      38.414 -11.729  -2.159  1.00  0.00     0.038 A 
HETATM   19  C   UNL     1      39.166 -10.899  -2.988  1.00  0.00     0.068 A 
HETATM   20  C   UNL     1      40.555 -10.959  -2.915  1.00  0.00     0.038 A 
HETATM   21  C   UNL     1      41.180 -11.848  -2.026  1.00  0.00     0.026 A 
BRANCH  19  22
HETATM   22  O   UNL     1      38.435 -10.079  -3.802  1.00  0.00    -0.356 OA
HETATM   23  C   UNL     1      38.305  -8.723  -3.395  1.00  0.00     0.210 C 
ENDBRANCH  19  22
ENDBRANCH  14  16
ENDBRANCH  13  14
ENDBRANCH   8  13
BRANCH   1  24
HETATM   24  O   UNL     1      44.047 -18.429   5.461  1.00  0.00    -0.351 OA
BRANCH  24  25
HETATM   25  C   UNL     1      44.362 -19.526   4.605  1.00  0.00     0.171 C 
HETATM   26  C   UNL     1      43.985 -20.807   5.324  1.00  0.00     0.034 C 
ENDBRANCH  24  25
ENDBRANCH   1  24
TORSDOF 6
ENDMDL
MODEL 7
REMARK VINA RESULT:      -7.3      5.295      9.276
REMARK  6 active torsions:
REMARK  status: ('A' for Active; 'I' for Inactive)
REMARK    1  A    between atoms: C_2  and  O_3 
REMARK    2  A    between atoms: O_3  and  C_4 
REMARK    3  A    between atoms: C_11  and  C_12 
REMARK    4  A    between atoms: C_12  and  N_13 
REMARK    5  A    between atoms: N_13  and  C_14 
REMARK    6  A    between atoms: C_17  and  O_18 
ROOT
HETATM    1  C   UNL     1      39.936 -11.440  -2.460  1.00  0.00     0.069 A 
HETATM    2  C   UNL     1      40.592 -11.570  -1.234  1.00  0.00     0.050 A 
HETATM    3  C   UNL     1      40.459 -12.747  -0.489  1.00  0.00    -0.006 A 
HETATM    4  C   UNL     1      39.669 -13.793  -0.977  1.00  0.00     0.045 A 
HETATM    5  N   UNL     1      39.546 -14.967  -0.225  1.00  0.00    -0.322 N 
HETATM    6  C   UNL     1      40.166 -15.166   0.980  1.00  0.00     0.253 A 
HETATM    7  O   UNL     1      40.038 -16.223   1.593  1.00  0.00    -0.268 OA
HETATM    8  C   UNL     1      41.000 -14.049   1.510  1.00  0.00     0.024 A 
HETATM    9  C   UNL     1      41.124 -12.910   0.803  1.00  0.00     0.027 A 
HETATM   10  C   UNL     1      39.012 -13.673  -2.198  1.00  0.00     0.033 A 
HETATM   11  C   UNL     1      39.147 -12.494  -2.934  1.00  0.00     0.039 A 
HETATM   12  H   UNL     1      38.987 -15.736  -0.568  1.00  0.00     0.169 HD
ENDROOT
BRANCH   8  13
HETATM   13  C   UNL     1      41.626 -14.246   2.859  1.00  0.00     0.136 C 
BRANCH  13  14
HETATM   14  N   UNL     1      42.953 -14.824   2.674  1.00  0.00    -0.289 NA
HETATM   15  H   UNL     1      43.235 -14.756   1.695  1.00  0.00     0.128 HD
BRANCH  14  16
HETATM   16  C   UNL     1      43.215 -16.111   3.165  1.00  0.00     0.008 A 
HETATM   17  C   UNL     1      43.221 -17.182   2.262  1.00  0.00     0.026 A 
HETATM   18  C   UNL     1      43.556 -18.477   2.672  1.00  0.00     0.038 A 
HETATM   19  C   UNL     1      43.931 -18.730   3.989  1.00  0.00     0.068 A 
HETATM   20  C   UNL     1      43.968 -17.671   4.891  1.00  0.00     0.038 A 
HETATM   21  C   UNL     1      43.627 -16.374   4.475  1.00  0.00     0.026 A 
BRANCH  19  22
HETATM   22  O   UNL     1      44.242 -20.033   4.261  1.00  0.00    -0.356 OA
HETATM   23  C   UNL     1      43.889 -20.520   5.549  1.00  0.00     0.210 C 
ENDBRANCH  19  22
ENDBRANCH  14  16
ENDBRANCH  13  14
ENDBRANCH   8  13
BRANCH   1  24
HETATM   24  O   UNL     1      39.979 -10.347  -3.283  1.00  0.00    -0.351 OA
BRANCH  24  25
HETATM   25  C   UNL     1      38.786  -9.573  -3.402  1.00  0.00     0.171 C 
HETATM   26  C   UNL     1      38.725  -9.019  -4.813  1.00  0.00     0.034 C 
ENDBRANCH  24  25
ENDBRANCH   1  24
TORSDOF 6
ENDMDL
MODEL 8
REMARK VINA RESULT:      -7.1      2.771      3.890
REMARK  6 active torsions:
REMARK  status: ('A' for Active; 'I' for Inactive)
REMARK    1  A    between atoms: C_2  and  O_3 
REMARK    2  A    between atoms: O_3  and  C_4 
REMARK    3  A    between atoms: C_11  and  C_12 
REMARK    4  A    between atoms: C_12  and  N_13 
REMARK    5  A    between atoms: N_13  and  C_14 
REMARK    6  A    between atoms: C_17  and  O_18 
ROOT
HETATM    1  C   UNL     1      43.072 -17.503   4.093  1.00  0.00     0.069 A 
HETATM    2  C   UNL     1      42.061 -16.567   4.326  1.00  0.00     0.050 A 
HETATM    3  C   UNL     1      41.633 -15.727   3.291  1.00  0.00    -0.006 A 
HETATM    4  C   UNL     1      42.218 -15.831   2.024  1.00  0.00     0.045 A 
HETATM    5  N   UNL     1      41.780 -14.988   0.996  1.00  0.00    -0.322 N 
HETATM    6  C   UNL     1      40.790 -14.054   1.150  1.00  0.00     0.253 A 
HETATM    7  O   UNL     1      40.431 -13.349   0.210  1.00  0.00    -0.268 OA
HETATM    8  C   UNL     1      40.171 -13.932   2.501  1.00  0.00     0.024 A 
HETATM    9  C   UNL     1      40.586 -14.729   3.504  1.00  0.00     0.027 A 
HETATM   10  C   UNL     1      43.226 -16.761   1.784  1.00  0.00     0.033 A 
HETATM   11  C   UNL     1      43.649 -17.592   2.823  1.00  0.00     0.039 A 
HETATM   12  H   UNL     1      42.186 -15.056   0.073  1.00  0.00     0.169 HD
ENDROOT
BRANCH   8  13
HETATM   13  C   UNL     1      39.133 -12.865   2.682  1.00  0.00     0.136 C 
BRANCH  13  14
HETATM   14  N   UNL     1      39.809 -11.581   2.833  1.00  0.00    -0.289 NA
HETATM   15  H   UNL     1      40.172 -11.265   1.932  1.00  0.00     0.128 HD
BRANCH  14  16
HETATM   16  C   UNL     1      40.784 -11.432   3.829  1.00  0.00     0.008 A 
HETATM   17  C   UNL     1      42.110 -11.206   3.436  1.00  0.00     0.026 A 
HETATM   18  C   UNL     1      43.117 -10.967   4.378  1.00  0.00     0.038 A 
HETATM   19  C   UNL     1      42.818 -10.911   5.738  1.00  0.00     0.068 A 
HETATM   20  C   UNL     1      41.499 -11.094   6.143  1.00  0.00     0.038 A 
HETATM   21  C   UNL     1      40.494 -11.338   5.194  1.00  0.00     0.026 A 
BRANCH  19  22
HETATM   22  O   UNL     1      43.886 -10.662   6.554  1.00  0.00    -0.356 OA
HETATM   23  C   UNL     1      45.093 -11.354   6.257  1.00  0.00     0.210 C 
ENDBRANCH  19  22
ENDBRANCH  14  16
ENDBRANCH  13  14
ENDBRANCH   8  13
BRANCH   1  24
HETATM   24  O   UNL     1      43.583 -18.378   5.013  1.00  0.00    -0.351 OA
BRANCH  24  25
HETATM   25  C   UNL     1      44.352 -19.472   4.517  1.00  0.00     0.171 C 
HETATM   26  C   UNL     1      44.024 -20.695   5.352  1.00  0.00     0.034 C 
ENDBRANCH  24  25
ENDBRANCH   1  24
TORSDOF 6
ENDMDL
MODEL 9
REMARK VINA RESULT:      -7.1      3.691      4.178
REMARK  6 active torsions:
REMARK  status: ('A' for Active; 'I' for Inactive)
REMARK    1  A    between atoms: C_2  and  O_3 
REMARK    2  A    between atoms: O_3  and  C_4 
REMARK    3  A    between atoms: C_11  and  C_12 
REMARK    4  A    between atoms: C_12  and  N_13 
REMARK    5  A    between atoms: N_13  and  C_14 
REMARK    6  A    between atoms: C_17  and  O_18 
ROOT
HETATM    1  C   UNL     1      43.624 -17.550   4.175  1.00  0.00     0.069 A 
HETATM    2  C   UNL     1      43.486 -16.179   4.406  1.00  0.00     0.050 A 
HETATM    3  C   UNL     1      42.961 -15.350   3.408  1.00  0.00    -0.006 A 
HETATM    4  C   UNL     1      42.573 -15.899   2.181  1.00  0.00     0.045 A 
HETATM    5  N   UNL     1      42.046 -15.061   1.192  1.00  0.00    -0.322 N 
HETATM    6  C   UNL     1      41.875 -13.711   1.351  1.00  0.00     0.253 A 
HETATM    7  O   UNL     1      41.393 -13.022   0.456  1.00  0.00    -0.268 OA
HETATM    8  C   UNL     1      42.298 -13.120   2.654  1.00  0.00     0.024 A 
HETATM    9  C   UNL     1      42.814 -13.910   3.614  1.00  0.00     0.027 A 
HETATM   10  C   UNL     1      42.706 -17.264   1.942  1.00  0.00     0.033 A 
HETATM   11  C   UNL     1      43.234 -18.083   2.942  1.00  0.00     0.039 A 
HETATM   12  H   UNL     1      41.752 -15.442   0.303  1.00  0.00     0.169 HD
ENDROOT
BRANCH   8  13
HETATM   13  C   UNL     1      42.169 -11.633   2.801  1.00  0.00     0.136 C 
BRANCH  13  14
HETATM   14  N   UNL     1      40.751 -11.299   2.902  1.00  0.00    -0.289 NA
HETATM   15  H   UNL     1      40.525 -10.527   2.272  1.00  0.00     0.128 HD
BRANCH  14  16
HETATM   16  C   UNL     1      40.187 -11.076   4.166  1.00  0.00     0.008 A 
HETATM   17  C   UNL     1      39.577 -12.152   4.823  1.00  0.00     0.026 A 
HETATM   18  C   UNL     1      39.069 -12.018   6.120  1.00  0.00     0.038 A 
HETATM   19  C   UNL     1      39.191 -10.813   6.810  1.00  0.00     0.068 A 
HETATM   20  C   UNL     1      39.830  -9.746   6.186  1.00  0.00     0.038 A 
HETATM   21  C   UNL     1      40.333  -9.884   4.883  1.00  0.00     0.026 A 
BRANCH  19  22
HETATM   22  O   UNL     1      38.662 -10.813   8.070  1.00  0.00    -0.356 OA
HETATM   23  C   UNL     1      39.178  -9.852   8.981  1.00  0.00     0.210 C 
ENDBRANCH  19  22
ENDBRANCH  14  16
ENDBRANCH  13  14
ENDBRANCH   8  13
BRANCH   1  24
HETATM   24  O   UNL     1      44.123 -18.468   5.059  1.00  0.00    -0.351 OA
BRANCH  24  25
HETATM   25  C   UNL     1      44.412 -19.770   4.555  1.00  0.00     0.171 C 
HETATM   26  C   UNL     1      43.919 -20.787   5.568  1.00  0.00     0.034 C 
ENDBRANCH  24  25
ENDBRANCH   1  24
TORSDOF 6
ENDMDL
MODEL 10
REMARK VINA RESULT:      -7.0     15.968     18.113
REMARK  6 active torsions:
REMARK  status: ('A' for Active; 'I' for Inactive)
REMARK    1  A    between atoms: C_2  and  O_3 
REMARK    2  A    between atoms: O_3  and  C_4 
REMARK    3  A    between atoms: C_11  and  C_12 
REMARK    4  A    between atoms: C_12  and  N_13 
REMARK    5  A    between atoms: N_13  and  C_14 
REMARK    6  A    between atoms: C_17  and  O_18 
ROOT
HETATM    1  C   UNL     1      44.342 -29.458  -3.684  1.00  0.00     0.069 A 
HETATM    2  C   UNL     1      43.969 -30.048  -2.474  1.00  0.00     0.050 A 
HETATM    3  C   UNL     1      44.521 -29.591  -1.272  1.00  0.00    -0.006 A 
HETATM    4  C   UNL     1      45.444 -28.540  -1.286  1.00  0.00     0.045 A 
HETATM    5  N   UNL     1      45.988 -28.089  -0.078  1.00  0.00    -0.322 N 
HETATM    6  C   UNL     1      45.663 -28.615   1.145  1.00  0.00     0.253 A 
HETATM    7  O   UNL     1      46.157 -28.172   2.178  1.00  0.00    -0.268 OA
HETATM    8  C   UNL     1      44.687 -29.743   1.164  1.00  0.00     0.024 A 
HETATM    9  C   UNL     1      44.161 -30.195   0.010  1.00  0.00     0.027 A 
HETATM   10  C   UNL     1      45.822 -27.946  -2.487  1.00  0.00     0.033 A 
HETATM   11  C   UNL     1      45.268 -28.410  -3.682  1.00  0.00     0.039 A 
HETATM   12  H   UNL     1      46.649 -27.324  -0.070  1.00  0.00     0.169 HD
ENDROOT
BRANCH   8  13
HETATM   13  C   UNL     1      44.382 -30.358   2.497  1.00  0.00     0.136 C 
BRANCH  13  14
HETATM   14  N   UNL     1      43.212 -29.691   3.059  1.00  0.00    -0.289 NA
HETATM   15  H   UNL     1      43.466 -29.190   3.912  1.00  0.00     0.128 HD
BRANCH  14  16
HETATM   16  C   UNL     1      42.035 -30.426   3.260  1.00  0.00     0.008 A 
HETATM   17  C   UNL     1      41.466 -31.088   2.164  1.00  0.00     0.026 A 
HETATM   18  C   UNL     1      40.340 -31.905   2.313  1.00  0.00     0.038 A 
HETATM   19  C   UNL     1      39.773 -32.112   3.569  1.00  0.00     0.068 A 
HETATM   20  C   UNL     1      40.350 -31.493   4.674  1.00  0.00     0.038 A 
HETATM   21  C   UNL     1      41.477 -30.671   4.519  1.00  0.00     0.026 A 
BRANCH  19  22
HETATM   22  O   UNL     1      38.683 -32.936   3.582  1.00  0.00    -0.356 OA
HETATM   23  C   UNL     1      38.146 -33.266   4.856  1.00  0.00     0.210 C 
ENDBRANCH  19  22
ENDBRANCH  14  16
ENDBRANCH  13  14
ENDBRANCH   8  13
BRANCH   1  24
HETATM   24  O   UNL     1      43.882 -29.809  -4.924  1.00  0.00    -0.351 OA
BRANCH  24  25
HETATM   25  C   UNL     1      44.686 -30.707  -5.687  1.00  0.00     0.171 C 
HETATM   26  C   UNL     1      44.133 -32.108  -5.501  1.00  0.00     0.034 C 
ENDBRANCH  24  25
ENDBRANCH   1  24
TORSDOF 6
ENDMDL
