MODEL 1
REMARK VINA RESULT:      -7.7      0.000      0.000
REMARK  4 active torsions:
REMARK  status: ('A' for Active; 'I' for Inactive)
REMARK    1  A    between atoms: C_9  and  C_10 
REMARK    2  A    between atoms: C_19  and  C_20 
REMARK    3  A    between atoms: C_20  and  C_21 
REMARK    4  A    between atoms: C_21  and  O_22 
ROOT
HETATM    1  C   UNL     1      43.302 -19.615   2.002  1.00  0.00     0.069 C 
HETATM    2  C   UNL     1      43.319 -18.391   2.884  1.00  0.00     0.018 A 
HETATM    3  N   UNL     1      42.653 -17.279   2.385  1.00  0.00    -0.343 N 
HETATM    4  C   UNL     1      42.582 -16.114   3.069  1.00  0.00     0.146 A 
HETATM    5  N   UNL     1      43.180 -16.048   4.308  1.00  0.00    -0.179 N 
HETATM    6  N   UNL     1      43.005 -14.837   4.901  1.00  0.00    -0.167 NA
HETATM    7  C   UNL     1      42.305 -14.129   4.004  1.00  0.00     0.066 A 
HETATM    8  C   UNL     1      41.940 -12.721   4.305  1.00  0.00     0.073 C 
HETATM    9  C   UNL     1      42.015 -14.882   2.830  1.00  0.00     0.046 A 
HETATM   10  C   UNL     1      43.879 -17.105   4.912  1.00  0.00     0.278 A 
HETATM   11  O   UNL     1      44.391 -16.992   6.020  1.00  0.00    -0.265 OA
HETATM   12  C   UNL     1      43.932 -18.369   4.094  1.00  0.00     0.036 A 
HETATM   13  H   UNL     1      42.193 -17.385   1.481  1.00  0.00     0.167 HD
ENDROOT
BRANCH   9  14
HETATM   14  C   UNL     1      41.294 -14.520   1.627  1.00  0.00    -0.020 A 
HETATM   15  C   UNL     1      40.354 -15.398   1.070  1.00  0.00     0.014 A 
HETATM   16  C   UNL     1      39.669 -15.053  -0.097  1.00  0.00     0.020 A 
HETATM   17  C   UNL     1      39.924 -13.829  -0.712  1.00  0.00     0.011 A 
HETATM   18 BR   UNL     1      39.000 -13.363  -2.293  1.00  0.00    -0.051 Br
HETATM   19  C   UNL     1      40.858 -12.948  -0.170  1.00  0.00     0.020 A 
HETATM   20  C   UNL     1      41.542 -13.293   0.998  1.00  0.00     0.014 A 
ENDBRANCH   9  14
BRANCH  12  21
HETATM   21  C   UNL     1      44.729 -19.492   4.715  1.00  0.00     0.072 C 
BRANCH  21  22
HETATM   22  C   UNL     1      43.884 -20.413   5.595  1.00  0.00     0.169 C 
BRANCH  22  23
HETATM   23  O   UNL     1      43.812 -21.720   5.029  1.00  0.00    -0.401 OA
HETATM   24  H   UNL     1      43.287 -21.651   4.213  1.00  0.00     0.209 HD
ENDBRANCH  22  23
ENDBRANCH  21  22
ENDBRANCH  12  21
TORSDOF 4
ENDMDL
MODEL 2
REMARK VINA RESULT:      -7.2      1.588      2.069
REMARK  4 active torsions:
REMARK  status: ('A' for Active; 'I' for Inactive)
REMARK    1  A    between atoms: C_9  and  C_10 
REMARK    2  A    between atoms: C_19  and  C_20 
REMARK    3  A    between atoms: C_20  and  C_21 
REMARK    4  A    between atoms: C_21  and  O_22 
ROOT
HETATM    1  C   UNL     1      43.349 -18.405   2.619  1.00  0.00     0.069 C 
HETATM    2  C   UNL     1      43.101 -17.053   3.243  1.00  0.00     0.018 A 
HETATM    3  N   UNL     1      42.392 -16.150   2.462  1.00  0.00    -0.343 N 
HETATM    4  C   UNL     1      42.092 -14.904   2.894  1.00  0.00     0.146 A 
HETATM    5  N   UNL     1      42.496 -14.537   4.159  1.00  0.00    -0.179 N 
HETATM    6  N   UNL     1      42.101 -13.277   4.482  1.00  0.00    -0.167 NA
HETATM    7  C   UNL     1      41.462 -12.842   3.387  1.00  0.00     0.066 A 
HETATM    8  C   UNL     1      40.900 -11.467   3.364  1.00  0.00     0.073 C 
HETATM    9  C   UNL     1      41.430 -13.824   2.356  1.00  0.00     0.046 A 
HETATM   10  C   UNL     1      43.216 -15.365   5.036  1.00  0.00     0.278 A 
HETATM   11  O   UNL     1      43.548 -14.988   6.153  1.00  0.00    -0.265 OA
HETATM   12  C   UNL     1      43.528 -16.734   4.490  1.00  0.00     0.036 A 
HETATM   13  H   UNL     1      42.081 -16.477   1.548  1.00  0.00     0.167 HD
ENDROOT
BRANCH   9  14
HETATM   14  C   UNL     1      40.852 -13.783   1.027  1.00  0.00    -0.020 A 
HETATM   15  C   UNL     1      41.052 -12.670   0.199  1.00  0.00     0.014 A 
HETATM   16  C   UNL     1      40.484 -12.626  -1.076  1.00  0.00     0.020 A 
HETATM   17  C   UNL     1      39.712 -13.695  -1.525  1.00  0.00     0.011 A 
HETATM   18 BR   UNL     1      38.940 -13.636  -3.249  1.00  0.00    -0.051 Br
HETATM   19  C   UNL     1      39.502 -14.807  -0.711  1.00  0.00     0.020 A 
HETATM   20  C   UNL     1      40.072 -14.850   0.564  1.00  0.00     0.014 A 
ENDBRANCH   9  14
BRANCH  12  21
HETATM   21  C   UNL     1      44.351 -17.608   5.407  1.00  0.00     0.072 C 
BRANCH  21  22
HETATM   22  C   UNL     1      43.503 -18.395   6.407  1.00  0.00     0.169 C 
BRANCH  22  23
HETATM   23  O   UNL     1      43.302 -17.641   7.599  1.00  0.00    -0.401 OA
HETATM   24  H   UNL     1      43.669 -18.161   8.334  1.00  0.00     0.209 HD
ENDBRANCH  22  23
ENDBRANCH  21  22
ENDBRANCH  12  21
TORSDOF 4
ENDMDL
MODEL 3
REMARK VINA RESULT:      -7.1      2.607      4.146
REMARK  4 active torsions:
REMARK  status: ('A' for Active; 'I' for Inactive)
REMARK    1  A    between atoms: C_9  and  C_10 
REMARK    2  A    between atoms: C_19  and  C_20 
REMARK    3  A    between atoms: C_20  and  C_21 
REMARK    4  A    between atoms: C_21  and  O_22 
ROOT
HETATM    1  C   UNL     1      44.677 -16.656   6.474  1.00  0.00     0.069 C 
HETATM    2  C   UNL     1      43.833 -16.709   5.224  1.00  0.00     0.018 A 
HETATM    3  N   UNL     1      43.004 -15.615   5.010  1.00  0.00    -0.343 N 
HETATM    4  C   UNL     1      42.197 -15.524   3.928  1.00  0.00     0.146 A 
HETATM    5  N   UNL     1      42.220 -16.551   3.009  1.00  0.00    -0.179 N 
HETATM    6  N   UNL     1      41.392 -16.318   1.957  1.00  0.00    -0.167 NA
HETATM    7  C   UNL     1      40.824 -15.138   2.239  1.00  0.00     0.066 A 
HETATM    8  C   UNL     1      39.824 -14.563   1.302  1.00  0.00     0.073 C 
HETATM    9  C   UNL     1      41.291 -14.595   3.469  1.00  0.00     0.046 A 
HETATM   10  C   UNL     1      43.016 -17.702   3.121  1.00  0.00     0.278 A 
HETATM   11  O   UNL     1      42.999 -18.584   2.271  1.00  0.00    -0.265 OA
HETATM   12  C   UNL     1      43.882 -17.747   4.353  1.00  0.00     0.036 A 
HETATM   13  H   UNL     1      43.048 -14.863   5.696  1.00  0.00     0.167 HD
ENDROOT
BRANCH   9  14
HETATM   14  C   UNL     1      40.954 -13.360   4.149  1.00  0.00    -0.020 A 
HETATM   15  C   UNL     1      41.447 -12.134   3.681  1.00  0.00     0.014 A 
HETATM   16  C   UNL     1      41.131 -10.946   4.344  1.00  0.00     0.020 A 
HETATM   17  C   UNL     1      40.323 -10.982   5.478  1.00  0.00     0.011 A 
HETATM   18 BR   UNL     1      39.898  -9.375   6.378  1.00  0.00    -0.051 Br
HETATM   19  C   UNL     1      39.828 -12.194   5.955  1.00  0.00     0.020 A 
HETATM   20  C   UNL     1      40.144 -13.382   5.291  1.00  0.00     0.014 A 
ENDBRANCH   9  14
BRANCH  12  21
HETATM   21  C   UNL     1      44.699 -19.009   4.506  1.00  0.00     0.072 C 
BRANCH  21  22
HETATM   22  C   UNL     1      43.963 -20.111   5.268  1.00  0.00     0.169 C 
BRANCH  22  23
HETATM   23  O   UNL     1      43.982 -21.330   4.529  1.00  0.00    -0.401 OA
HETATM   24  H   UNL     1      44.723 -21.861   4.869  1.00  0.00     0.209 HD
ENDBRANCH  22  23
ENDBRANCH  21  22
ENDBRANCH  12  21
TORSDOF 4
ENDMDL
MODEL 4
REMARK VINA RESULT:      -6.9      6.219      9.203
REMARK  4 active torsions:
REMARK  status: ('A' for Active; 'I' for Inactive)
REMARK    1  A    between atoms: C_9  and  C_10 
REMARK    2  A    between atoms: C_19  and  C_20 
REMARK    3  A    between atoms: C_20  and  C_21 
REMARK    4  A    between atoms: C_21  and  O_22 
ROOT
HETATM    1  C   UNL     1      39.326 -11.184   6.042  1.00  0.00     0.069 C 
HETATM    2  C   UNL     1      40.820 -11.271   5.853  1.00  0.00     0.018 A 
HETATM    3  N   UNL     1      41.590 -10.807   6.912  1.00  0.00    -0.343 N 
HETATM    4  C   UNL     1      42.942 -10.829   6.884  1.00  0.00     0.146 A 
HETATM    5  N   UNL     1      43.563 -11.347   5.769  1.00  0.00    -0.179 N 
HETATM    6  N   UNL     1      44.917 -11.343   5.884  1.00  0.00    -0.167 NA
HETATM    7  C   UNL     1      45.144 -10.789   7.083  1.00  0.00     0.066 A 
HETATM    8  C   UNL     1      46.541 -10.598   7.549  1.00  0.00     0.073 C 
HETATM    9  C   UNL     1      43.937 -10.443   7.754  1.00  0.00     0.046 A 
HETATM   10  C   UNL     1      42.889 -11.844   4.642  1.00  0.00     0.278 A 
HETATM   11  O   UNL     1      43.493 -12.298   3.676  1.00  0.00    -0.265 OA
HETATM   12  C   UNL     1      41.386 -11.781   4.731  1.00  0.00     0.036 A 
HETATM   13  H   UNL     1      41.088 -10.467   7.732  1.00  0.00     0.167 HD
ENDROOT
BRANCH   9  14
HETATM   14  C   UNL     1      43.715  -9.832   9.049  1.00  0.00    -0.020 A 
HETATM   15  C   UNL     1      43.418  -8.466   9.150  1.00  0.00     0.014 A 
HETATM   16  C   UNL     1      43.217  -7.876  10.400  1.00  0.00     0.020 A 
HETATM   17  C   UNL     1      43.315  -8.652  11.553  1.00  0.00     0.011 A 
HETATM   18 BR   UNL     1      43.046  -7.854  13.245  1.00  0.00    -0.051 Br
HETATM   19  C   UNL     1      43.611 -10.011  11.468  1.00  0.00     0.020 A 
HETATM   20  C   UNL     1      43.812 -10.600  10.217  1.00  0.00     0.014 A 
ENDBRANCH   9  14
BRANCH  12  21
HETATM   21  C   UNL     1      40.658 -12.263   3.499  1.00  0.00     0.072 C 
BRANCH  21  22
HETATM   22  C   UNL     1      40.220 -13.725   3.594  1.00  0.00     0.169 C 
BRANCH  22  23
HETATM   23  O   UNL     1      38.946 -13.907   2.981  1.00  0.00    -0.401 OA
HETATM   24  H   UNL     1      39.035 -14.638   2.346  1.00  0.00     0.209 HD
ENDBRANCH  22  23
ENDBRANCH  21  22
ENDBRANCH  12  21
TORSDOF 4
ENDMDL
MODEL 5
REMARK VINA RESULT:      -6.7      3.984      5.855
REMARK  4 active torsions:
REMARK  status: ('A' for Active; 'I' for Inactive)
REMARK    1  A    between atoms: C_9  and  C_10 
REMARK    2  A    between atoms: C_19  and  C_20 
REMARK    3  A    between atoms: C_20  and  C_21 
REMARK    4  A    between atoms: C_21  and  O_22 
ROOT
HETATM    1  C   UNL     1      43.924 -17.357   5.950  1.00  0.00     0.069 C 
HETATM    2  C   UNL     1      43.450 -16.345   4.936  1.00  0.00     0.018 A 
HETATM    3  N   UNL     1      43.564 -15.013   5.316  1.00  0.00    -0.343 N 
HETATM    4  C   UNL     1      43.184 -13.998   4.507  1.00  0.00     0.146 A 
HETATM    5  N   UNL     1      42.683 -14.310   3.261  1.00  0.00    -0.179 N 
HETATM    6  N   UNL     1      42.374 -13.201   2.539  1.00  0.00    -0.167 NA
HETATM    7  C   UNL     1      42.664 -12.181   3.359  1.00  0.00     0.066 A 
HETATM    8  C   UNL     1      42.427 -10.787   2.906  1.00  0.00     0.073 C 
HETATM    9  C   UNL     1      43.173 -12.626   4.612  1.00  0.00     0.046 A 
HETATM   10  C   UNL     1      42.522 -15.616   2.772  1.00  0.00     0.278 A 
HETATM   11  O   UNL     1      42.074 -15.835   1.653  1.00  0.00    -0.265 OA
HETATM   12  C   UNL     1      42.954 -16.700   3.725  1.00  0.00     0.036 A 
HETATM   13  H   UNL     1      43.975 -14.829   6.231  1.00  0.00     0.167 HD
ENDROOT
BRANCH   9  14
HETATM   14  C   UNL     1      43.609 -11.880   5.775  1.00  0.00    -0.020 A 
HETATM   15  C   UNL     1      44.961 -11.871   6.149  1.00  0.00     0.014 A 
HETATM   16  C   UNL     1      45.378 -11.162   7.277  1.00  0.00     0.020 A 
HETATM   17  C   UNL     1      44.443 -10.462   8.037  1.00  0.00     0.011 A 
HETATM   18 BR   UNL     1      45.006  -9.505   9.566  1.00  0.00    -0.051 Br
HETATM   19  C   UNL     1      43.096 -10.464   7.679  1.00  0.00     0.020 A 
HETATM   20  C   UNL     1      42.680 -11.173   6.549  1.00  0.00     0.014 A 
ENDBRANCH   9  14
BRANCH  12  21
HETATM   21  C   UNL     1      42.731 -18.108   3.225  1.00  0.00     0.072 C 
BRANCH  21  22
HETATM   22  C   UNL     1      43.993 -18.745   2.644  1.00  0.00     0.169 C 
BRANCH  22  23
HETATM   23  O   UNL     1      43.689 -20.000   2.040  1.00  0.00    -0.401 OA
HETATM   24  H   UNL     1      43.564 -19.839   1.089  1.00  0.00     0.209 HD
ENDBRANCH  22  23
ENDBRANCH  21  22
ENDBRANCH  12  21
TORSDOF 4
ENDMDL
MODEL 6
REMARK VINA RESULT:      -6.7     13.973     16.808
REMARK  4 active torsions:
REMARK  status: ('A' for Active; 'I' for Inactive)
REMARK    1  A    between atoms: C_9  and  C_10 
REMARK    2  A    between atoms: C_19  and  C_20 
REMARK    3  A    between atoms: C_20  and  C_21 
REMARK    4  A    between atoms: C_21  and  O_22 
ROOT
HETATM    1  C   UNL     1      46.485 -29.385  -2.961  1.00  0.00     0.069 C 
HETATM    2  C   UNL     1      46.984 -29.312  -1.539  1.00  0.00     0.018 A 
HETATM    3  N   UNL     1      48.233 -29.876  -1.309  1.00  0.00    -0.343 N 
HETATM    4  C   UNL     1      48.808 -29.879  -0.085  1.00  0.00     0.146 A 
HETATM    5  N   UNL     1      48.128 -29.285   0.956  1.00  0.00    -0.179 N 
HETATM    6  N   UNL     1      48.830 -29.325   2.120  1.00  0.00    -0.167 NA
HETATM    7  C   UNL     1      49.956 -29.979   1.802  1.00  0.00     0.066 A 
HETATM    8  C   UNL     1      50.975 -30.236   2.852  1.00  0.00     0.073 C 
HETATM    9  C   UNL     1      49.993 -30.354   0.429  1.00  0.00     0.046 A 
HETATM   10  C   UNL     1      46.864 -28.684   0.842  1.00  0.00     0.278 A 
HETATM   11  O   UNL     1      46.306 -28.167   1.802  1.00  0.00    -0.265 OA
HETATM   12  C   UNL     1      46.274 -28.725  -0.544  1.00  0.00     0.036 A 
HETATM   13  H   UNL     1      48.715 -30.271  -2.116  1.00  0.00     0.167 HD
ENDROOT
BRANCH   9  14
HETATM   14  C   UNL     1      51.002 -31.063  -0.332  1.00  0.00    -0.020 A 
HETATM   15  C   UNL     1      51.621 -32.204   0.198  1.00  0.00     0.014 A 
HETATM   16  C   UNL     1      52.603 -32.878  -0.531  1.00  0.00     0.020 A 
HETATM   17  C   UNL     1      52.969 -32.412  -1.792  1.00  0.00     0.011 A 
HETATM   18 BR   UNL     1      54.300 -33.322  -2.778  1.00  0.00    -0.051 Br
HETATM   19  C   UNL     1      52.364 -31.278  -2.330  1.00  0.00     0.020 A 
HETATM   20  C   UNL     1      51.381 -30.604  -1.600  1.00  0.00     0.014 A 
ENDBRANCH   9  14
BRANCH  12  21
HETATM   21  C   UNL     1      44.891 -28.130  -0.661  1.00  0.00     0.072 C 
BRANCH  21  22
HETATM   22  C   UNL     1      43.780 -29.115  -0.294  1.00  0.00     0.169 C 
BRANCH  22  23
HETATM   23  O   UNL     1      43.344 -28.902   1.047  1.00  0.00    -0.401 OA
HETATM   24  H   UNL     1      44.063 -29.195   1.633  1.00  0.00     0.209 HD
ENDBRANCH  22  23
ENDBRANCH  21  22
ENDBRANCH  12  21
TORSDOF 4
ENDMDL
MODEL 7
REMARK VINA RESULT:      -6.6      3.900      6.720
REMARK  4 active torsions:
REMARK  status: ('A' for Active; 'I' for Inactive)
REMARK    1  A    between atoms: C_9  and  C_10 
REMARK    2  A    between atoms: C_19  and  C_20 
REMARK    3  A    between atoms: C_20  and  C_21 
REMARK    4  A    between atoms: C_21  and  O_22 
ROOT
HETATM    1  C   UNL     1      40.545 -12.361   1.354  1.00  0.00     0.069 C 
HETATM    2  C   UNL     1      40.960 -12.573   2.789  1.00  0.00     0.018 A 
HETATM    3  N   UNL     1      41.532 -13.806   3.075  1.00  0.00    -0.343 N 
HETATM    4  C   UNL     1      41.956 -14.133   4.318  1.00  0.00     0.146 A 
HETATM    5  N   UNL     1      41.825 -13.196   5.319  1.00  0.00    -0.179 N 
HETATM    6  N   UNL     1      42.320 -13.637   6.506  1.00  0.00    -0.167 NA
HETATM    7  C   UNL     1      42.745 -14.881   6.244  1.00  0.00     0.066 A 
HETATM    8  C   UNL     1      43.340 -15.697   7.333  1.00  0.00     0.073 C 
HETATM    9  C   UNL     1      42.537 -15.245   4.883  1.00  0.00     0.046 A 
HETATM   10  C   UNL     1      41.263 -11.921   5.147  1.00  0.00     0.278 A 
HETATM   11  O   UNL     1      41.173 -11.125   6.074  1.00  0.00    -0.265 OA
HETATM   12  C   UNL     1      40.800 -11.624   3.745  1.00  0.00     0.036 A 
HETATM   13  H   UNL     1      41.644 -14.454   2.296  1.00  0.00     0.167 HD
ENDROOT
BRANCH   9  14
HETATM   14  C   UNL     1      42.842 -16.473   4.175  1.00  0.00    -0.020 A 
HETATM   15  C   UNL     1      43.876 -17.311   4.617  1.00  0.00     0.014 A 
HETATM   16  C   UNL     1      44.176 -18.487   3.926  1.00  0.00     0.020 A 
HETATM   17  C   UNL     1      43.445 -18.826   2.789  1.00  0.00     0.011 A 
HETATM   18 BR   UNL     1      43.854 -20.415   1.852  1.00  0.00    -0.051 Br
HETATM   19  C   UNL     1      42.417 -18.001   2.338  1.00  0.00     0.020 A 
HETATM   20  C   UNL     1      42.116 -16.825   3.030  1.00  0.00     0.014 A 
ENDBRANCH   9  14
BRANCH  12  21
HETATM   21  C   UNL     1      40.145 -10.275   3.567  1.00  0.00     0.072 C 
BRANCH  21  22
HETATM   22  C   UNL     1      38.666 -10.269   3.954  1.00  0.00     0.169 C 
BRANCH  22  23
HETATM   23  O   UNL     1      37.843 -10.219   2.792  1.00  0.00    -0.401 OA
HETATM   24  H   UNL     1      38.367 -10.572   2.053  1.00  0.00     0.209 HD
ENDBRANCH  22  23
ENDBRANCH  21  22
ENDBRANCH  12  21
TORSDOF 4
ENDMDL
MODEL 8
REMARK VINA RESULT:      -6.6      4.482      7.261
REMARK  4 active torsions:
REMARK  status: ('A' for Active; 'I' for Inactive)
REMARK    1  A    between atoms: C_9  and  C_10 
REMARK    2  A    between atoms: C_19  and  C_20 
REMARK    3  A    between atoms: C_20  and  C_21 
REMARK    4  A    between atoms: C_21  and  O_22 
ROOT
HETATM    1  C   UNL     1      41.364 -10.792   0.249  1.00  0.00     0.069 C 
HETATM    2  C   UNL     1      41.104 -12.147   0.860  1.00  0.00     0.018 A 
HETATM    3  N   UNL     1      41.509 -12.301   2.179  1.00  0.00    -0.343 N 
HETATM    4  C   UNL     1      41.335 -13.458   2.856  1.00  0.00     0.146 A 
HETATM    5  N   UNL     1      40.719 -14.507   2.208  1.00  0.00    -0.179 N 
HETATM    6  N   UNL     1      40.574 -15.595   3.010  1.00  0.00    -0.167 NA
HETATM    7  C   UNL     1      41.134 -15.226   4.171  1.00  0.00     0.066 A 
HETATM    8  C   UNL     1      41.181 -16.189   5.300  1.00  0.00     0.073 C 
HETATM    9  C   UNL     1      41.632 -13.892   4.128  1.00  0.00     0.046 A 
HETATM   10  C   UNL     1      40.268 -14.466   0.879  1.00  0.00     0.278 A 
HETATM   11  O   UNL     1      39.722 -15.429   0.353  1.00  0.00    -0.265 OA
HETATM   12  C   UNL     1      40.502 -13.153   0.178  1.00  0.00     0.036 A 
HETATM   13  H   UNL     1      41.927 -11.487   2.630  1.00  0.00     0.167 HD
ENDROOT
BRANCH   9  14
HETATM   14  C   UNL     1      42.301 -13.099   5.141  1.00  0.00    -0.020 A 
HETATM   15  C   UNL     1      43.502 -13.542   5.712  1.00  0.00     0.014 A 
HETATM   16  C   UNL     1      44.139 -12.782   6.696  1.00  0.00     0.020 A 
HETATM   17  C   UNL     1      43.573 -11.579   7.113  1.00  0.00     0.011 A 
HETATM   18 BR   UNL     1      44.432 -10.553   8.448  1.00  0.00    -0.051 Br
HETATM   19  C   UNL     1      42.378 -11.129   6.556  1.00  0.00     0.020 A 
HETATM   20  C   UNL     1      41.742 -11.889   5.571  1.00  0.00     0.014 A 
ENDBRANCH   9  14
BRANCH  12  21
HETATM   21  C   UNL     1      40.069 -13.123  -1.269  1.00  0.00     0.072 C 
BRANCH  21  22
HETATM   22  C   UNL     1      38.585 -12.801  -1.445  1.00  0.00     0.169 C 
BRANCH  22  23
HETATM   23  O   UNL     1      37.858 -13.971  -1.811  1.00  0.00    -0.401 OA
HETATM   24  H   UNL     1      38.507 -14.631  -2.111  1.00  0.00     0.209 HD
ENDBRANCH  22  23
ENDBRANCH  21  22
ENDBRANCH  12  21
TORSDOF 4
ENDMDL
MODEL 9
REMARK VINA RESULT:      -6.5     13.896     15.126
REMARK  4 active torsions:
REMARK  status: ('A' for Active; 'I' for Inactive)
REMARK    1  A    between atoms: C_9  and  C_10 
REMARK    2  A    between atoms: C_19  and  C_20 
REMARK    3  A    between atoms: C_20  and  C_21 
REMARK    4  A    between atoms: C_21  and  O_22 
ROOT
HETATM    1  C   UNL     1      41.969 -32.455   0.813  1.00  0.00     0.069 C 
HETATM    2  C   UNL     1      43.063 -31.416   0.803  1.00  0.00     0.018 A 
HETATM    3  N   UNL     1      43.573 -31.091  -0.448  1.00  0.00    -0.343 N 
HETATM    4  C   UNL     1      44.553 -30.172  -0.610  1.00  0.00     0.146 A 
HETATM    5  N   UNL     1      45.039 -29.534   0.510  1.00  0.00    -0.179 N 
HETATM    6  N   UNL     1      45.992 -28.612   0.205  1.00  0.00    -0.167 NA
HETATM    7  C   UNL     1      46.118 -28.697  -1.126  1.00  0.00     0.066 A 
HETATM    8  C   UNL     1      47.105 -27.835  -1.825  1.00  0.00     0.073 C 
HETATM    9  C   UNL     1      45.239 -29.666  -1.690  1.00  0.00     0.046 A 
HETATM   10  C   UNL     1      44.600 -29.780   1.821  1.00  0.00     0.278 A 
HETATM   11  O   UNL     1      45.067 -29.180   2.782  1.00  0.00    -0.265 OA
HETATM   12  C   UNL     1      43.517 -30.821   1.934  1.00  0.00     0.036 A 
HETATM   13  H   UNL     1      43.157 -31.561  -1.251  1.00  0.00     0.167 HD
ENDROOT
BRANCH   9  14
HETATM   14  C   UNL     1      45.042 -30.079  -3.065  1.00  0.00    -0.020 A 
HETATM   15  C   UNL     1      43.955 -29.592  -3.805  1.00  0.00     0.014 A 
HETATM   16  C   UNL     1      43.759 -30.001  -5.126  1.00  0.00     0.020 A 
HETATM   17  C   UNL     1      44.649 -30.899  -5.710  1.00  0.00     0.011 A 
HETATM   18 BR   UNL     1      44.383 -31.455  -7.496  1.00  0.00    -0.051 Br
HETATM   19  C   UNL     1      45.732 -31.393  -4.986  1.00  0.00     0.020 A 
HETATM   20  C   UNL     1      45.928 -30.983  -3.664  1.00  0.00     0.014 A 
ENDBRANCH   9  14
BRANCH  12  21
HETATM   21  C   UNL     1      43.080 -31.130   3.346  1.00  0.00     0.072 C 
BRANCH  21  22
HETATM   22  C   UNL     1      41.810 -30.385   3.758  1.00  0.00     0.169 C 
BRANCH  22  23
HETATM   23  O   UNL     1      41.699 -30.330   5.178  1.00  0.00    -0.401 OA
HETATM   24  H   UNL     1      40.882 -30.799   5.421  1.00  0.00     0.209 HD
ENDBRANCH  22  23
ENDBRANCH  21  22
ENDBRANCH  12  21
TORSDOF 4
ENDMDL
MODEL 10
REMARK VINA RESULT:      -6.3     13.873     14.945
REMARK  4 active torsions:
REMARK  status: ('A' for Active; 'I' for Inactive)
REMARK    1  A    between atoms: C_9  and  C_10 
REMARK    2  A    between atoms: C_19  and  C_20 
REMARK    3  A    between atoms: C_20  and  C_21 
REMARK    4  A    between atoms: C_21  and  O_22 
ROOT
HETATM    1  C   UNL     1      50.437 -30.376   0.325  1.00  0.00     0.069 C 
HETATM    2  C   UNL     1      49.178 -30.137   1.121  1.00  0.00     0.018 A 
HETATM    3  N   UNL     1      47.997 -30.115   0.389  1.00  0.00    -0.343 N 
HETATM    4  C   UNL     1      46.793 -29.917   0.971  1.00  0.00     0.146 A 
HETATM    5  N   UNL     1      46.748 -29.748   2.338  1.00  0.00    -0.179 N 
HETATM    6  N   UNL     1      45.478 -29.594   2.797  1.00  0.00    -0.167 NA
HETATM    7  C   UNL     1      44.720 -29.642   1.693  1.00  0.00     0.066 A 
HETATM    8  C   UNL     1      43.248 -29.484   1.807  1.00  0.00     0.073 C 
HETATM    9  C   UNL     1      45.496 -29.839   0.515  1.00  0.00     0.046 A 
HETATM   10  C   UNL     1      47.874 -29.752   3.177  1.00  0.00     0.278 A 
HETATM   11  O   UNL     1      47.776 -29.600   4.389  1.00  0.00    -0.265 OA
HETATM   12  C   UNL     1      49.185 -29.966   2.466  1.00  0.00     0.036 A 
HETATM   13  H   UNL     1      48.074 -30.281  -0.614  1.00  0.00     0.167 HD
ENDROOT
BRANCH   9  14
HETATM   14  C   UNL     1      45.097 -29.952  -0.874  1.00  0.00    -0.020 A 
HETATM   15  C   UNL     1      44.865 -31.211  -1.447  1.00  0.00     0.014 A 
HETATM   16  C   UNL     1      44.493 -31.319  -2.788  1.00  0.00     0.020 A 
HETATM   17  C   UNL     1      44.354 -30.168  -3.561  1.00  0.00     0.011 A 
HETATM   18 BR   UNL     1      43.854 -30.314  -5.378  1.00  0.00    -0.051 Br
HETATM   19  C   UNL     1      44.584 -28.911  -3.006  1.00  0.00     0.020 A 
HETATM   20  C   UNL     1      44.956 -28.804  -1.663  1.00  0.00     0.014 A 
ENDBRANCH   9  14
BRANCH  12  21
HETATM   21  C   UNL     1      50.404 -29.916   3.357  1.00  0.00     0.072 C 
BRANCH  21  22
HETATM   22  C   UNL     1      50.772 -31.277   3.949  1.00  0.00     0.169 C 
BRANCH  22  23
HETATM   23  O   UNL     1      50.133 -31.466   5.209  1.00  0.00    -0.401 OA
HETATM   24  H   UNL     1      49.847 -32.394   5.250  1.00  0.00     0.209 HD
ENDBRANCH  22  23
ENDBRANCH  21  22
ENDBRANCH  12  21
TORSDOF 4
ENDMDL
