MODEL 1
REMARK VINA RESULT:      -8.9      0.000      0.000
REMARK  6 active torsions:
REMARK  status: ('A' for Active; 'I' for Inactive)
REMARK    1  A    between atoms: C_3  and  C_4 
REMARK    2  A    between atoms: C_5  and  C_6 
REMARK       I    between atoms: C_6  and  N_7 
REMARK    3  A    between atoms: N_7  and  C_8 
REMARK    4  A    between atoms: C_8  and  C_9 
REMARK    5  A    between atoms: C_11  and  O_12 
REMARK    6  A    between atoms: O_12  and  C_13 
ROOT
HETATM    1  C   UNL     1      42.104 -12.780   6.142  1.00  0.00     0.161 C 
ENDROOT
BRANCH   1   2
HETATM    2  N   UNL     1      42.236 -14.115   5.601  1.00  0.00    -0.353 N 
HETATM    3  C   UNL     1      42.434 -15.196   6.417  1.00  0.00     0.241 C 
HETATM    4  O   UNL     1      42.576 -15.128   7.629  1.00  0.00    -0.269 OA
HETATM    5  H   UNL     1      42.187 -14.225   4.596  1.00  0.00     0.163 HD
BRANCH   3   6
HETATM    6  C   UNL     1      42.444 -16.480   5.670  1.00  0.00     0.075 C 
HETATM    7  C   UNL     1      43.580 -16.917   5.106  1.00  0.00     0.018 C 
BRANCH   7   8
HETATM    8  C   UNL     1      43.694 -18.204   4.398  1.00  0.00    -0.014 A 
HETATM    9  C   UNL     1      43.968 -19.378   5.121  1.00  0.00     0.013 A 
HETATM   10  C   UNL     1      44.062 -20.616   4.477  1.00  0.00     0.001 A 
HETATM   11  C   UNL     1      43.871 -20.702   3.100  1.00  0.00     0.002 A 
HETATM   12  C   UNL     1      43.580 -19.552   2.368  1.00  0.00     0.024 A 
HETATM   13  C   UNL     1      43.488 -18.311   3.010  1.00  0.00     0.044 A 
HETATM   14 CL   UNL     1      43.140 -16.934   2.021  1.00  0.00    -0.083 Cl
ENDBRANCH   7   8
ENDBRANCH   3   6
ENDBRANCH   1   2
BRANCH   1  15
HETATM   15  C   UNL     1      43.455 -12.161   6.388  1.00  0.00    -0.038 A 
HETATM   16  C   UNL     1      43.883 -11.894   7.698  1.00  0.00     0.046 A 
HETATM   17  C   UNL     1      45.098 -11.247   7.932  1.00  0.00     0.078 A 
HETATM   18  C   UNL     1      45.946 -10.954   6.867  1.00  0.00     0.037 A 
HETATM   19  C   UNL     1      45.554 -11.258   5.562  1.00  0.00     0.003 A 
HETATM   20  C   UNL     1      44.311 -11.850   5.323  1.00  0.00     0.009 A 
BRANCH  17  21
HETATM   21  O   UNL     1      45.544 -10.953   9.198  1.00  0.00    -0.292 OA
BRANCH  21  22
HETATM   22  C   UNL     1      44.653 -10.323  10.065  1.00  0.00     0.169 A 
HETATM   23  N   UNL     1      44.075 -11.015  11.077  1.00  0.00    -0.237 NA
HETATM   24  C   UNL     1      43.198 -10.338  11.850  1.00  0.00     0.119 A 
HETATM   25  C   UNL     1      42.870  -9.005  11.660  1.00  0.00     0.019 A 
HETATM   26  C   UNL     1      43.471  -8.322  10.607  1.00  0.00     0.006 A 
HETATM   27  C   UNL     1      44.374  -8.992   9.788  1.00  0.00     0.058 A 
ENDBRANCH  21  22
ENDBRANCH  17  21
ENDBRANCH   1  15
TORSDOF 6
ENDMDL
MODEL 2
REMARK VINA RESULT:      -8.6      3.013      5.928
REMARK  6 active torsions:
REMARK  status: ('A' for Active; 'I' for Inactive)
REMARK    1  A    between atoms: C_3  and  C_4 
REMARK    2  A    between atoms: C_5  and  C_6 
REMARK       I    between atoms: C_6  and  N_7 
REMARK    3  A    between atoms: N_7  and  C_8 
REMARK    4  A    between atoms: C_8  and  C_9 
REMARK    5  A    between atoms: C_11  and  O_12 
REMARK    6  A    between atoms: O_12  and  C_13 
ROOT
HETATM    1  C   UNL     1      43.719 -13.310   6.761  1.00  0.00     0.161 C 
ENDROOT
BRANCH   1   2
HETATM    2  N   UNL     1      43.651 -14.674   6.286  1.00  0.00    -0.353 N 
HETATM    3  C   UNL     1      43.256 -15.694   7.109  1.00  0.00     0.241 C 
HETATM    4  O   UNL     1      42.993 -15.560   8.296  1.00  0.00    -0.269 OA
HETATM    5  H   UNL     1      43.915 -14.854   5.327  1.00  0.00     0.163 HD
BRANCH   3   6
HETATM    6  C   UNL     1      43.162 -16.995   6.400  1.00  0.00     0.075 C 
HETATM    7  C   UNL     1      43.852 -17.190   5.265  1.00  0.00     0.018 C 
BRANCH   7   8
HETATM    8  C   UNL     1      43.861 -18.467   4.528  1.00  0.00    -0.014 A 
HETATM    9  C   UNL     1      44.065 -19.673   5.223  1.00  0.00     0.013 A 
HETATM   10  C   UNL     1      44.059 -20.899   4.551  1.00  0.00     0.001 A 
HETATM   11  C   UNL     1      43.838 -20.942   3.177  1.00  0.00     0.002 A 
HETATM   12  C   UNL     1      43.617 -19.759   2.474  1.00  0.00     0.024 A 
HETATM   13  C   UNL     1      43.625 -18.528   3.143  1.00  0.00     0.044 A 
HETATM   14 CL   UNL     1      43.357 -17.109   2.189  1.00  0.00    -0.083 Cl
ENDBRANCH   7   8
ENDBRANCH   3   6
ENDBRANCH   1   2
BRANCH   1  15
HETATM   15  C   UNL     1      42.634 -12.467   6.142  1.00  0.00    -0.038 A 
HETATM   16  C   UNL     1      41.629 -13.065   5.367  1.00  0.00     0.046 A 
HETATM   17  C   UNL     1      40.667 -12.284   4.723  1.00  0.00     0.078 A 
HETATM   18  C   UNL     1      40.637 -10.907   4.931  1.00  0.00     0.037 A 
HETATM   19  C   UNL     1      41.602 -10.305   5.739  1.00  0.00     0.003 A 
HETATM   20  C   UNL     1      42.601 -11.079   6.335  1.00  0.00     0.009 A 
BRANCH  17  21
HETATM   21  O   UNL     1      39.677 -12.830   3.942  1.00  0.00    -0.292 OA
BRANCH  21  22
HETATM   22  C   UNL     1      40.063 -13.465   2.763  1.00  0.00     0.169 A 
HETATM   23  N   UNL     1      40.645 -12.759   1.763  1.00  0.00    -0.237 NA
HETATM   24  C   UNL     1      40.957 -13.444   0.640  1.00  0.00     0.119 A 
HETATM   25  C   UNL     1      40.715 -14.797   0.469  1.00  0.00     0.019 A 
HETATM   26  C   UNL     1      40.107 -15.495   1.508  1.00  0.00     0.006 A 
HETATM   27  C   UNL     1      39.767 -14.818   2.675  1.00  0.00     0.058 A 
ENDBRANCH  21  22
ENDBRANCH  17  21
ENDBRANCH   1  15
TORSDOF 6
ENDMDL
MODEL 3
REMARK VINA RESULT:      -8.6      1.726      2.158
REMARK  6 active torsions:
REMARK  status: ('A' for Active; 'I' for Inactive)
REMARK    1  A    between atoms: C_3  and  C_4 
REMARK    2  A    between atoms: C_5  and  C_6 
REMARK       I    between atoms: C_6  and  N_7 
REMARK    3  A    between atoms: N_7  and  C_8 
REMARK    4  A    between atoms: C_8  and  C_9 
REMARK    5  A    between atoms: C_11  and  O_12 
REMARK    6  A    between atoms: O_12  and  C_13 
ROOT
HETATM    1  C   UNL     1      42.411 -11.487   5.987  1.00  0.00     0.161 C 
ENDROOT
BRANCH   1   2
HETATM    2  N   UNL     1      42.393 -12.874   5.576  1.00  0.00    -0.353 N 
HETATM    3  C   UNL     1      41.450 -13.343   4.702  1.00  0.00     0.241 C 
HETATM    4  O   UNL     1      40.531 -12.673   4.253  1.00  0.00    -0.269 OA
HETATM    5  H   UNL     1      43.094 -13.491   5.963  1.00  0.00     0.163 HD
BRANCH   3   6
HETATM    6  C   UNL     1      41.668 -14.767   4.338  1.00  0.00     0.075 C 
HETATM    7  C   UNL     1      42.913 -15.214   4.110  1.00  0.00     0.018 C 
BRANCH   7   8
HETATM    8  C   UNL     1      43.226 -16.621   3.799  1.00  0.00    -0.014 A 
HETATM    9  C   UNL     1      42.765 -17.191   2.599  1.00  0.00     0.013 A 
HETATM   10  C   UNL     1      43.064 -18.517   2.271  1.00  0.00     0.001 A 
HETATM   11  C   UNL     1      43.838 -19.292   3.131  1.00  0.00     0.002 A 
HETATM   12  C   UNL     1      44.319 -18.739   4.316  1.00  0.00     0.024 A 
HETATM   13  C   UNL     1      44.020 -17.412   4.650  1.00  0.00     0.044 A 
HETATM   14 CL   UNL     1      44.645 -16.814   6.148  1.00  0.00    -0.083 Cl
ENDBRANCH   7   8
ENDBRANCH   3   6
ENDBRANCH   1   2
BRANCH   1  15
HETATM   15  C   UNL     1      43.735 -11.124   6.608  1.00  0.00    -0.038 A 
HETATM   16  C   UNL     1      43.780 -10.341   7.772  1.00  0.00     0.046 A 
HETATM   17  C   UNL     1      45.003  -9.933   8.308  1.00  0.00     0.078 A 
HETATM   18  C   UNL     1      46.194 -10.389   7.747  1.00  0.00     0.037 A 
HETATM   19  C   UNL     1      46.163 -11.208   6.618  1.00  0.00     0.003 A 
HETATM   20  C   UNL     1      44.940 -11.567   6.045  1.00  0.00     0.009 A 
BRANCH  17  21
HETATM   21  O   UNL     1      45.089  -9.152   9.435  1.00  0.00    -0.292 OA
BRANCH  21  22
HETATM   22  C   UNL     1      44.343  -9.540  10.546  1.00  0.00     0.169 A 
HETATM   23  N   UNL     1      44.351 -10.830  10.962  1.00  0.00    -0.237 NA
HETATM   24  C   UNL     1      43.573 -11.127  12.025  1.00  0.00     0.119 A 
HETATM   25  C   UNL     1      42.787 -10.200  12.692  1.00  0.00     0.019 A 
HETATM   26  C   UNL     1      42.791  -8.885  12.236  1.00  0.00     0.006 A 
HETATM   27  C   UNL     1      43.576  -8.546  11.139  1.00  0.00     0.058 A 
ENDBRANCH  21  22
ENDBRANCH  17  21
ENDBRANCH   1  15
TORSDOF 6
ENDMDL
MODEL 4
REMARK VINA RESULT:      -8.5      5.160      8.671
REMARK  6 active torsions:
REMARK  status: ('A' for Active; 'I' for Inactive)
REMARK    1  A    between atoms: C_3  and  C_4 
REMARK    2  A    between atoms: C_5  and  C_6 
REMARK       I    between atoms: C_6  and  N_7 
REMARK    3  A    between atoms: N_7  and  C_8 
REMARK    4  A    between atoms: C_8  and  C_9 
REMARK    5  A    between atoms: C_11  and  O_12 
REMARK    6  A    between atoms: O_12  and  C_13 
ROOT
HETATM    1  C   UNL     1      41.710 -12.845   4.330  1.00  0.00     0.161 C 
ENDROOT
BRANCH   1   2
HETATM    2  N   UNL     1      41.216 -12.983   2.978  1.00  0.00    -0.353 N 
HETATM    3  C   UNL     1      41.674 -12.180   1.969  1.00  0.00     0.241 C 
HETATM    4  O   UNL     1      42.469 -11.263   2.124  1.00  0.00    -0.269 OA
HETATM    5  H   UNL     1      40.511 -13.687   2.801  1.00  0.00     0.163 HD
BRANCH   3   6
HETATM    6  C   UNL     1      41.112 -12.550   0.645  1.00  0.00     0.075 C 
HETATM    7  C   UNL     1      39.869 -13.049   0.562  1.00  0.00     0.018 C 
BRANCH   7   8
HETATM    8  C   UNL     1      39.213 -13.389  -0.713  1.00  0.00    -0.014 A 
HETATM    9  C   UNL     1      39.541 -14.588  -1.370  1.00  0.00     0.013 A 
HETATM   10  C   UNL     1      38.919 -14.944  -2.571  1.00  0.00     0.001 A 
HETATM   11  C   UNL     1      37.951 -14.114  -3.129  1.00  0.00     0.002 A 
HETATM   12  C   UNL     1      37.600 -12.929  -2.484  1.00  0.00     0.024 A 
HETATM   13  C   UNL     1      38.222 -12.568  -1.283  1.00  0.00     0.044 A 
HETATM   14 CL   UNL     1      37.735 -11.073  -0.559  1.00  0.00    -0.083 Cl
ENDBRANCH   7   8
ENDBRANCH   3   6
ENDBRANCH   1   2
BRANCH   1  15
HETATM   15  C   UNL     1      41.920 -14.194   4.969  1.00  0.00    -0.038 A 
HETATM   16  C   UNL     1      43.035 -14.974   4.626  1.00  0.00     0.046 A 
HETATM   17  C   UNL     1      43.195 -16.258   5.152  1.00  0.00     0.078 A 
HETATM   18  C   UNL     1      42.298 -16.734   6.105  1.00  0.00     0.037 A 
HETATM   19  C   UNL     1      41.211 -15.949   6.492  1.00  0.00     0.003 A 
HETATM   20  C   UNL     1      41.017 -14.689   5.920  1.00  0.00     0.009 A 
BRANCH  17  21
HETATM   21  O   UNL     1      44.263 -17.058   4.828  1.00  0.00    -0.292 OA
BRANCH  21  22
HETATM   22  C   UNL     1      43.996 -18.245   4.149  1.00  0.00     0.169 A 
HETATM   23  N   UNL     1      44.252 -19.442   4.731  1.00  0.00    -0.237 NA
HETATM   24  C   UNL     1      43.996 -20.542   3.990  1.00  0.00     0.119 A 
HETATM   25  C   UNL     1      43.499 -20.505   2.697  1.00  0.00     0.019 A 
HETATM   26  C   UNL     1      43.255 -19.263   2.121  1.00  0.00     0.006 A 
HETATM   27  C   UNL     1      43.514 -18.109   2.854  1.00  0.00     0.058 A 
ENDBRANCH  21  22
ENDBRANCH  17  21
ENDBRANCH   1  15
TORSDOF 6
ENDMDL
MODEL 5
REMARK VINA RESULT:      -8.3      1.493      1.832
REMARK  6 active torsions:
REMARK  status: ('A' for Active; 'I' for Inactive)
REMARK    1  A    between atoms: C_3  and  C_4 
REMARK    2  A    between atoms: C_5  and  C_6 
REMARK       I    between atoms: C_6  and  N_7 
REMARK    3  A    between atoms: N_7  and  C_8 
REMARK    4  A    between atoms: C_8  and  C_9 
REMARK    5  A    between atoms: C_11  and  O_12 
REMARK    6  A    between atoms: O_12  and  C_13 
ROOT
HETATM    1  C   UNL     1      42.130 -11.692   6.227  1.00  0.00     0.161 C 
ENDROOT
BRANCH   1   2
HETATM    2  N   UNL     1      42.260 -13.064   5.787  1.00  0.00    -0.353 N 
HETATM    3  C   UNL     1      41.230 -13.954   5.923  1.00  0.00     0.241 C 
HETATM    4  O   UNL     1      40.165 -13.699   6.466  1.00  0.00    -0.269 OA
HETATM    5  H   UNL     1      43.142 -13.349   5.383  1.00  0.00     0.163 HD
BRANCH   3   6
HETATM    6  C   UNL     1      41.535 -15.277   5.320  1.00  0.00     0.075 C 
HETATM    7  C   UNL     1      42.650 -15.438   4.591  1.00  0.00     0.018 C 
BRANCH   7   8
HETATM    8  C   UNL     1      43.060 -16.727   4.006  1.00  0.00    -0.014 A 
HETATM    9  C   UNL     1      44.004 -17.529   4.672  1.00  0.00     0.013 A 
HETATM   10  C   UNL     1      44.396 -18.765   4.148  1.00  0.00     0.001 A 
HETATM   11  C   UNL     1      43.841 -19.226   2.957  1.00  0.00     0.002 A 
HETATM   12  C   UNL     1      42.890 -18.454   2.292  1.00  0.00     0.024 A 
HETATM   13  C   UNL     1      42.498 -17.214   2.811  1.00  0.00     0.044 A 
HETATM   14 CL   UNL     1      41.324 -16.316   1.911  1.00  0.00    -0.083 Cl
ENDBRANCH   7   8
ENDBRANCH   3   6
ENDBRANCH   1   2
BRANCH   1  15
HETATM   15  C   UNL     1      43.422 -11.189   6.818  1.00  0.00    -0.038 A 
HETATM   16  C   UNL     1      43.404 -10.256   7.867  1.00  0.00     0.046 A 
HETATM   17  C   UNL     1      44.595  -9.724   8.366  1.00  0.00     0.078 A 
HETATM   18  C   UNL     1      45.818 -10.196   7.895  1.00  0.00     0.037 A 
HETATM   19  C   UNL     1      45.850 -11.159   6.885  1.00  0.00     0.003 A 
HETATM   20  C   UNL     1      44.658 -11.647   6.343  1.00  0.00     0.009 A 
BRANCH  17  21
HETATM   21  O   UNL     1      44.619  -8.797   9.380  1.00  0.00    -0.292 OA
BRANCH  21  22
HETATM   22  C   UNL     1      43.836  -9.051  10.504  1.00  0.00     0.169 A 
HETATM   23  N   UNL     1      43.010  -8.095  10.994  1.00  0.00    -0.237 NA
HETATM   24  C   UNL     1      42.312  -8.411  12.107  1.00  0.00     0.119 A 
HETATM   25  C   UNL     1      42.400  -9.634  12.753  1.00  0.00     0.019 A 
HETATM   26  C   UNL     1      43.264 -10.593  12.233  1.00  0.00     0.006 A 
HETATM   27  C   UNL     1      44.003 -10.297  11.092  1.00  0.00     0.058 A 
ENDBRANCH  21  22
ENDBRANCH  17  21
ENDBRANCH   1  15
TORSDOF 6
ENDMDL
MODEL 6
REMARK VINA RESULT:      -8.3      4.789      8.493
REMARK  6 active torsions:
REMARK  status: ('A' for Active; 'I' for Inactive)
REMARK    1  A    between atoms: C_3  and  C_4 
REMARK    2  A    between atoms: C_5  and  C_6 
REMARK       I    between atoms: C_6  and  N_7 
REMARK    3  A    between atoms: N_7  and  C_8 
REMARK    4  A    between atoms: C_8  and  C_9 
REMARK    5  A    between atoms: C_11  and  O_12 
REMARK    6  A    between atoms: O_12  and  C_13 
ROOT
HETATM    1  C   UNL     1      40.629 -14.744   5.304  1.00  0.00     0.161 C 
ENDROOT
BRANCH   1   2
HETATM    2  N   UNL     1      40.917 -14.190   3.999  1.00  0.00    -0.353 N 
HETATM    3  C   UNL     1      40.489 -14.808   2.855  1.00  0.00     0.241 C 
HETATM    4  O   UNL     1      39.899 -15.878   2.828  1.00  0.00    -0.269 OA
HETATM    5  H   UNL     1      41.455 -13.335   3.957  1.00  0.00     0.163 HD
BRANCH   3   6
HETATM    6  C   UNL     1      40.804 -14.025   1.632  1.00  0.00     0.075 C 
HETATM    7  C   UNL     1      40.072 -14.197   0.521  1.00  0.00     0.018 C 
BRANCH   7   8
HETATM    8  C   UNL     1      40.278 -13.423  -0.716  1.00  0.00    -0.014 A 
HETATM    9  C   UNL     1      40.992 -12.212  -0.672  1.00  0.00     0.013 A 
HETATM   10  C   UNL     1      41.219 -11.468  -1.834  1.00  0.00     0.001 A 
HETATM   11  C   UNL     1      40.747 -11.928  -3.061  1.00  0.00     0.002 A 
HETATM   12  C   UNL     1      40.053 -13.134  -3.127  1.00  0.00     0.024 A 
HETATM   13  C   UNL     1      39.821 -13.881  -1.966  1.00  0.00     0.044 A 
HETATM   14 CL   UNL     1      38.937 -15.359  -2.139  1.00  0.00    -0.083 Cl
ENDBRANCH   7   8
ENDBRANCH   3   6
ENDBRANCH   1   2
BRANCH   1  15
HETATM   15  C   UNL     1      41.855 -15.386   5.901  1.00  0.00    -0.038 A 
HETATM   16  C   UNL     1      42.776 -16.054   5.079  1.00  0.00     0.046 A 
HETATM   17  C   UNL     1      43.871 -16.720   5.632  1.00  0.00     0.078 A 
HETATM   18  C   UNL     1      44.115 -16.639   7.001  1.00  0.00     0.037 A 
HETATM   19  C   UNL     1      43.233 -15.937   7.824  1.00  0.00     0.003 A 
HETATM   20  C   UNL     1      42.104 -15.321   7.278  1.00  0.00     0.009 A 
BRANCH  17  21
HETATM   21  O   UNL     1      44.785 -17.400   4.863  1.00  0.00    -0.292 OA
BRANCH  21  22
HETATM   22  C   UNL     1      44.373 -18.594   4.277  1.00  0.00     0.169 A 
HETATM   23  N   UNL     1      44.341 -19.739   5.002  1.00  0.00    -0.237 NA
HETATM   24  C   UNL     1      43.962 -20.859   4.349  1.00  0.00     0.119 A 
HETATM   25  C   UNL     1      43.615 -20.891   3.007  1.00  0.00     0.019 A 
HETATM   26  C   UNL     1      43.667 -19.703   2.285  1.00  0.00     0.006 A 
HETATM   27  C   UNL     1      44.060 -18.532   2.926  1.00  0.00     0.058 A 
ENDBRANCH  21  22
ENDBRANCH  17  21
ENDBRANCH   1  15
TORSDOF 6
ENDMDL
MODEL 7
REMARK VINA RESULT:      -8.3      2.425      3.234
REMARK  6 active torsions:
REMARK  status: ('A' for Active; 'I' for Inactive)
REMARK    1  A    between atoms: C_3  and  C_4 
REMARK    2  A    between atoms: C_5  and  C_6 
REMARK       I    between atoms: C_6  and  N_7 
REMARK    3  A    between atoms: N_7  and  C_8 
REMARK    4  A    between atoms: C_8  and  C_9 
REMARK    5  A    between atoms: C_11  and  O_12 
REMARK    6  A    between atoms: O_12  and  C_13 
ROOT
HETATM    1  C   UNL     1      41.719 -12.625   2.789  1.00  0.00     0.161 C 
ENDROOT
BRANCH   1   2
HETATM    2  N   UNL     1      41.799 -14.060   2.950  1.00  0.00    -0.353 N 
HETATM    3  C   UNL     1      41.678 -14.903   1.879  1.00  0.00     0.241 C 
HETATM    4  O   UNL     1      41.437 -14.538   0.737  1.00  0.00    -0.269 OA
HETATM    5  H   UNL     1      41.938 -14.424   3.884  1.00  0.00     0.163 HD
BRANCH   3   6
HETATM    6  C   UNL     1      41.888 -16.327   2.247  1.00  0.00     0.075 C 
HETATM    7  C   UNL     1      43.120 -16.765   2.546  1.00  0.00     0.018 C 
BRANCH   7   8
HETATM    8  C   UNL     1      43.410 -18.145   2.976  1.00  0.00    -0.014 A 
HETATM    9  C   UNL     1      43.259 -19.207   2.067  1.00  0.00     0.013 A 
HETATM   10  C   UNL     1      43.546 -20.523   2.443  1.00  0.00     0.001 A 
HETATM   11  C   UNL     1      44.000 -20.798   3.730  1.00  0.00     0.002 A 
HETATM   12  C   UNL     1      44.173 -19.757   4.640  1.00  0.00     0.024 A 
HETATM   13  C   UNL     1      43.885 -18.438   4.268  1.00  0.00     0.044 A 
HETATM   14 CL   UNL     1      44.114 -17.211   5.467  1.00  0.00    -0.083 Cl
ENDBRANCH   7   8
ENDBRANCH   3   6
ENDBRANCH   1   2
BRANCH   1  15
HETATM   15  C   UNL     1      41.966 -11.919   4.097  1.00  0.00    -0.038 A 
HETATM   16  C   UNL     1      42.993 -12.351   4.951  1.00  0.00     0.046 A 
HETATM   17  C   UNL     1      43.176 -11.755   6.201  1.00  0.00     0.078 A 
HETATM   18  C   UNL     1      42.405 -10.654   6.566  1.00  0.00     0.037 A 
HETATM   19  C   UNL     1      41.412 -10.184   5.705  1.00  0.00     0.003 A 
HETATM   20  C   UNL     1      41.187 -10.818   4.480  1.00  0.00     0.009 A 
BRANCH  17  21
HETATM   21  O   UNL     1      44.158 -12.159   7.072  1.00  0.00    -0.292 OA
BRANCH  21  22
HETATM   22  C   UNL     1      44.709 -11.197   7.915  1.00  0.00     0.169 A 
HETATM   23  N   UNL     1      44.255 -11.056   9.185  1.00  0.00    -0.237 NA
HETATM   24  C   UNL     1      44.819 -10.076   9.924  1.00  0.00     0.119 A 
HETATM   25  C   UNL     1      45.812  -9.230   9.457  1.00  0.00     0.019 A 
HETATM   26  C   UNL     1      46.251  -9.390   8.146  1.00  0.00     0.006 A 
HETATM   27  C   UNL     1      45.686 -10.386   7.355  1.00  0.00     0.058 A 
ENDBRANCH  21  22
ENDBRANCH  17  21
ENDBRANCH   1  15
TORSDOF 6
ENDMDL
MODEL 8
REMARK VINA RESULT:      -8.0      6.703     10.514
REMARK  6 active torsions:
REMARK  status: ('A' for Active; 'I' for Inactive)
REMARK    1  A    between atoms: C_3  and  C_4 
REMARK    2  A    between atoms: C_5  and  C_6 
REMARK       I    between atoms: C_6  and  N_7 
REMARK    3  A    between atoms: N_7  and  C_8 
REMARK    4  A    between atoms: C_8  and  C_9 
REMARK    5  A    between atoms: C_11  and  O_12 
REMARK    6  A    between atoms: O_12  and  C_13 
ROOT
HETATM    1  C   UNL     1      40.033 -14.861  -0.098  1.00  0.00     0.161 C 
ENDROOT
BRANCH   1   2
HETATM    2  N   UNL     1      40.730 -13.670  -0.533  1.00  0.00    -0.353 N 
HETATM    3  C   UNL     1      40.176 -12.428  -0.380  1.00  0.00     0.241 C 
HETATM    4  O   UNL     1      39.056 -12.222   0.064  1.00  0.00    -0.269 OA
HETATM    5  H   UNL     1      41.638 -13.784  -0.964  1.00  0.00     0.163 HD
BRANCH   3   6
HETATM    6  C   UNL     1      41.095 -11.339  -0.800  1.00  0.00     0.075 C 
HETATM    7  C   UNL     1      40.613 -10.278  -1.465  1.00  0.00     0.018 C 
BRANCH   7   8
HETATM    8  C   UNL     1      41.441  -9.127  -1.870  1.00  0.00    -0.014 A 
HETATM    9  C   UNL     1      42.297  -8.519  -0.934  1.00  0.00     0.013 A 
HETATM   10  C   UNL     1      43.108  -7.439  -1.296  1.00  0.00     0.001 A 
HETATM   11  C   UNL     1      43.085  -6.956  -2.602  1.00  0.00     0.002 A 
HETATM   12  C   UNL     1      42.256  -7.556  -3.548  1.00  0.00     0.024 A 
HETATM   13  C   UNL     1      41.441  -8.637  -3.189  1.00  0.00     0.044 A 
HETATM   14 CL   UNL     1      40.432  -9.310  -4.423  1.00  0.00    -0.083 Cl
ENDBRANCH   7   8
ENDBRANCH   3   6
ENDBRANCH   1   2
BRANCH   1  15
HETATM   15  C   UNL     1      40.562 -15.343   1.228  1.00  0.00    -0.038 A 
HETATM   16  C   UNL     1      41.862 -15.863   1.325  1.00  0.00     0.046 A 
HETATM   17  C   UNL     1      42.331 -16.387   2.532  1.00  0.00     0.078 A 
HETATM   18  C   UNL     1      41.545 -16.300   3.678  1.00  0.00     0.037 A 
HETATM   19  C   UNL     1      40.268 -15.741   3.606  1.00  0.00     0.003 A 
HETATM   20  C   UNL     1      39.775 -15.273   2.386  1.00  0.00     0.009 A 
BRANCH  17  21
HETATM   21  O   UNL     1      43.590 -16.920   2.663  1.00  0.00    -0.292 OA
BRANCH  21  22
HETATM   22  C   UNL     1      43.688 -18.248   3.074  1.00  0.00     0.169 A 
HETATM   23  N   UNL     1      44.161 -18.551   4.307  1.00  0.00    -0.237 NA
HETATM   24  C   UNL     1      44.255 -19.864   4.613  1.00  0.00     0.119 A 
HETATM   25  C   UNL     1      43.902 -20.886   3.747  1.00  0.00     0.019 A 
HETATM   26  C   UNL     1      43.429 -20.546   2.483  1.00  0.00     0.006 A 
HETATM   27  C   UNL     1      43.326 -19.203   2.134  1.00  0.00     0.058 A 
ENDBRANCH  21  22
ENDBRANCH  17  21
ENDBRANCH   1  15
TORSDOF 6
ENDMDL
MODEL 9
REMARK VINA RESULT:      -7.8      3.571      4.840
REMARK  6 active torsions:
REMARK  status: ('A' for Active; 'I' for Inactive)
REMARK    1  A    between atoms: C_3  and  C_4 
REMARK    2  A    between atoms: C_5  and  C_6 
REMARK       I    between atoms: C_6  and  N_7 
REMARK    3  A    between atoms: N_7  and  C_8 
REMARK    4  A    between atoms: C_8  and  C_9 
REMARK    5  A    between atoms: C_11  and  O_12 
REMARK    6  A    between atoms: O_12  and  C_13 
ROOT
HETATM    1  C   UNL     1      38.691 -12.867   2.295  1.00  0.00     0.161 C 
ENDROOT
BRANCH   1   2
HETATM    2  N   UNL     1      39.372 -14.061   2.746  1.00  0.00    -0.353 N 
HETATM    3  C   UNL     1      39.974 -14.913   1.861  1.00  0.00     0.241 C 
HETATM    4  O   UNL     1      39.940 -14.782   0.646  1.00  0.00    -0.269 OA
HETATM    5  H   UNL     1      39.381 -14.253   3.740  1.00  0.00     0.163 HD
BRANCH   3   6
HETATM    6  C   UNL     1      40.697 -16.020   2.537  1.00  0.00     0.075 C 
HETATM    7  C   UNL     1      41.973 -16.282   2.213  1.00  0.00     0.018 C 
BRANCH   7   8
HETATM    8  C   UNL     1      42.782 -17.323   2.873  1.00  0.00    -0.014 A 
HETATM    9  C   UNL     1      42.977 -18.563   2.239  1.00  0.00     0.013 A 
HETATM   10  C   UNL     1      43.756 -19.560   2.834  1.00  0.00     0.001 A 
HETATM   11  C   UNL     1      44.363 -19.331   4.066  1.00  0.00     0.002 A 
HETATM   12  C   UNL     1      44.196 -18.101   4.701  1.00  0.00     0.024 A 
HETATM   13  C   UNL     1      43.414 -17.101   4.110  1.00  0.00     0.044 A 
HETATM   14 CL   UNL     1      43.249 -15.612   4.977  1.00  0.00    -0.083 Cl
ENDBRANCH   7   8
ENDBRANCH   3   6
ENDBRANCH   1   2
BRANCH   1  15
HETATM   15  C   UNL     1      39.327 -11.630   2.874  1.00  0.00    -0.038 A 
HETATM   16  C   UNL     1      40.711 -11.589   3.108  1.00  0.00     0.046 A 
HETATM   17  C   UNL     1      41.297 -10.478   3.719  1.00  0.00     0.078 A 
HETATM   18  C   UNL     1      40.525  -9.355   4.005  1.00  0.00     0.037 A 
HETATM   19  C   UNL     1      39.156  -9.363   3.732  1.00  0.00     0.003 A 
HETATM   20  C   UNL     1      38.558 -10.498   3.177  1.00  0.00     0.009 A 
BRANCH  17  21
HETATM   21  O   UNL     1      42.643 -10.408   3.981  1.00  0.00    -0.292 OA
BRANCH  21  22
HETATM   22  C   UNL     1      43.080 -10.839   5.232  1.00  0.00     0.169 A 
HETATM   23  N   UNL     1      42.792 -10.122   6.345  1.00  0.00    -0.237 NA
HETATM   24  C   UNL     1      43.282 -10.593   7.513  1.00  0.00     0.119 A 
HETATM   25  C   UNL     1      44.045 -11.744   7.622  1.00  0.00     0.019 A 
HETATM   26  C   UNL     1      44.335 -12.455   6.461  1.00  0.00     0.006 A 
HETATM   27  C   UNL     1      43.851 -11.994   5.241  1.00  0.00     0.058 A 
ENDBRANCH  21  22
ENDBRANCH  17  21
ENDBRANCH   1  15
TORSDOF 6
ENDMDL
MODEL 10
REMARK VINA RESULT:      -7.8      6.825      9.143
REMARK  6 active torsions:
REMARK  status: ('A' for Active; 'I' for Inactive)
REMARK    1  A    between atoms: C_3  and  C_4 
REMARK    2  A    between atoms: C_5  and  C_6 
REMARK       I    between atoms: C_6  and  N_7 
REMARK    3  A    between atoms: N_7  and  C_8 
REMARK    4  A    between atoms: C_8  and  C_9 
REMARK    5  A    between atoms: C_11  and  O_12 
REMARK    6  A    between atoms: O_12  and  C_13 
ROOT
HETATM    1  C   UNL     1      39.965 -13.284   1.206  1.00  0.00     0.161 C 
ENDROOT
BRANCH   1   2
HETATM    2  N   UNL     1      40.386 -14.621   1.564  1.00  0.00    -0.353 N 
HETATM    3  C   UNL     1      41.687 -14.893   1.888  1.00  0.00     0.241 C 
HETATM    4  O   UNL     1      42.594 -14.075   1.846  1.00  0.00    -0.269 OA
HETATM    5  H   UNL     1      39.688 -15.353   1.559  1.00  0.00     0.163 HD
BRANCH   3   6
HETATM    6  C   UNL     1      41.885 -16.301   2.318  1.00  0.00     0.075 C 
HETATM    7  C   UNL     1      43.127 -16.791   2.452  1.00  0.00     0.018 C 
BRANCH   7   8
HETATM    8  C   UNL     1      43.416 -18.156   2.928  1.00  0.00    -0.014 A 
HETATM    9  C   UNL     1      43.209 -19.252   2.073  1.00  0.00     0.013 A 
HETATM   10  C   UNL     1      43.493 -20.556   2.492  1.00  0.00     0.001 A 
HETATM   11  C   UNL     1      44.000 -20.784   3.769  1.00  0.00     0.002 A 
HETATM   12  C   UNL     1      44.228 -19.708   4.625  1.00  0.00     0.024 A 
HETATM   13  C   UNL     1      43.943 -18.402   4.210  1.00  0.00     0.044 A 
HETATM   14 CL   UNL     1      44.242 -17.129   5.344  1.00  0.00    -0.083 Cl
ENDBRANCH   7   8
ENDBRANCH   3   6
ENDBRANCH   1   2
BRANCH   1  15
HETATM   15  C   UNL     1      39.797 -13.152  -0.286  1.00  0.00    -0.038 A 
HETATM   16  C   UNL     1      39.419 -11.923  -0.849  1.00  0.00     0.046 A 
HETATM   17  C   UNL     1      39.183 -11.812  -2.221  1.00  0.00     0.078 A 
HETATM   18  C   UNL     1      39.423 -12.899  -3.058  1.00  0.00     0.037 A 
HETATM   19  C   UNL     1      39.846 -14.113  -2.516  1.00  0.00     0.003 A 
HETATM   20  C   UNL     1      40.024 -14.242  -1.136  1.00  0.00     0.009 A 
BRANCH  17  21
HETATM   21  O   UNL     1      38.795 -10.632  -2.808  1.00  0.00    -0.292 OA
BRANCH  21  22
HETATM   22  C   UNL     1      39.704  -9.576  -2.796  1.00  0.00     0.169 A 
HETATM   23  N   UNL     1      39.720  -8.695  -1.767  1.00  0.00    -0.237 NA
HETATM   24  C   UNL     1      40.610  -7.682  -1.851  1.00  0.00     0.119 A 
HETATM   25  C   UNL     1      41.484  -7.507  -2.912  1.00  0.00     0.019 A 
HETATM   26  C   UNL     1      41.438  -8.421  -3.960  1.00  0.00     0.006 A 
HETATM   27  C   UNL     1      40.528  -9.473  -3.908  1.00  0.00     0.058 A 
ENDBRANCH  21  22
ENDBRANCH  17  21
ENDBRANCH   1  15
TORSDOF 6
ENDMDL
