MODEL 1
REMARK VINA RESULT:      -8.5      0.000      0.000
REMARK  4 active torsions:
REMARK  status: ('A' for Active; 'I' for Inactive)
REMARK    1  A    between atoms: O_2  and  C_3 
REMARK    2  A    between atoms: C_6  and  C_7 
REMARK    3  A    between atoms: C_12  and  N_13 
REMARK    4  A    between atoms: C_15  and  C_16 
ROOT
HETATM    1  C   UNL     1      42.713 -14.668   4.874  1.00  0.00     0.135 C 
HETATM    2  N   UNL     1      42.764 -13.928   3.618  1.00  0.00    -0.214 N 
HETATM    3  C   UNL     1      42.573 -12.593   3.667  1.00  0.00     0.736 A 
HETATM    4  N   UNL     1      42.783 -11.885   4.822  1.00  0.00    -0.074 N 
HETATM    5  N   UNL     1      42.415 -10.600   4.676  1.00  0.00     0.037 NA
HETATM    6  C   UNL     1      42.071 -10.582   3.392  1.00  0.00     0.753 A 
HETATM    7  N   UNL     1      42.162 -11.773   2.735  1.00  0.00     0.131 NA
HETATM    8  C   UNL     1      43.118 -12.497   6.104  1.00  0.00     0.164 C 
HETATM    9  C   UNL     1      43.584 -13.954   5.920  1.00  0.00     0.063 C 
HETATM   10  H   UNL     1      42.351 -14.403   2.818  1.00  0.00     0.178 HD
ENDROOT
BRANCH   1  11
HETATM   11  C   UNL     1      43.183 -16.095   4.662  1.00  0.00    -0.035 A 
HETATM   12  C   UNL     1      43.569 -16.907   5.738  1.00  0.00     0.012 A 
HETATM   13  C   UNL     1      43.949 -18.234   5.527  1.00  0.00     0.037 A 
HETATM   14  C   UNL     1      43.946 -18.781   4.243  1.00  0.00     0.068 A 
HETATM   15  C   UNL     1      43.580 -17.978   3.164  1.00  0.00     0.037 A 
HETATM   16  C   UNL     1      43.199 -16.646   3.372  1.00  0.00     0.012 A 
BRANCH  14  17
HETATM   17  O   UNL     1      44.324 -20.093   4.177  1.00  0.00    -0.356 OA
HETATM   18  C   UNL     1      43.949 -20.921   5.271  1.00  0.00     0.210 C 
ENDBRANCH  14  17
ENDBRANCH   1  11
BRANCH   8  19
HETATM   19  C   UNL     1      44.158 -11.701   6.880  1.00  0.00    -0.031 A 
HETATM   20  C   UNL     1      43.826 -11.148   8.128  1.00  0.00     0.028 A 
HETATM   21  C   UNL     1      44.781 -10.445   8.864  1.00  0.00     0.011 A 
HETATM   22 BR   UNL     1      44.315  -9.711  10.542  1.00  0.00    -0.051 Br
HETATM   23  C   UNL     1      46.076 -10.285   8.376  1.00  0.00     0.019 A 
HETATM   24  C   UNL     1      46.419 -10.830   7.141  1.00  0.00     0.002 A 
HETATM   25  C   UNL     1      45.469 -11.535   6.398  1.00  0.00     0.009 A 
ENDBRANCH   8  19
BRANCH   6  26
HETATM   26  N   UNL     1      41.662  -9.511   2.717  1.00  0.00    -0.229 N 
HETATM   27  H   UNL     1      40.709  -9.525   2.382  1.00  0.00     0.174 HD
HETATM   28  H   UNL     1      41.980  -8.615   3.058  1.00  0.00     0.174 HD
ENDBRANCH   6  26
TORSDOF 4
ENDMDL
MODEL 2
REMARK VINA RESULT:      -8.5      4.660      6.374
REMARK  4 active torsions:
REMARK  status: ('A' for Active; 'I' for Inactive)
REMARK    1  A    between atoms: O_2  and  C_3 
REMARK    2  A    between atoms: C_6  and  C_7 
REMARK    3  A    between atoms: C_12  and  N_13 
REMARK    4  A    between atoms: C_15  and  C_16 
ROOT
HETATM    1  C   UNL     1      42.568 -15.210   3.003  1.00  0.00     0.135 C 
HETATM    2  N   UNL     1      41.488 -14.895   3.932  1.00  0.00    -0.214 N 
HETATM    3  C   UNL     1      40.797 -13.754   3.730  1.00  0.00     0.736 A 
HETATM    4  N   UNL     1      40.763 -13.150   2.500  1.00  0.00    -0.074 N 
HETATM    5  N   UNL     1      40.123 -11.968   2.559  1.00  0.00     0.037 NA
HETATM    6  C   UNL     1      39.728 -11.960   3.828  1.00  0.00     0.753 A 
HETATM    7  N   UNL     1      40.109 -13.034   4.577  1.00  0.00     0.131 NA
HETATM    8  C   UNL     1      41.533 -13.604   1.347  1.00  0.00     0.164 C 
HETATM    9  C   UNL     1      42.065 -15.035   1.561  1.00  0.00     0.063 C 
HETATM   10  H   UNL     1      41.670 -15.135   4.905  1.00  0.00     0.178 HD
ENDROOT
BRANCH   1  11
HETATM   11  C   UNL     1      43.065 -16.624   3.234  1.00  0.00    -0.035 A 
HETATM   12  C   UNL     1      43.629 -17.012   4.459  1.00  0.00     0.012 A 
HETATM   13  C   UNL     1      44.034 -18.332   4.668  1.00  0.00     0.037 A 
HETATM   14  C   UNL     1      43.879 -19.293   3.668  1.00  0.00     0.068 A 
HETATM   15  C   UNL     1      43.334 -18.915   2.442  1.00  0.00     0.037 A 
HETATM   16  C   UNL     1      42.928 -17.591   2.227  1.00  0.00     0.012 A 
BRANCH  14  17
HETATM   17  O   UNL     1      44.299 -20.548   4.009  1.00  0.00    -0.356 OA
HETATM   18  C   UNL     1      44.209 -20.901   5.384  1.00  0.00     0.210 C 
ENDBRANCH  14  17
ENDBRANCH   1  11
BRANCH   8  19
HETATM   19  C   UNL     1      40.746 -13.520   0.046  1.00  0.00    -0.031 A 
HETATM   20  C   UNL     1      40.901 -12.403  -0.793  1.00  0.00     0.028 A 
HETATM   21  C   UNL     1      40.211 -12.330  -2.004  1.00  0.00     0.011 A 
HETATM   22 BR   UNL     1      40.434 -10.821  -3.119  1.00  0.00    -0.051 Br
HETATM   23  C   UNL     1      39.364 -13.363  -2.401  1.00  0.00     0.019 A 
HETATM   24  C   UNL     1      39.203 -14.476  -1.579  1.00  0.00     0.002 A 
HETATM   25  C   UNL     1      39.890 -14.556  -0.366  1.00  0.00     0.009 A 
ENDBRANCH   8  19
BRANCH   6  26
HETATM   26  N   UNL     1      39.001 -11.007   4.404  1.00  0.00    -0.229 N 
HETATM   27  H   UNL     1      39.424 -10.527   5.187  1.00  0.00     0.174 HD
HETATM   28  H   UNL     1      38.459 -10.419   3.787  1.00  0.00     0.174 HD
ENDBRANCH   6  26
TORSDOF 4
ENDMDL
MODEL 3
REMARK VINA RESULT:      -7.9      3.515      6.934
REMARK  4 active torsions:
REMARK  status: ('A' for Active; 'I' for Inactive)
REMARK    1  A    between atoms: O_2  and  C_3 
REMARK    2  A    between atoms: C_6  and  C_7 
REMARK    3  A    between atoms: C_12  and  N_13 
REMARK    4  A    between atoms: C_15  and  C_16 
ROOT
HETATM    1  C   UNL     1      43.043 -11.518   5.073  1.00  0.00     0.135 C 
HETATM    2  N   UNL     1      41.590 -11.519   5.202  1.00  0.00    -0.214 N 
HETATM    3  C   UNL     1      40.873 -12.119   4.229  1.00  0.00     0.736 A 
HETATM    4  N   UNL     1      41.432 -13.070   3.415  1.00  0.00    -0.074 N 
HETATM    5  N   UNL     1      40.578 -13.440   2.444  1.00  0.00     0.037 NA
HETATM    6  C   UNL     1      39.500 -12.736   2.778  1.00  0.00     0.753 A 
HETATM    7  N   UNL     1      39.632 -11.925   3.866  1.00  0.00     0.131 NA
HETATM    8  C   UNL     1      42.843 -13.442   3.445  1.00  0.00     0.164 C 
HETATM    9  C   UNL     1      43.524 -12.937   4.732  1.00  0.00     0.063 C 
HETATM   10  H   UNL     1      41.188 -10.664   5.583  1.00  0.00     0.178 HD
ENDROOT
BRANCH   1  11
HETATM   11  C   UNL     1      43.684 -11.023   6.356  1.00  0.00    -0.035 A 
HETATM   12  C   UNL     1      42.924 -10.424   7.371  1.00  0.00     0.012 A 
HETATM   13  C   UNL     1      43.525 -10.022   8.566  1.00  0.00     0.037 A 
HETATM   14  C   UNL     1      44.891 -10.215   8.777  1.00  0.00     0.068 A 
HETATM   15  C   UNL     1      45.659 -10.795   7.769  1.00  0.00     0.037 A 
HETATM   16  C   UNL     1      45.060 -11.198   6.568  1.00  0.00     0.012 A 
BRANCH  14  17
HETATM   17  O   UNL     1      45.348  -9.792   9.994  1.00  0.00    -0.356 OA
HETATM   18  C   UNL     1      44.388  -9.225  10.876  1.00  0.00     0.210 C 
ENDBRANCH  14  17
ENDBRANCH   1  11
BRANCH   8  19
HETATM   19  C   UNL     1      43.059 -14.940   3.283  1.00  0.00    -0.031 A 
HETATM   20  C   UNL     1      43.183 -15.755   4.422  1.00  0.00     0.028 A 
HETATM   21  C   UNL     1      43.347 -17.134   4.286  1.00  0.00     0.011 A 
HETATM   22 BR   UNL     1      43.510 -18.213   5.830  1.00  0.00    -0.051 Br
HETATM   23  C   UNL     1      43.386 -17.724   3.025  1.00  0.00     0.019 A 
HETATM   24  C   UNL     1      43.262 -16.927   1.888  1.00  0.00     0.002 A 
HETATM   25  C   UNL     1      43.098 -15.546   2.015  1.00  0.00     0.009 A 
ENDBRANCH   8  19
BRANCH   6  26
HETATM   26  N   UNL     1      38.329 -12.772   2.147  1.00  0.00    -0.229 N 
HETATM   27  H   UNL     1      38.359 -12.925   1.149  1.00  0.00     0.174 HD
HETATM   28  H   UNL     1      37.573 -13.239   2.628  1.00  0.00     0.174 HD
ENDBRANCH   6  26
TORSDOF 4
ENDMDL
MODEL 4
REMARK VINA RESULT:      -7.8      4.658      6.857
REMARK  4 active torsions:
REMARK  status: ('A' for Active; 'I' for Inactive)
REMARK    1  A    between atoms: O_2  and  C_3 
REMARK    2  A    between atoms: C_6  and  C_7 
REMARK    3  A    between atoms: C_12  and  N_13 
REMARK    4  A    between atoms: C_15  and  C_16 
ROOT
HETATM    1  C   UNL     1      40.603 -13.267   2.465  1.00  0.00     0.135 C 
HETATM    2  N   UNL     1      41.801 -12.438   2.397  1.00  0.00    -0.214 N 
HETATM    3  C   UNL     1      42.601 -12.399   3.482  1.00  0.00     0.736 A 
HETATM    4  N   UNL     1      42.584 -13.402   4.416  1.00  0.00    -0.074 N 
HETATM    5  N   UNL     1      43.366 -13.098   5.468  1.00  0.00     0.037 NA
HETATM    6  C   UNL     1      43.884 -11.941   5.068  1.00  0.00     0.753 A 
HETATM    7  N   UNL     1      43.454 -11.482   3.859  1.00  0.00     0.131 NA
HETATM    8  C   UNL     1      41.653 -14.525   4.390  1.00  0.00     0.164 C 
HETATM    9  C   UNL     1      40.976 -14.654   3.011  1.00  0.00     0.063 C 
HETATM   10  H   UNL     1      41.690 -11.556   1.898  1.00  0.00     0.178 HD
ENDROOT
BRANCH   1  11
HETATM   11  C   UNL     1      39.964 -13.380   1.093  1.00  0.00    -0.035 A 
HETATM   12  C   UNL     1      39.245 -12.316   0.529  1.00  0.00     0.012 A 
HETATM   13  C   UNL     1      38.709 -12.423  -0.755  1.00  0.00     0.037 A 
HETATM   14  C   UNL     1      38.882 -13.586  -1.506  1.00  0.00     0.068 A 
HETATM   15  C   UNL     1      39.581 -14.656  -0.950  1.00  0.00     0.037 A 
HETATM   16  C   UNL     1      40.120 -14.553   0.339  1.00  0.00     0.012 A 
BRANCH  14  17
HETATM   17  O   UNL     1      38.322 -13.553  -2.753  1.00  0.00    -0.356 OA
HETATM   18  C   UNL     1      38.268 -14.783  -3.463  1.00  0.00     0.210 C 
ENDBRANCH  14  17
ENDBRANCH   1  11
BRANCH   8  19
HETATM   19  C   UNL     1      42.309 -15.841   4.784  1.00  0.00    -0.031 A 
HETATM   20  C   UNL     1      42.770 -16.718   3.787  1.00  0.00     0.028 A 
HETATM   21  C   UNL     1      43.403 -17.911   4.137  1.00  0.00     0.011 A 
HETATM   22 BR   UNL     1      44.018 -19.076   2.781  1.00  0.00    -0.051 Br
HETATM   23  C   UNL     1      43.591 -18.249   5.475  1.00  0.00     0.019 A 
HETATM   24  C   UNL     1      43.140 -17.388   6.473  1.00  0.00     0.002 A 
HETATM   25  C   UNL     1      42.506 -16.192   6.131  1.00  0.00     0.009 A 
ENDBRANCH   8  19
BRANCH   6  26
HETATM   26  N   UNL     1      44.776 -11.220   5.743  1.00  0.00    -0.229 N 
HETATM   27  H   UNL     1      45.746 -11.481   5.630  1.00  0.00     0.174 HD
HETATM   28  H   UNL     1      44.605 -10.226   5.796  1.00  0.00     0.174 HD
ENDBRANCH   6  26
TORSDOF 4
ENDMDL
MODEL 5
REMARK VINA RESULT:      -7.6     16.793     19.411
REMARK  4 active torsions:
REMARK  status: ('A' for Active; 'I' for Inactive)
REMARK    1  A    between atoms: O_2  and  C_3 
REMARK    2  A    between atoms: C_6  and  C_7 
REMARK    3  A    between atoms: C_12  and  N_13 
REMARK    4  A    between atoms: C_15  and  C_16 
ROOT
HETATM    1  C   UNL     1      49.760 -29.850  -0.673  1.00  0.00     0.135 C 
HETATM    2  N   UNL     1      49.067 -30.291   0.532  1.00  0.00    -0.214 N 
HETATM    3  C   UNL     1      47.884 -29.712   0.826  1.00  0.00     0.736 A 
HETATM    4  N   UNL     1      47.132 -29.099  -0.142  1.00  0.00    -0.074 N 
HETATM    5  N   UNL     1      46.060 -28.487   0.393  1.00  0.00     0.037 NA
HETATM    6  C   UNL     1      46.184 -28.837   1.670  1.00  0.00     0.753 A 
HETATM    7  N   UNL     1      47.276 -29.593   1.977  1.00  0.00     0.131 NA
HETATM    8  C   UNL     1      47.568 -28.920  -1.523  1.00  0.00     0.164 C 
HETATM    9  C   UNL     1      48.770 -29.828  -1.848  1.00  0.00     0.063 C 
HETATM   10  H   UNL     1      49.669 -30.494   1.329  1.00  0.00     0.178 HD
ENDROOT
BRANCH   1  11
HETATM   11  C   UNL     1      50.933 -30.765  -0.970  1.00  0.00    -0.035 A 
HETATM   12  C   UNL     1      51.387 -31.703  -0.032  1.00  0.00     0.012 A 
HETATM   13  C   UNL     1      52.434 -32.572  -0.344  1.00  0.00     0.037 A 
HETATM   14  C   UNL     1      53.046 -32.528  -1.598  1.00  0.00     0.068 A 
HETATM   15  C   UNL     1      52.614 -31.589  -2.532  1.00  0.00     0.037 A 
HETATM   16  C   UNL     1      51.564 -30.715  -2.222  1.00  0.00     0.012 A 
BRANCH  14  17
HETATM   17  O   UNL     1      54.046 -33.443  -1.780  1.00  0.00    -0.356 OA
HETATM   18  C   UNL     1      55.068 -33.098  -2.707  1.00  0.00     0.210 C 
ENDBRANCH  14  17
ENDBRANCH   1  11
BRANCH   8  19
HETATM   19  C   UNL     1      46.446 -29.146  -2.527  1.00  0.00    -0.031 A 
HETATM   20  C   UNL     1      46.051 -30.456  -2.849  1.00  0.00     0.028 A 
HETATM   21  C   UNL     1      45.001 -30.675  -3.742  1.00  0.00     0.011 A 
HETATM   22 BR   UNL     1      44.482 -32.443  -4.162  1.00  0.00    -0.051 Br
HETATM   23  C   UNL     1      44.327 -29.602  -4.322  1.00  0.00     0.019 A 
HETATM   24  C   UNL     1      44.708 -28.299  -4.010  1.00  0.00     0.002 A 
HETATM   25  C   UNL     1      45.758 -28.072  -3.117  1.00  0.00     0.009 A 
ENDBRANCH   8  19
BRANCH   6  26
HETATM   26  N   UNL     1      45.335 -28.518   2.644  1.00  0.00    -0.229 N 
HETATM   27  H   UNL     1      45.536 -27.672   3.159  1.00  0.00     0.174 HD
HETATM   28  H   UNL     1      44.355 -28.681   2.458  1.00  0.00     0.174 HD
ENDBRANCH   6  26
TORSDOF 4
ENDMDL
MODEL 6
REMARK VINA RESULT:      -7.6      3.675      4.407
REMARK  4 active torsions:
REMARK  status: ('A' for Active; 'I' for Inactive)
REMARK    1  A    between atoms: O_2  and  C_3 
REMARK    2  A    between atoms: C_6  and  C_7 
REMARK    3  A    between atoms: C_12  and  N_13 
REMARK    4  A    between atoms: C_15  and  C_16 
ROOT
HETATM    1  C   UNL     1      41.071 -15.712   2.714  1.00  0.00     0.135 C 
HETATM    2  N   UNL     1      41.270 -15.467   1.290  1.00  0.00    -0.214 N 
HETATM    3  C   UNL     1      40.569 -14.466   0.719  1.00  0.00     0.736 A 
HETATM    4  N   UNL     1      40.061 -13.436   1.467  1.00  0.00    -0.074 N 
HETATM    5  N   UNL     1      39.297 -12.622   0.716  1.00  0.00     0.037 NA
HETATM    6  C   UNL     1      39.455 -13.170  -0.485  1.00  0.00     0.753 A 
HETATM    7  N   UNL     1      40.230 -14.290  -0.531  1.00  0.00     0.131 NA
HETATM    8  C   UNL     1      40.129 -13.375   2.924  1.00  0.00     0.164 C 
HETATM    9  C   UNL     1      41.160 -14.379   3.475  1.00  0.00     0.063 C 
HETATM   10  H   UNL     1      41.390 -16.303   0.719  1.00  0.00     0.178 HD
ENDROOT
BRANCH   1  11
HETATM   11  C   UNL     1      42.103 -16.697   3.228  1.00  0.00    -0.035 A 
HETATM   12  C   UNL     1      42.525 -16.686   4.565  1.00  0.00     0.012 A 
HETATM   13  C   UNL     1      43.438 -17.635   5.030  1.00  0.00     0.037 A 
HETATM   14  C   UNL     1      43.943 -18.618   4.177  1.00  0.00     0.068 A 
HETATM   15  C   UNL     1      43.542 -18.628   2.842  1.00  0.00     0.037 A 
HETATM   16  C   UNL     1      42.628 -17.677   2.371  1.00  0.00     0.012 A 
BRANCH  14  17
HETATM   17  O   UNL     1      44.814 -19.493   4.762  1.00  0.00    -0.356 OA
HETATM   18  C   UNL     1      44.283 -20.749   5.167  1.00  0.00     0.210 C 
ENDBRANCH  14  17
ENDBRANCH   1  11
BRANCH   8  19
HETATM   19  C   UNL     1      40.426 -11.973   3.439  1.00  0.00    -0.031 A 
HETATM   20  C   UNL     1      39.381 -11.178   3.940  1.00  0.00     0.028 A 
HETATM   21  C   UNL     1      39.646  -9.904   4.447  1.00  0.00     0.011 A 
HETATM   22 BR   UNL     1      38.228  -8.851   5.118  1.00  0.00    -0.051 Br
HETATM   23  C   UNL     1      40.946  -9.405   4.467  1.00  0.00     0.019 A 
HETATM   24  C   UNL     1      41.991 -10.184   3.974  1.00  0.00     0.002 A 
HETATM   25  C   UNL     1      41.734 -11.459   3.466  1.00  0.00     0.009 A 
ENDBRANCH   8  19
BRANCH   6  26
HETATM   26  N   UNL     1      38.928 -12.712  -1.618  1.00  0.00    -0.229 N 
HETATM   27  H   UNL     1      38.304 -11.921  -1.538  1.00  0.00     0.174 HD
HETATM   28  H   UNL     1      39.539 -12.692  -2.423  1.00  0.00     0.174 HD
ENDBRANCH   6  26
TORSDOF 4
ENDMDL
MODEL 7
REMARK VINA RESULT:      -7.5     11.124     14.546
REMARK  4 active torsions:
REMARK  status: ('A' for Active; 'I' for Inactive)
REMARK    1  A    between atoms: O_2  and  C_3 
REMARK    2  A    between atoms: C_6  and  C_7 
REMARK    3  A    between atoms: C_12  and  N_13 
REMARK    4  A    between atoms: C_15  and  C_16 
ROOT
HETATM    1  C   UNL     1      41.153  -6.260  17.717  1.00  0.00     0.135 C 
HETATM    2  N   UNL     1      40.245  -5.302  17.095  1.00  0.00    -0.214 N 
HETATM    3  C   UNL     1      40.561  -4.840  15.868  1.00  0.00     0.736 A 
HETATM    4  N   UNL     1      41.399  -5.539  15.038  1.00  0.00    -0.074 N 
HETATM    5  N   UNL     1      41.672  -4.839  13.922  1.00  0.00     0.037 NA
HETATM    6  C   UNL     1      40.905  -3.768  14.106  1.00  0.00     0.753 A 
HETATM    7  N   UNL     1      40.202  -3.733  15.274  1.00  0.00     0.131 NA
HETATM    8  C   UNL     1      42.100  -6.760  15.426  1.00  0.00     0.164 C 
HETATM    9  C   UNL     1      41.492  -7.367  16.705  1.00  0.00     0.063 C 
HETATM   10  H   UNL     1      39.834  -4.619  17.731  1.00  0.00     0.178 HD
ENDROOT
BRANCH   1  11
HETATM   11  C   UNL     1      40.525  -6.844  18.968  1.00  0.00    -0.035 A 
HETATM   12  C   UNL     1      39.874  -8.086  18.950  1.00  0.00     0.012 A 
HETATM   13  C   UNL     1      39.348  -8.630  20.123  1.00  0.00     0.037 A 
HETATM   14  C   UNL     1      39.464  -7.952  21.338  1.00  0.00     0.068 A 
HETATM   15  C   UNL     1      40.095  -6.710  21.365  1.00  0.00     0.037 A 
HETATM   16  C   UNL     1      40.624  -6.161  20.189  1.00  0.00     0.012 A 
BRANCH  14  17
HETATM   17  O   UNL     1      38.921  -8.602  22.411  1.00  0.00    -0.356 OA
HETATM   18  C   UNL     1      39.802  -9.407  23.184  1.00  0.00     0.210 C 
ENDBRANCH  14  17
ENDBRANCH   1  11
BRANCH   8  19
HETATM   19  C   UNL     1      42.134  -7.796  14.312  1.00  0.00    -0.031 A 
HETATM   20  C   UNL     1      41.048  -8.672  14.139  1.00  0.00     0.028 A 
HETATM   21  C   UNL     1      41.054  -9.604  13.100  1.00  0.00     0.011 A 
HETATM   22 BR   UNL     1      39.583 -10.772  12.883  1.00  0.00    -0.051 Br
HETATM   23  C   UNL     1      42.129  -9.677  12.218  1.00  0.00     0.019 A 
HETATM   24  C   UNL     1      43.210  -8.813  12.377  1.00  0.00     0.002 A 
HETATM   25  C   UNL     1      43.213  -7.878  13.414  1.00  0.00     0.009 A 
ENDBRANCH   8  19
BRANCH   6  26
HETATM   26  N   UNL     1      40.771  -2.759  13.250  1.00  0.00    -0.229 N 
HETATM   27  H   UNL     1      40.820  -1.827  13.639  1.00  0.00     0.174 HD
HETATM   28  H   UNL     1      41.218  -2.869  12.351  1.00  0.00     0.174 HD
ENDBRANCH   6  26
TORSDOF 4
ENDMDL
MODEL 8
REMARK VINA RESULT:      -7.3      5.270      6.681
REMARK  4 active torsions:
REMARK  status: ('A' for Active; 'I' for Inactive)
REMARK    1  A    between atoms: O_2  and  C_3 
REMARK    2  A    between atoms: C_6  and  C_7 
REMARK    3  A    between atoms: C_12  and  N_13 
REMARK    4  A    between atoms: C_15  and  C_16 
ROOT
HETATM    1  C   UNL     1      40.158 -14.596   1.333  1.00  0.00     0.135 C 
HETATM    2  N   UNL     1      40.074 -15.102  -0.033  1.00  0.00    -0.214 N 
HETATM    3  C   UNL     1      39.399 -14.363  -0.938  1.00  0.00     0.736 A 
HETATM    4  N   UNL     1      39.199 -13.020  -0.752  1.00  0.00    -0.074 N 
HETATM    5  N   UNL     1      38.400 -12.513  -1.709  1.00  0.00     0.037 NA
HETATM    6  C   UNL     1      38.224 -13.582  -2.480  1.00  0.00     0.753 A 
HETATM    7  N   UNL     1      38.823 -14.729  -2.052  1.00  0.00     0.131 NA
HETATM    8  C   UNL     1      39.587 -12.295   0.453  1.00  0.00     0.164 C 
HETATM    9  C   UNL     1      40.577 -13.118   1.301  1.00  0.00     0.063 C 
HETATM   10  H   UNL     1      39.961 -16.111  -0.115  1.00  0.00     0.178 HD
ENDROOT
BRANCH   1  11
HETATM   11  C   UNL     1      41.143 -15.420   2.139  1.00  0.00    -0.035 A 
HETATM   12  C   UNL     1      42.388 -15.797   1.613  1.00  0.00     0.012 A 
HETATM   13  C   UNL     1      43.301 -16.511   2.390  1.00  0.00     0.037 A 
HETATM   14  C   UNL     1      42.998 -16.860   3.707  1.00  0.00     0.068 A 
HETATM   15  C   UNL     1      41.759 -16.505   4.235  1.00  0.00     0.037 A 
HETATM   16  C   UNL     1      40.839 -15.789   3.458  1.00  0.00     0.012 A 
BRANCH  14  17
HETATM   17  O   UNL     1      43.985 -17.543   4.361  1.00  0.00    -0.356 OA
HETATM   18  C   UNL     1      44.335 -18.818   3.838  1.00  0.00     0.210 C 
ENDBRANCH  14  17
ENDBRANCH   1  11
BRANCH   8  19
HETATM   19  C   UNL     1      40.163 -10.919   0.151  1.00  0.00    -0.031 A 
HETATM   20  C   UNL     1      39.577  -9.776   0.722  1.00  0.00     0.028 A 
HETATM   21  C   UNL     1      40.116  -8.512   0.479  1.00  0.00     0.011 A 
HETATM   22 BR   UNL     1      39.314  -6.987   1.257  1.00  0.00    -0.051 Br
HETATM   23  C   UNL     1      41.243  -8.364  -0.326  1.00  0.00     0.019 A 
HETATM   24  C   UNL     1      41.835  -9.489  -0.896  1.00  0.00     0.002 A 
HETATM   25  C   UNL     1      41.301 -10.758  -0.658  1.00  0.00     0.009 A 
ENDBRANCH   8  19
BRANCH   6  26
HETATM   26  N   UNL     1      37.528 -13.610  -3.613  1.00  0.00    -0.229 N 
HETATM   27  H   UNL     1      36.748 -12.971  -3.680  1.00  0.00     0.174 HD
HETATM   28  H   UNL     1      38.059 -13.724  -4.465  1.00  0.00     0.174 HD
ENDBRANCH   6  26
TORSDOF 4
ENDMDL
MODEL 9
REMARK VINA RESULT:      -7.2      4.290      7.689
REMARK  4 active torsions:
REMARK  status: ('A' for Active; 'I' for Inactive)
REMARK    1  A    between atoms: O_2  and  C_3 
REMARK    2  A    between atoms: C_6  and  C_7 
REMARK    3  A    between atoms: C_12  and  N_13 
REMARK    4  A    between atoms: C_15  and  C_16 
ROOT
HETATM    1  C   UNL     1      42.152 -14.001   5.073  1.00  0.00     0.135 C 
HETATM    2  N   UNL     1      43.240 -14.914   4.743  1.00  0.00    -0.214 N 
HETATM    3  C   UNL     1      42.990 -15.898   3.855  1.00  0.00     0.736 A 
HETATM    4  N   UNL     1      41.959 -15.800   2.956  1.00  0.00    -0.074 N 
HETATM    5  N   UNL     1      41.817 -16.940   2.256  1.00  0.00     0.037 NA
HETATM    6  C   UNL     1      42.840 -17.649   2.723  1.00  0.00     0.753 A 
HETATM    7  N   UNL     1      43.588 -17.049   3.691  1.00  0.00     0.131 NA
HETATM    8  C   UNL     1      40.992 -14.707   2.940  1.00  0.00     0.164 C 
HETATM    9  C   UNL     1      41.490 -13.511   3.775  1.00  0.00     0.063 C 
HETATM   10  H   UNL     1      43.844 -15.168   5.524  1.00  0.00     0.178 HD
ENDROOT
BRANCH   1  11
HETATM   11  C   UNL     1      42.674 -12.833   5.887  1.00  0.00    -0.035 A 
HETATM   12  C   UNL     1      43.756 -12.979   6.769  1.00  0.00     0.012 A 
HETATM   13  C   UNL     1      44.254 -11.880   7.470  1.00  0.00     0.037 A 
HETATM   14  C   UNL     1      43.692 -10.613   7.305  1.00  0.00     0.068 A 
HETATM   15  C   UNL     1      42.607 -10.459   6.444  1.00  0.00     0.037 A 
HETATM   16  C   UNL     1      42.103 -11.560   5.739  1.00  0.00     0.012 A 
BRANCH  14  17
HETATM   17  O   UNL     1      44.284  -9.623   8.037  1.00  0.00    -0.356 OA
HETATM   18  C   UNL     1      45.706  -9.602   8.053  1.00  0.00     0.210 C 
ENDBRANCH  14  17
ENDBRANCH   1  11
BRANCH   8  19
HETATM   19  C   UNL     1      40.636 -14.258   1.530  1.00  0.00    -0.031 A 
HETATM   20  C   UNL     1      40.987 -12.968   1.098  1.00  0.00     0.028 A 
HETATM   21  C   UNL     1      40.697 -12.557  -0.204  1.00  0.00     0.011 A 
HETATM   22 BR   UNL     1      41.179 -10.818  -0.765  1.00  0.00    -0.051 Br
HETATM   23  C   UNL     1      40.060 -13.418  -1.094  1.00  0.00     0.019 A 
HETATM   24  C   UNL     1      39.709 -14.701  -0.679  1.00  0.00     0.002 A 
HETATM   25  C   UNL     1      39.996 -15.119   0.622  1.00  0.00     0.009 A 
ENDBRANCH   8  19
BRANCH   6  26
HETATM   26  N   UNL     1      43.182 -18.869   2.317  1.00  0.00    -0.229 N 
HETATM   27  H   UNL     1      42.735 -19.207   1.476  1.00  0.00     0.174 HD
HETATM   28  H   UNL     1      44.156 -19.119   2.411  1.00  0.00     0.174 HD
ENDBRANCH   6  26
TORSDOF 4
ENDMDL
MODEL 10
REMARK VINA RESULT:      -7.2     11.477     14.479
REMARK  4 active torsions:
REMARK  status: ('A' for Active; 'I' for Inactive)
REMARK    1  A    between atoms: O_2  and  C_3 
REMARK    2  A    between atoms: C_6  and  C_7 
REMARK    3  A    between atoms: C_12  and  N_13 
REMARK    4  A    between atoms: C_15  and  C_16 
ROOT
HETATM    1  C   UNL     1      41.186  -6.807  16.145  1.00  0.00     0.135 C 
HETATM    2  N   UNL     1      42.032  -5.693  16.557  1.00  0.00    -0.214 N 
HETATM    3  C   UNL     1      41.748  -5.087  17.729  1.00  0.00     0.736 A 
HETATM    4  N   UNL     1      41.035  -5.728  18.708  1.00  0.00    -0.074 N 
HETATM    5  N   UNL     1      40.764  -4.899  19.732  1.00  0.00     0.037 NA
HETATM    6  C   UNL     1      41.410  -3.803  19.344  1.00  0.00     0.753 A 
HETATM    7  N   UNL     1      42.033  -3.877  18.134  1.00  0.00     0.131 NA
HETATM    8  C   UNL     1      40.435  -7.049  18.547  1.00  0.00     0.164 C 
HETATM    9  C   UNL     1      41.020  -7.781  17.324  1.00  0.00     0.063 C 
HETATM   10  H   UNL     1      42.335  -5.077  15.804  1.00  0.00     0.178 HD
ENDROOT
BRANCH   1  11
HETATM   11  C   UNL     1      41.791  -7.510  14.945  1.00  0.00    -0.035 A 
HETATM   12  C   UNL     1      42.900  -6.982  14.268  1.00  0.00     0.012 A 
HETATM   13  C   UNL     1      43.473  -7.671  13.197  1.00  0.00     0.037 A 
HETATM   14  C   UNL     1      42.959  -8.900  12.783  1.00  0.00     0.068 A 
HETATM   15  C   UNL     1      41.847  -9.427  13.438  1.00  0.00     0.037 A 
HETATM   16  C   UNL     1      41.268  -8.738  14.512  1.00  0.00     0.012 A 
BRANCH  14  17
HETATM   17  O   UNL     1      43.622  -9.476  11.735  1.00  0.00    -0.356 OA
HETATM   18  C   UNL     1      43.625 -10.896  11.683  1.00  0.00     0.210 C 
ENDBRANCH  14  17
ENDBRANCH   1  11
BRANCH   8  19
HETATM   19  C   UNL     1      40.571  -7.911  19.795  1.00  0.00    -0.031 A 
HETATM   20  C   UNL     1      41.814  -8.482  20.117  1.00  0.00     0.028 A 
HETATM   21  C   UNL     1      41.958  -9.246  21.276  1.00  0.00     0.011 A 
HETATM   22 BR   UNL     1      43.639 -10.005  21.693  1.00  0.00    -0.051 Br
HETATM   23  C   UNL     1      40.878  -9.450  22.132  1.00  0.00     0.019 A 
HETATM   24  C   UNL     1      39.641  -8.887  21.825  1.00  0.00     0.002 A 
HETATM   25  C   UNL     1      39.488  -8.121  20.667  1.00  0.00     0.009 A 
ENDBRANCH   8  19
BRANCH   6  26
HETATM   26  N   UNL     1      41.496  -2.672  20.039  1.00  0.00    -0.229 N 
HETATM   27  H   UNL     1      40.795  -2.525  20.751  1.00  0.00     0.174 HD
HETATM   28  H   UNL     1      42.426  -2.366  20.287  1.00  0.00     0.174 HD
ENDBRANCH   6  26
TORSDOF 4
ENDMDL
