MODEL 1
REMARK VINA RESULT:      -8.5      0.000      0.000
REMARK  5 active torsions:
REMARK  status: ('A' for Active; 'I' for Inactive)
REMARK    1  A    between atoms: C_5  and  C_6 
REMARK    2  A    between atoms: C_9  and  O_10 
REMARK    3  A    between atoms: N_14  and  C_15 
REMARK    4  A    between atoms: C_15  and  C_16 
REMARK       I    between atoms: C_16  and  N_17 
REMARK    5  A    between atoms: N_17  and  C_18 
ROOT
HETATM    1  C   UNL     1      40.706 -15.621   1.082  1.00  0.00     0.156 C 
HETATM    2  N   UNL     1      41.293 -15.607   2.400  1.00  0.00    -0.346 N 
HETATM    3  C   UNL     1      40.997 -14.740   3.395  1.00  0.00     0.113 A 
HETATM    4  C   UNL     1      41.799 -14.986   4.475  1.00  0.00     0.014 A 
HETATM    5  C   UNL     1      41.486 -14.045   5.581  1.00  0.00     0.158 A 
HETATM    6  N   UNL     1      40.333 -13.326   4.976  1.00  0.00    -0.325 N 
HETATM    7  C   UNL     1      40.042 -13.722   3.667  1.00  0.00     0.272 A 
HETATM    8  O   UNL     1      39.096 -13.374   2.982  1.00  0.00    -0.266 OA
HETATM    9  C   UNL     1      42.559 -16.136   4.199  1.00  0.00     0.002 A 
HETATM   10  C   UNL     1      42.230 -16.515   2.881  1.00  0.00     0.045 A 
HETATM   11  C   UNL     1      43.469 -16.923   4.930  1.00  0.00     0.014 A 
HETATM   12  C   UNL     1      44.028 -18.057   4.334  1.00  0.00     0.001 A 
HETATM   13  C   UNL     1      43.699 -18.411   3.028  1.00  0.00     0.002 A 
HETATM   14  C   UNL     1      42.800 -17.646   2.277  1.00  0.00     0.030 A 
ENDROOT
BRANCH   6  15
HETATM   15  C   UNL     1      39.379 -12.609   5.808  1.00  0.00     0.229 C 
BRANCH  15  16
HETATM   16  C   UNL     1      39.656 -11.097   5.835  1.00  0.00     0.235 C 
HETATM   17  N   UNL     1      40.365 -10.659   6.935  1.00  0.00    -0.355 N 
HETATM   18  H   UNL     1      40.409 -11.282   7.732  1.00  0.00     0.162 HD
HETATM   19  O   UNL     1      39.217 -10.339   4.974  1.00  0.00    -0.272 OA
BRANCH  17  20
HETATM   20  C   UNL     1      40.773  -9.275   7.130  1.00  0.00     0.084 C 
HETATM   21  C   UNL     1      40.021  -8.624   8.297  1.00  0.00     0.025 C 
HETATM   22  C   UNL     1      40.485  -9.132   9.662  1.00  0.00     0.002 C 
HETATM   23  C   UNL     1      41.999  -9.019   9.826  1.00  0.00     0.000 C 
HETATM   24  C   UNL     1      42.740  -9.723   8.696  1.00  0.00     0.002 C 
HETATM   25  C   UNL     1      42.294  -9.206   7.328  1.00  0.00     0.025 C 
ENDBRANCH  17  20
ENDBRANCH  15  16
ENDBRANCH   6  15
BRANCH   5  26
HETATM   26  C   UNL     1      42.720 -13.189   5.776  1.00  0.00    -0.030 A 
HETATM   27  C   UNL     1      43.519 -13.264   6.927  1.00  0.00     0.012 A 
HETATM   28  C   UNL     1      44.628 -12.430   7.086  1.00  0.00     0.037 A 
HETATM   29  C   UNL     1      44.967 -11.497   6.106  1.00  0.00     0.068 A 
HETATM   30  C   UNL     1      44.186 -11.412   4.956  1.00  0.00     0.037 A 
HETATM   31  C   UNL     1      43.076 -12.252   4.791  1.00  0.00     0.012 A 
BRANCH  29  32
HETATM   32  O   UNL     1      46.065 -10.735   6.397  1.00  0.00    -0.356 OA
HETATM   33  C   UNL     1      46.304 -10.446   7.767  1.00  0.00     0.210 C 
ENDBRANCH  29  32
ENDBRANCH   5  26
TORSDOF 5
ENDMDL
MODEL 2
REMARK VINA RESULT:      -8.5      3.124      6.174
REMARK  5 active torsions:
REMARK  status: ('A' for Active; 'I' for Inactive)
REMARK    1  A    between atoms: C_5  and  C_6 
REMARK    2  A    between atoms: C_9  and  O_10 
REMARK    3  A    between atoms: N_14  and  C_15 
REMARK    4  A    between atoms: C_15  and  C_16 
REMARK       I    between atoms: C_16  and  N_17 
REMARK    5  A    between atoms: N_17  and  C_18 
ROOT
HETATM    1  C   UNL     1      41.662  -9.837   0.088  1.00  0.00     0.156 C 
HETATM    2  N   UNL     1      41.161 -11.189   0.157  1.00  0.00    -0.346 N 
HETATM    3  C   UNL     1      40.920 -11.892   1.287  1.00  0.00     0.113 A 
HETATM    4  C   UNL     1      40.518 -13.159   0.964  1.00  0.00     0.014 A 
HETATM    5  C   UNL     1      40.246 -13.947   2.193  1.00  0.00     0.158 A 
HETATM    6  N   UNL     1      40.462 -12.892   3.218  1.00  0.00    -0.325 N 
HETATM    7  C   UNL     1      40.878 -11.667   2.690  1.00  0.00     0.272 A 
HETATM    8  O   UNL     1      41.024 -10.615   3.288  1.00  0.00    -0.266 OA
HETATM    9  C   UNL     1      40.384 -13.230  -0.434  1.00  0.00     0.002 A 
HETATM   10  C   UNL     1      40.798 -11.976  -0.930  1.00  0.00     0.045 A 
HETATM   11  C   UNL     1      39.926 -14.206  -1.339  1.00  0.00     0.014 A 
HETATM   12  C   UNL     1      39.896 -13.914  -2.706  1.00  0.00     0.001 A 
HETATM   13  C   UNL     1      40.317 -12.674  -3.178  1.00  0.00     0.002 A 
HETATM   14  C   UNL     1      40.778 -11.686  -2.303  1.00  0.00     0.030 A 
ENDROOT
BRANCH   6  15
HETATM   15  C   UNL     1      39.894 -13.019   4.552  1.00  0.00     0.229 C 
BRANCH  15  16
HETATM   16  C   UNL     1      40.981 -13.092   5.638  1.00  0.00     0.235 C 
HETATM   17  N   UNL     1      41.343 -14.371   6.007  1.00  0.00    -0.355 N 
HETATM   18  H   UNL     1      40.711 -15.120   5.751  1.00  0.00     0.162 HD
HETATM   19  O   UNL     1      41.433 -12.084   6.176  1.00  0.00    -0.272 OA
BRANCH  17  20
HETATM   20  C   UNL     1      42.385 -14.663   6.981  1.00  0.00     0.084 C 
HETATM   21  C   UNL     1      42.291 -16.105   7.493  1.00  0.00     0.025 C 
HETATM   22  C   UNL     1      42.736 -17.135   6.454  1.00  0.00     0.002 C 
HETATM   23  C   UNL     1      44.121 -16.818   5.896  1.00  0.00     0.000 C 
HETATM   24  C   UNL     1      44.188 -15.403   5.332  1.00  0.00     0.002 C 
HETATM   25  C   UNL     1      43.763 -14.367   6.372  1.00  0.00     0.025 C 
ENDBRANCH  17  20
ENDBRANCH  15  16
ENDBRANCH   6  15
BRANCH   5  26
HETATM   26  C   UNL     1      41.271 -15.062   2.222  1.00  0.00    -0.030 A 
HETATM   27  C   UNL     1      41.020 -16.307   2.820  1.00  0.00     0.012 A 
HETATM   28  C   UNL     1      42.007 -17.295   2.860  1.00  0.00     0.037 A 
HETATM   29  C   UNL     1      43.269 -17.068   2.311  1.00  0.00     0.068 A 
HETATM   30  C   UNL     1      43.533 -15.839   1.711  1.00  0.00     0.037 A 
HETATM   31  C   UNL     1      42.543 -14.848   1.663  1.00  0.00     0.012 A 
BRANCH  29  32
HETATM   32  O   UNL     1      44.142 -18.113   2.433  1.00  0.00    -0.356 OA
HETATM   33  C   UNL     1      43.648 -19.297   3.043  1.00  0.00     0.210 C 
ENDBRANCH  29  32
ENDBRANCH   5  26
TORSDOF 5
ENDMDL
MODEL 3
REMARK VINA RESULT:      -8.2      2.079      6.960
REMARK  5 active torsions:
REMARK  status: ('A' for Active; 'I' for Inactive)
REMARK    1  A    between atoms: C_5  and  C_6 
REMARK    2  A    between atoms: C_9  and  O_10 
REMARK    3  A    between atoms: N_14  and  C_15 
REMARK    4  A    between atoms: C_15  and  C_16 
REMARK       I    between atoms: C_16  and  N_17 
REMARK    5  A    between atoms: N_17  and  C_18 
ROOT
HETATM    1  C   UNL     1      41.336  -8.594   8.909  1.00  0.00     0.156 C 
HETATM    2  N   UNL     1      42.172  -9.445   8.097  1.00  0.00    -0.346 N 
HETATM    3  C   UNL     1      41.759 -10.222   7.070  1.00  0.00     0.113 A 
HETATM    4  C   UNL     1      42.816 -10.940   6.581  1.00  0.00     0.014 A 
HETATM    5  C   UNL     1      42.383 -11.798   5.450  1.00  0.00     0.158 A 
HETATM    6  N   UNL     1      40.966 -11.363   5.336  1.00  0.00    -0.325 N 
HETATM    7  C   UNL     1      40.579 -10.435   6.306  1.00  0.00     0.272 A 
HETATM    8  O   UNL     1      39.517  -9.840   6.380  1.00  0.00    -0.266 OA
HETATM    9  C   UNL     1      43.977 -10.514   7.250  1.00  0.00     0.002 A 
HETATM   10  C   UNL     1      43.553  -9.570   8.208  1.00  0.00     0.045 A 
HETATM   11  C   UNL     1      45.351 -10.796   7.131  1.00  0.00     0.014 A 
HETATM   12  C   UNL     1      46.261 -10.141   7.966  1.00  0.00     0.001 A 
HETATM   13  C   UNL     1      45.823  -9.219   8.913  1.00  0.00     0.002 A 
HETATM   14  C   UNL     1      44.464  -8.921   9.055  1.00  0.00     0.030 A 
ENDROOT
BRANCH   6  15
HETATM   15  C   UNL     1      40.217 -11.569   4.105  1.00  0.00     0.229 C 
BRANCH  15  16
HETATM   16  C   UNL     1      41.121 -12.027   2.948  1.00  0.00     0.235 C 
HETATM   17  N   UNL     1      41.110 -13.386   2.711  1.00  0.00    -0.355 N 
HETATM   18  H   UNL     1      40.746 -13.979   3.446  1.00  0.00     0.162 HD
HETATM   19  O   UNL     1      41.842 -11.243   2.336  1.00  0.00    -0.272 OA
BRANCH  17  20
HETATM   20  C   UNL     1      41.856 -14.020   1.633  1.00  0.00     0.084 C 
HETATM   21  C   UNL     1      43.252 -14.456   2.092  1.00  0.00     0.025 C 
HETATM   22  C   UNL     1      43.221 -15.673   3.017  1.00  0.00     0.002 C 
HETATM   23  C   UNL     1      42.436 -16.831   2.407  1.00  0.00     0.000 C 
HETATM   24  C   UNL     1      41.027 -16.406   2.011  1.00  0.00     0.002 C 
HETATM   25  C   UNL     1      41.051 -15.200   1.070  1.00  0.00     0.025 C 
ENDBRANCH  17  20
ENDBRANCH  15  16
ENDBRANCH   6  15
BRANCH   5  26
HETATM   26  C   UNL     1      42.559 -13.231   5.908  1.00  0.00    -0.030 A 
HETATM   27  C   UNL     1      41.473 -14.083   6.165  1.00  0.00     0.012 A 
HETATM   28  C   UNL     1      41.677 -15.386   6.624  1.00  0.00     0.037 A 
HETATM   29  C   UNL     1      42.966 -15.873   6.844  1.00  0.00     0.068 A 
HETATM   30  C   UNL     1      44.054 -15.042   6.591  1.00  0.00     0.037 A 
HETATM   31  C   UNL     1      43.853 -13.735   6.124  1.00  0.00     0.012 A 
BRANCH  29  32
HETATM   32  O   UNL     1      43.020 -17.158   7.307  1.00  0.00    -0.356 OA
HETATM   33  C   UNL     1      43.288 -18.176   6.354  1.00  0.00     0.210 C 
ENDBRANCH  29  32
ENDBRANCH   5  26
TORSDOF 5
ENDMDL
MODEL 4
REMARK VINA RESULT:      -8.1      2.849      7.313
REMARK  5 active torsions:
REMARK  status: ('A' for Active; 'I' for Inactive)
REMARK    1  A    between atoms: C_5  and  C_6 
REMARK    2  A    between atoms: C_9  and  O_10 
REMARK    3  A    between atoms: N_14  and  C_15 
REMARK    4  A    between atoms: C_15  and  C_16 
REMARK       I    between atoms: C_16  and  N_17 
REMARK    5  A    between atoms: N_17  and  C_18 
ROOT
HETATM    1  C   UNL     1      40.115 -10.785   6.501  1.00  0.00     0.156 C 
HETATM    2  N   UNL     1      41.252 -11.555   6.056  1.00  0.00    -0.346 N 
HETATM    3  C   UNL     1      41.235 -12.535   5.125  1.00  0.00     0.113 A 
HETATM    4  C   UNL     1      42.482 -13.086   5.013  1.00  0.00     0.014 A 
HETATM    5  C   UNL     1      42.485 -14.164   3.992  1.00  0.00     0.158 A 
HETATM    6  N   UNL     1      41.087 -14.045   3.501  1.00  0.00    -0.325 N 
HETATM    7  C   UNL     1      40.328 -13.087   4.179  1.00  0.00     0.272 A 
HETATM    8  O   UNL     1      39.198 -12.715   3.914  1.00  0.00    -0.266 OA
HETATM    9  C   UNL     1      43.359 -12.344   5.825  1.00  0.00     0.002 A 
HETATM   10  C   UNL     1      42.565 -11.381   6.481  1.00  0.00     0.045 A 
HETATM   11  C   UNL     1      44.748 -12.357   6.055  1.00  0.00     0.014 A 
HETATM   12  C   UNL     1      45.307 -11.421   6.930  1.00  0.00     0.001 A 
HETATM   13  C   UNL     1      44.505 -10.483   7.576  1.00  0.00     0.002 A 
HETATM   14  C   UNL     1      43.123 -10.449   7.368  1.00  0.00     0.030 A 
ENDROOT
BRANCH   6  15
HETATM   15  C   UNL     1      40.705 -14.568   2.198  1.00  0.00     0.229 C 
BRANCH  15  16
HETATM   16  C   UNL     1      40.911 -13.535   1.077  1.00  0.00     0.235 C 
HETATM   17  N   UNL     1      40.256 -13.824  -0.102  1.00  0.00    -0.355 N 
HETATM   18  H   UNL     1      39.932 -14.776  -0.227  1.00  0.00     0.162 HD
HETATM   19  O   UNL     1      41.657 -12.568   1.211  1.00  0.00    -0.272 OA
BRANCH  17  20
HETATM   20  C   UNL     1      40.278 -12.955  -1.270  1.00  0.00     0.084 C 
HETATM   21  C   UNL     1      40.333 -13.761  -2.573  1.00  0.00     0.025 C 
HETATM   22  C   UNL     1      39.009 -14.452  -2.901  1.00  0.00     0.002 C 
HETATM   23  C   UNL     1      37.838 -13.474  -2.886  1.00  0.00     0.000 C 
HETATM   24  C   UNL     1      37.752 -12.722  -1.563  1.00  0.00     0.002 C 
HETATM   25  C   UNL     1      39.067 -12.012  -1.238  1.00  0.00     0.025 C 
ENDBRANCH  17  20
ENDBRANCH  15  16
ENDBRANCH   6  15
BRANCH   5  26
HETATM   26  C   UNL     1      42.777 -15.453   4.732  1.00  0.00    -0.030 A 
HETATM   27  C   UNL     1      43.526 -16.497   4.168  1.00  0.00     0.012 A 
HETATM   28  C   UNL     1      43.740 -17.687   4.869  1.00  0.00     0.037 A 
HETATM   29  C   UNL     1      43.210 -17.868   6.147  1.00  0.00     0.068 A 
HETATM   30  C   UNL     1      42.467 -16.840   6.722  1.00  0.00     0.037 A 
HETATM   31  C   UNL     1      42.256 -15.643   6.024  1.00  0.00     0.012 A 
BRANCH  29  32
HETATM   32  O   UNL     1      43.482 -19.083   6.711  1.00  0.00    -0.356 OA
HETATM   33  C   UNL     1      43.727 -20.166   5.824  1.00  0.00     0.210 C 
ENDBRANCH  29  32
ENDBRANCH   5  26
TORSDOF 5
ENDMDL
MODEL 5
REMARK VINA RESULT:      -7.9      2.149      4.596
REMARK  5 active torsions:
REMARK  status: ('A' for Active; 'I' for Inactive)
REMARK    1  A    between atoms: C_5  and  C_6 
REMARK    2  A    between atoms: C_9  and  O_10 
REMARK    3  A    between atoms: N_14  and  C_15 
REMARK    4  A    between atoms: C_15  and  C_16 
REMARK       I    between atoms: C_16  and  N_17 
REMARK    5  A    between atoms: N_17  and  C_18 
ROOT
HETATM    1  C   UNL     1      43.263 -16.778   7.081  1.00  0.00     0.156 C 
HETATM    2  N   UNL     1      43.224 -16.031   5.847  1.00  0.00    -0.346 N 
HETATM    3  C   UNL     1      43.198 -14.684   5.731  1.00  0.00     0.113 A 
HETATM    4  C   UNL     1      43.093 -14.336   4.412  1.00  0.00     0.014 A 
HETATM    5  C   UNL     1      43.066 -12.859   4.264  1.00  0.00     0.158 A 
HETATM    6  N   UNL     1      43.271 -12.463   5.683  1.00  0.00    -0.325 N 
HETATM    7  C   UNL     1      43.337 -13.542   6.568  1.00  0.00     0.272 A 
HETATM    8  O   UNL     1      43.601 -13.509   7.757  1.00  0.00    -0.266 OA
HETATM    9  C   UNL     1      43.175 -15.512   3.645  1.00  0.00     0.002 A 
HETATM   10  C   UNL     1      43.254 -16.576   4.568  1.00  0.00     0.045 A 
HETATM   11  C   UNL     1      43.224 -15.797   2.268  1.00  0.00     0.014 A 
HETATM   12  C   UNL     1      43.346 -17.124   1.845  1.00  0.00     0.001 A 
HETATM   13  C   UNL     1      43.413 -18.162   2.770  1.00  0.00     0.002 A 
HETATM   14  C   UNL     1      43.364 -17.909   4.145  1.00  0.00     0.030 A 
ENDROOT
BRANCH   6  15
HETATM   15  C   UNL     1      43.766 -11.138   6.024  1.00  0.00     0.229 C 
BRANCH  15  16
HETATM   16  C   UNL     1      42.762 -10.349   6.881  1.00  0.00     0.235 C 
HETATM   17  N   UNL     1      41.671  -9.861   6.191  1.00  0.00    -0.355 N 
HETATM   18  H   UNL     1      41.745  -9.823   5.182  1.00  0.00     0.162 HD
HETATM   19  O   UNL     1      42.961 -10.120   8.072  1.00  0.00    -0.272 OA
BRANCH  17  20
HETATM   20  C   UNL     1      40.581  -9.130   6.821  1.00  0.00     0.084 C 
HETATM   21  C   UNL     1      40.026  -8.039   5.899  1.00  0.00     0.025 C 
HETATM   22  C   UNL     1      39.204  -8.602   4.739  1.00  0.00     0.002 C 
HETATM   23  C   UNL     1      38.110  -9.549   5.223  1.00  0.00     0.000 C 
HETATM   24  C   UNL     1      38.679 -10.668   6.088  1.00  0.00     0.002 C 
HETATM   25  C   UNL     1      39.485 -10.111   7.261  1.00  0.00     0.025 C 
ENDBRANCH  17  20
ENDBRANCH  15  16
ENDBRANCH   6  15
BRANCH   5  26
HETATM   26  C   UNL     1      41.698 -12.510   3.713  1.00  0.00    -0.030 A 
HETATM   27  C   UNL     1      40.561 -13.297   3.956  1.00  0.00     0.012 A 
HETATM   28  C   UNL     1      39.325 -12.962   3.397  1.00  0.00     0.037 A 
HETATM   29  C   UNL     1      39.191 -11.840   2.580  1.00  0.00     0.068 A 
HETATM   30  C   UNL     1      40.309 -11.047   2.331  1.00  0.00     0.037 A 
HETATM   31  C   UNL     1      41.549 -11.377   2.896  1.00  0.00     0.012 A 
BRANCH  29  32
HETATM   32  O   UNL     1      37.931 -11.638   2.088  1.00  0.00    -0.356 OA
HETATM   33  C   UNL     1      37.671 -10.383   1.476  1.00  0.00     0.210 C 
ENDBRANCH  29  32
ENDBRANCH   5  26
TORSDOF 5
ENDMDL
MODEL 6
REMARK VINA RESULT:      -7.8      3.216      5.835
REMARK  5 active torsions:
REMARK  status: ('A' for Active; 'I' for Inactive)
REMARK    1  A    between atoms: C_5  and  C_6 
REMARK    2  A    between atoms: C_9  and  O_10 
REMARK    3  A    between atoms: N_14  and  C_15 
REMARK    4  A    between atoms: C_15  and  C_16 
REMARK       I    between atoms: C_16  and  N_17 
REMARK    5  A    between atoms: N_17  and  C_18 
ROOT
HETATM    1  C   UNL     1      42.411 -16.067   7.139  1.00  0.00     0.156 C 
HETATM    2  N   UNL     1      42.766 -16.000   5.741  1.00  0.00    -0.346 N 
HETATM    3  C   UNL     1      42.793 -14.883   4.980  1.00  0.00     0.113 A 
HETATM    4  C   UNL     1      43.108 -15.212   3.689  1.00  0.00     0.014 A 
HETATM    5  C   UNL     1      43.146 -13.997   2.837  1.00  0.00     0.158 A 
HETATM    6  N   UNL     1      42.906 -12.958   3.873  1.00  0.00    -0.325 N 
HETATM    7  C   UNL     1      42.680 -13.476   5.152  1.00  0.00     0.272 A 
HETATM    8  O   UNL     1      42.562 -12.852   6.192  1.00  0.00    -0.266 OA
HETATM    9  C   UNL     1      43.409 -16.585   3.653  1.00  0.00     0.002 A 
HETATM   10  C   UNL     1      43.185 -17.070   4.958  1.00  0.00     0.045 A 
HETATM   11  C   UNL     1      43.881 -17.472   2.666  1.00  0.00     0.014 A 
HETATM   12  C   UNL     1      44.112 -18.810   2.999  1.00  0.00     0.001 A 
HETATM   13  C   UNL     1      43.876 -19.272   4.291  1.00  0.00     0.002 A 
HETATM   14  C   UNL     1      43.405 -18.415   5.291  1.00  0.00     0.030 A 
ENDROOT
BRANCH   6  15
HETATM   15  C   UNL     1      43.285 -11.573   3.644  1.00  0.00     0.229 C 
BRANCH  15  16
HETATM   16  C   UNL     1      42.096 -10.612   3.810  1.00  0.00     0.235 C 
HETATM   17  N   UNL     1      41.073 -10.798   2.903  1.00  0.00    -0.355 N 
HETATM   18  H   UNL     1      41.287 -11.337   2.073  1.00  0.00     0.162 HD
HETATM   19  O   UNL     1      42.099  -9.710   4.643  1.00  0.00    -0.272 OA
BRANCH  17  20
HETATM   20  C   UNL     1      39.837 -10.029   2.915  1.00  0.00     0.084 C 
HETATM   21  C   UNL     1      39.646  -9.247   1.610  1.00  0.00     0.025 C 
HETATM   22  C   UNL     1      39.277 -10.143   0.428  1.00  0.00     0.002 C 
HETATM   23  C   UNL     1      38.075 -11.031   0.740  1.00  0.00     0.000 C 
HETATM   24  C   UNL     1      38.299 -11.852   2.005  1.00  0.00     0.002 C 
HETATM   25  C   UNL     1      38.649 -10.960   3.196  1.00  0.00     0.025 C 
ENDBRANCH  17  20
ENDBRANCH  15  16
ENDBRANCH   6  15
BRANCH   5  26
HETATM   26  C   UNL     1      42.022 -14.145   1.832  1.00  0.00    -0.030 A 
HETATM   27  C   UNL     1      41.116 -15.217   1.861  1.00  0.00     0.012 A 
HETATM   28  C   UNL     1      40.116 -15.339   0.893  1.00  0.00     0.037 A 
HETATM   29  C   UNL     1      39.995 -14.399  -0.130  1.00  0.00     0.068 A 
HETATM   30  C   UNL     1      40.884 -13.327  -0.172  1.00  0.00     0.037 A 
HETATM   31  C   UNL     1      41.884 -13.199   0.802  1.00  0.00     0.012 A 
BRANCH  29  32
HETATM   32  O   UNL     1      38.985 -14.646  -1.017  1.00  0.00    -0.356 OA
HETATM   33  C   UNL     1      39.088 -14.039  -2.298  1.00  0.00     0.210 C 
ENDBRANCH  29  32
ENDBRANCH   5  26
TORSDOF 5
ENDMDL
MODEL 7
REMARK VINA RESULT:      -7.6      2.739      7.327
REMARK  5 active torsions:
REMARK  status: ('A' for Active; 'I' for Inactive)
REMARK    1  A    between atoms: C_5  and  C_6 
REMARK    2  A    between atoms: C_9  and  O_10 
REMARK    3  A    between atoms: N_14  and  C_15 
REMARK    4  A    between atoms: C_15  and  C_16 
REMARK       I    between atoms: C_16  and  N_17 
REMARK    5  A    between atoms: N_17  and  C_18 
ROOT
HETATM    1  C   UNL     1      41.142  -9.668   7.571  1.00  0.00     0.156 C 
HETATM    2  N   UNL     1      42.126 -10.273   6.706  1.00  0.00    -0.346 N 
HETATM    3  C   UNL     1      41.923 -10.684   5.434  1.00  0.00     0.113 A 
HETATM    4  C   UNL     1      43.061 -11.270   4.952  1.00  0.00     0.014 A 
HETATM    5  C   UNL     1      42.860 -11.726   3.553  1.00  0.00     0.158 A 
HETATM    6  N   UNL     1      41.485 -11.211   3.320  1.00  0.00    -0.325 N 
HETATM    7  C   UNL     1      40.911 -10.600   4.439  1.00  0.00     0.272 A 
HETATM    8  O   UNL     1      39.848 -10.007   4.494  1.00  0.00    -0.266 OA
HETATM    9  C   UNL     1      44.071 -11.120   5.920  1.00  0.00     0.002 A 
HETATM   10  C   UNL     1      43.462 -10.490   7.025  1.00  0.00     0.045 A 
HETATM   11  C   UNL     1      45.445 -11.418   5.975  1.00  0.00     0.014 A 
HETATM   12  C   UNL     1      46.174 -11.088   7.121  1.00  0.00     0.001 A 
HETATM   13  C   UNL     1      45.554 -10.475   8.207  1.00  0.00     0.002 A 
HETATM   14  C   UNL     1      44.190 -10.169   8.181  1.00  0.00     0.030 A 
ENDROOT
BRANCH   6  15
HETATM   15  C   UNL     1      40.985 -11.000   1.970  1.00  0.00     0.229 C 
BRANCH  15  16
HETATM   16  C   UNL     1      39.989 -12.092   1.545  1.00  0.00     0.235 C 
HETATM   17  N   UNL     1      39.666 -12.088   0.203  1.00  0.00    -0.355 N 
HETATM   18  H   UNL     1      39.880 -11.247  -0.319  1.00  0.00     0.162 HD
HETATM   19  O   UNL     1      39.476 -12.857   2.357  1.00  0.00    -0.272 OA
BRANCH  17  20
HETATM   20  C   UNL     1      38.780 -13.065  -0.414  1.00  0.00     0.084 C 
HETATM   21  C   UNL     1      37.885 -12.422  -1.480  1.00  0.00     0.025 C 
HETATM   22  C   UNL     1      38.647 -12.054  -2.753  1.00  0.00     0.002 C 
HETATM   23  C   UNL     1      39.431 -13.239  -3.309  1.00  0.00     0.000 C 
HETATM   24  C   UNL     1      40.366 -13.834  -2.262  1.00  0.00     0.002 C 
HETATM   25  C   UNL     1      39.607 -14.222  -0.993  1.00  0.00     0.025 C 
ENDBRANCH  17  20
ENDBRANCH  15  16
ENDBRANCH   6  15
BRANCH   5  26
HETATM   26  C   UNL     1      42.963 -13.236   3.577  1.00  0.00    -0.030 A 
HETATM   27  C   UNL     1      42.867 -13.983   4.762  1.00  0.00     0.012 A 
HETATM   28  C   UNL     1      43.005 -15.373   4.747  1.00  0.00     0.037 A 
HETATM   29  C   UNL     1      43.248 -16.055   3.554  1.00  0.00     0.068 A 
HETATM   30  C   UNL     1      43.343 -15.329   2.369  1.00  0.00     0.037 A 
HETATM   31  C   UNL     1      43.198 -13.934   2.380  1.00  0.00     0.012 A 
BRANCH  29  32
HETATM   32  O   UNL     1      43.378 -17.409   3.686  1.00  0.00    -0.356 OA
HETATM   33  C   UNL     1      43.269 -18.185   2.500  1.00  0.00     0.210 C 
ENDBRANCH  29  32
ENDBRANCH   5  26
TORSDOF 5
ENDMDL
MODEL 8
REMARK VINA RESULT:      -7.6      2.227      4.324
REMARK  5 active torsions:
REMARK  status: ('A' for Active; 'I' for Inactive)
REMARK    1  A    between atoms: C_5  and  C_6 
REMARK    2  A    between atoms: C_9  and  O_10 
REMARK    3  A    between atoms: N_14  and  C_15 
REMARK    4  A    between atoms: C_15  and  C_16 
REMARK       I    between atoms: C_16  and  N_17 
REMARK    5  A    between atoms: N_17  and  C_18 
ROOT
HETATM    1  C   UNL     1      43.023 -16.788   6.702  1.00  0.00     0.156 C 
HETATM    2  N   UNL     1      43.050 -15.848   5.607  1.00  0.00    -0.346 N 
HETATM    3  C   UNL     1      43.070 -14.500   5.714  1.00  0.00     0.113 A 
HETATM    4  C   UNL     1      43.022 -13.938   4.468  1.00  0.00     0.014 A 
HETATM    5  C   UNL     1      43.046 -12.456   4.565  1.00  0.00     0.158 A 
HETATM    6  N   UNL     1      43.214 -12.305   6.034  1.00  0.00    -0.325 N 
HETATM    7  C   UNL     1      43.215 -13.517   6.732  1.00  0.00     0.272 A 
HETATM    8  O   UNL     1      43.438 -13.688   7.917  1.00  0.00    -0.266 OA
HETATM    9  C   UNL     1      43.094 -14.974   3.521  1.00  0.00     0.002 A 
HETATM   10  C   UNL     1      43.108 -16.177   4.257  1.00  0.00     0.045 A 
HETATM   11  C   UNL     1      43.183 -15.031   2.117  1.00  0.00     0.014 A 
HETATM   12  C   UNL     1      43.279 -16.275   1.485  1.00  0.00     0.001 A 
HETATM   13  C   UNL     1      43.281 -17.452   2.228  1.00  0.00     0.002 A 
HETATM   14  C   UNL     1      43.192 -17.426   3.623  1.00  0.00     0.030 A 
ENDROOT
BRANCH   6  15
HETATM   15  C   UNL     1      43.737 -11.073   6.604  1.00  0.00     0.229 C 
BRANCH  15  16
HETATM   16  C   UNL     1      42.623 -10.184   7.183  1.00  0.00     0.235 C 
HETATM   17  N   UNL     1      42.662 -10.029   8.553  1.00  0.00    -0.355 N 
HETATM   18  H   UNL     1      43.220 -10.693   9.076  1.00  0.00     0.162 HD
HETATM   19  O   UNL     1      41.735  -9.712   6.478  1.00  0.00    -0.272 OA
BRANCH  17  20
HETATM   20  C   UNL     1      41.730  -9.191   9.295  1.00  0.00     0.084 C 
HETATM   21  C   UNL     1      41.534  -9.696  10.728  1.00  0.00     0.025 C 
HETATM   22  C   UNL     1      42.746  -9.435  11.623  1.00  0.00     0.002 C 
HETATM   23  C   UNL     1      43.172  -7.970  11.589  1.00  0.00     0.000 C 
HETATM   24  C   UNL     1      43.427  -7.492  10.164  1.00  0.00     0.002 C 
HETATM   25  C   UNL     1      42.211  -7.733   9.269  1.00  0.00     0.025 C 
ENDBRANCH  17  20
ENDBRANCH  15  16
ENDBRANCH   6  15
BRANCH   5  26
HETATM   26  C   UNL     1      41.710 -11.972   4.039  1.00  0.00    -0.030 A 
HETATM   27  C   UNL     1      40.487 -12.503   4.477  1.00  0.00     0.012 A 
HETATM   28  C   UNL     1      39.277 -12.056   3.939  1.00  0.00     0.037 A 
HETATM   29  C   UNL     1      39.255 -11.075   2.947  1.00  0.00     0.068 A 
HETATM   30  C   UNL     1      40.461 -10.536   2.503  1.00  0.00     0.037 A 
HETATM   31  C   UNL     1      41.675 -10.978   3.046  1.00  0.00     0.012 A 
BRANCH  29  32
HETATM   32  O   UNL     1      38.007 -10.743   2.499  1.00  0.00    -0.356 OA
HETATM   33  C   UNL     1      37.606 -11.286   1.249  1.00  0.00     0.210 C 
ENDBRANCH  29  32
ENDBRANCH   5  26
TORSDOF 5
ENDMDL
MODEL 9
REMARK VINA RESULT:      -7.6      2.225      4.805
REMARK  5 active torsions:
REMARK  status: ('A' for Active; 'I' for Inactive)
REMARK    1  A    between atoms: C_5  and  C_6 
REMARK    2  A    between atoms: C_9  and  O_10 
REMARK    3  A    between atoms: N_14  and  C_15 
REMARK    4  A    between atoms: C_15  and  C_16 
REMARK       I    between atoms: C_16  and  N_17 
REMARK    5  A    between atoms: N_17  and  C_18 
ROOT
HETATM    1  C   UNL     1      42.774 -16.498   6.877  1.00  0.00     0.156 C 
HETATM    2  N   UNL     1      42.909 -15.954   5.547  1.00  0.00    -0.346 N 
HETATM    3  C   UNL     1      42.931 -14.643   5.221  1.00  0.00     0.113 A 
HETATM    4  C   UNL     1      43.001 -14.507   3.861  1.00  0.00     0.014 A 
HETATM    5  C   UNL     1      43.029 -13.071   3.482  1.00  0.00     0.158 A 
HETATM    6  N   UNL     1      43.066 -12.458   4.837  1.00  0.00    -0.325 N 
HETATM    7  C   UNL     1      42.993 -13.384   5.880  1.00  0.00     0.272 A 
HETATM    8  O   UNL     1      43.107 -13.165   7.074  1.00  0.00    -0.266 OA
HETATM    9  C   UNL     1      43.148 -15.789   3.303  1.00  0.00     0.002 A 
HETATM   10  C   UNL     1      43.085 -16.695   4.383  1.00  0.00     0.045 A 
HETATM   11  C   UNL     1      43.363 -16.288   2.005  1.00  0.00     0.014 A 
HETATM   12  C   UNL     1      43.503 -17.665   1.813  1.00  0.00     0.001 A 
HETATM   13  C   UNL     1      43.428 -18.545   2.890  1.00  0.00     0.002 A 
HETATM   14  C   UNL     1      43.214 -18.079   4.190  1.00  0.00     0.030 A 
ENDROOT
BRANCH   6  15
HETATM   15  C   UNL     1      43.547 -11.098   5.028  1.00  0.00     0.229 C 
BRANCH  15  16
HETATM   16  C   UNL     1      44.551 -10.997   6.188  1.00  0.00     0.235 C 
HETATM   17  N   UNL     1      44.072 -10.353   7.311  1.00  0.00    -0.355 N 
HETATM   18  H   UNL     1      43.241  -9.786   7.197  1.00  0.00     0.162 HD
HETATM   19  O   UNL     1      45.706 -11.400   6.087  1.00  0.00    -0.272 OA
BRANCH  17  20
HETATM   20  C   UNL     1      44.842 -10.193   8.537  1.00  0.00     0.084 C 
HETATM   21  C   UNL     1      45.406  -8.773   8.667  1.00  0.00     0.025 C 
HETATM   22  C   UNL     1      44.334  -7.736   9.004  1.00  0.00     0.002 C 
HETATM   23  C   UNL     1      43.517  -8.140  10.229  1.00  0.00     0.000 C 
HETATM   24  C   UNL     1      42.908  -9.527  10.064  1.00  0.00     0.002 C 
HETATM   25  C   UNL     1      43.977 -10.573   9.746  1.00  0.00     0.025 C 
ENDBRANCH  17  20
ENDBRANCH  15  16
ENDBRANCH   6  15
BRANCH   5  26
HETATM   26  C   UNL     1      41.751 -12.807   2.714  1.00  0.00    -0.030 A 
HETATM   27  C   UNL     1      40.571 -12.369   3.336  1.00  0.00     0.012 A 
HETATM   28  C   UNL     1      39.401 -12.174   2.597  1.00  0.00     0.037 A 
HETATM   29  C   UNL     1      39.375 -12.414   1.223  1.00  0.00     0.068 A 
HETATM   30  C   UNL     1      40.539 -12.846   0.590  1.00  0.00     0.037 A 
HETATM   31  C   UNL     1      41.716 -13.036   1.328  1.00  0.00     0.012 A 
BRANCH  29  32
HETATM   32  O   UNL     1      38.164 -12.198   0.628  1.00  0.00    -0.356 OA
HETATM   33  C   UNL     1      37.283 -11.287   1.271  1.00  0.00     0.210 C 
ENDBRANCH  29  32
ENDBRANCH   5  26
TORSDOF 5
ENDMDL
MODEL 10
REMARK VINA RESULT:      -7.5     17.331     20.217
REMARK  5 active torsions:
REMARK  status: ('A' for Active; 'I' for Inactive)
REMARK    1  A    between atoms: C_5  and  C_6 
REMARK    2  A    between atoms: C_9  and  O_10 
REMARK    3  A    between atoms: N_14  and  C_15 
REMARK    4  A    between atoms: C_15  and  C_16 
REMARK       I    between atoms: C_16  and  N_17 
REMARK    5  A    between atoms: N_17  and  C_18 
ROOT
HETATM    1  C   UNL     1      47.063 -33.879  -4.393  1.00  0.00     0.156 C 
HETATM    2  N   UNL     1      46.902 -32.507  -3.974  1.00  0.00    -0.346 N 
HETATM    3  C   UNL     1      47.738 -31.818  -3.166  1.00  0.00     0.113 A 
HETATM    4  C   UNL     1      47.228 -30.570  -2.932  1.00  0.00     0.014 A 
HETATM    5  C   UNL     1      48.135 -29.794  -2.049  1.00  0.00     0.158 A 
HETATM    6  N   UNL     1      49.252 -30.768  -1.923  1.00  0.00    -0.325 N 
HETATM    7  C   UNL     1      49.020 -31.983  -2.573  1.00  0.00     0.272 A 
HETATM    8  O   UNL     1      49.802 -32.906  -2.718  1.00  0.00    -0.266 OA
HETATM    9  C   UNL     1      46.074 -30.417  -3.722  1.00  0.00     0.002 A 
HETATM   10  C   UNL     1      45.879 -31.653  -4.372  1.00  0.00     0.045 A 
HETATM   11  C   UNL     1      45.186 -29.358  -3.986  1.00  0.00     0.014 A 
HETATM   12  C   UNL     1      44.130 -29.555  -4.882  1.00  0.00     0.001 A 
HETATM   13  C   UNL     1      43.948 -30.785  -5.508  1.00  0.00     0.002 A 
HETATM   14  C   UNL     1      44.813 -31.856  -5.262  1.00  0.00     0.030 A 
ENDROOT
BRANCH   6  15
HETATM   15  C   UNL     1      50.583 -30.331  -1.530  1.00  0.00     0.229 C 
BRANCH  15  16
HETATM   16  C   UNL     1      51.051 -31.002  -0.228  1.00  0.00     0.235 C 
HETATM   17  N   UNL     1      50.437 -30.537   0.915  1.00  0.00    -0.355 N 
HETATM   18  H   UNL     1      49.953 -29.650   0.849  1.00  0.00     0.162 HD
HETATM   19  O   UNL     1      51.951 -31.838  -0.215  1.00  0.00    -0.272 OA
BRANCH  17  20
HETATM   20  C   UNL     1      50.699 -31.071   2.245  1.00  0.00     0.084 C 
HETATM   21  C   UNL     1      50.787 -29.956   3.293  1.00  0.00     0.025 C 
HETATM   22  C   UNL     1      49.428 -29.340   3.623  1.00  0.00     0.002 C 
HETATM   23  C   UNL     1      48.400 -30.402   4.006  1.00  0.00     0.000 C 
HETATM   24  C   UNL     1      48.272 -31.473   2.929  1.00  0.00     0.002 C 
HETATM   25  C   UNL     1      49.626 -32.107   2.608  1.00  0.00     0.025 C 
ENDBRANCH  17  20
ENDBRANCH  15  16
ENDBRANCH   6  15
BRANCH   5  26
HETATM   26  C   UNL     1      47.373 -29.552  -0.762  1.00  0.00    -0.030 A 
HETATM   27  C   UNL     1      46.352 -30.405  -0.315  1.00  0.00     0.012 A 
HETATM   28  C   UNL     1      45.646 -30.126   0.858  1.00  0.00     0.037 A 
HETATM   29  C   UNL     1      45.936 -28.989   1.613  1.00  0.00     0.068 A 
HETATM   30  C   UNL     1      46.949 -28.134   1.185  1.00  0.00     0.037 A 
HETATM   31  C   UNL     1      47.662 -28.415   0.011  1.00  0.00     0.012 A 
BRANCH  29  32
HETATM   32  O   UNL     1      45.160 -28.830   2.727  1.00  0.00    -0.356 OA
HETATM   33  C   UNL     1      43.812 -29.271   2.643  1.00  0.00     0.210 C 
ENDBRANCH  29  32
ENDBRANCH   5  26
TORSDOF 5
ENDMDL
