MODEL 1
REMARK VINA RESULT:      -8.2      0.000      0.000
REMARK  6 active torsions:
REMARK  status: ('A' for Active; 'I' for Inactive)
REMARK    1  A    between atoms: C_3  and  N_4 
REMARK    2  A    between atoms: N_4  and  C_5 
REMARK    3  A    between atoms: C_5  and  C_6 
REMARK    4  A    between atoms: N_8  and  C_10 
REMARK    5  A    between atoms: C_10  and  C_11 
REMARK    6  A    between atoms: C_16  and  O_17 
ROOT
HETATM    1  C   UNL     1      41.200 -14.081   1.849  1.00  0.00     0.031 C 
HETATM    2  C   UNL     1      42.204 -15.165   1.462  1.00  0.00     0.241 C 
HETATM    3  N   UNL     1      42.008 -16.249   2.501  1.00  0.00    -0.067 N 
HETATM    4  H   UNL     1      41.888 -17.145   2.004  1.00  0.00     0.280 HD
HETATM    5  C   UNL     1      40.713 -15.958   3.234  1.00  0.00     0.235 C 
HETATM    6  C   UNL     1      40.030 -14.909   2.372  1.00  0.00     0.035 C 
ENDROOT
BRANCH   3   7
HETATM    7  C   UNL     1      43.202 -16.462   3.405  1.00  0.00     0.274 C 
BRANCH   7   8
HETATM    8  C   UNL     1      43.494 -17.910   3.689  1.00  0.00    -0.013 A 
HETATM    9  C   UNL     1      43.788 -18.396   4.974  1.00  0.00     0.019 A 
HETATM   10 BR   UNL     1      43.867 -17.243   6.481  1.00  0.00    -0.051 Br
HETATM   11  C   UNL     1      44.053 -19.754   5.183  1.00  0.00     0.022 A 
HETATM   12  C   UNL     1      44.035 -20.647   4.111  1.00  0.00     0.038 A 
HETATM   13  C   UNL     1      43.753 -20.171   2.839  1.00  0.00     0.066 A 
HETATM   14  C   UNL     1      43.481 -18.824   2.621  1.00  0.00     0.046 A 
BRANCH  13  15
HETATM   15  O   UNL     1      43.733 -20.990   1.754  1.00  0.00    -0.361 OA
HETATM   16  H   UNL     1      43.523 -21.900   2.035  1.00  0.00     0.217 HD
ENDBRANCH  13  15
ENDBRANCH   7   8
ENDBRANCH   3   7
BRANCH   1  17
HETATM   17  C   UNL     1      40.842 -13.155   0.682  1.00  0.00     0.127 C 
BRANCH  17  18
HETATM   18  N   UNL     1      40.788 -13.913  -0.573  1.00  0.00    -0.376 N 
HETATM   19  H   UNL     1      41.267 -14.808  -0.553  1.00  0.00     0.161 HD
BRANCH  18  20
HETATM   20  C   UNL     1      39.681 -13.825  -1.403  1.00  0.00     0.100 A 
HETATM   21  C   UNL     1      39.490 -14.592  -2.560  1.00  0.00     0.048 A 
HETATM   22  C   UNL     1      38.329 -14.450  -3.320  1.00  0.00     0.005 A 
HETATM   23  C   UNL     1      37.351 -13.554  -2.916  1.00  0.00     0.017 A 
HETATM   24  C   UNL     1      37.556 -12.827  -1.757  1.00  0.00     0.089 A 
HETATM   25  N   UNL     1      38.686 -12.988  -1.050  1.00  0.00    -0.353 N 
HETATM   26  H   UNL     1      38.789 -12.456  -0.192  1.00  0.00     0.166 HD
ENDBRANCH  18  20
ENDBRANCH  17  18
ENDBRANCH   1  17
TORSDOF 6
ENDMDL
MODEL 2
REMARK VINA RESULT:      -7.5      2.367      3.548
REMARK  6 active torsions:
REMARK  status: ('A' for Active; 'I' for Inactive)
REMARK    1  A    between atoms: C_3  and  N_4 
REMARK    2  A    between atoms: N_4  and  C_5 
REMARK    3  A    between atoms: C_5  and  C_6 
REMARK    4  A    between atoms: N_8  and  C_10 
REMARK    5  A    between atoms: C_10  and  C_11 
REMARK    6  A    between atoms: C_16  and  O_17 
ROOT
HETATM    1  C   UNL     1      41.750 -14.527   5.047  1.00  0.00     0.031 C 
HETATM    2  C   UNL     1      41.909 -16.039   4.912  1.00  0.00     0.241 C 
HETATM    3  N   UNL     1      43.122 -16.367   5.757  1.00  0.00    -0.067 N 
HETATM    4  H   UNL     1      42.865 -17.140   6.391  1.00  0.00     0.280 HD
HETATM    5  C   UNL     1      43.428 -15.157   6.618  1.00  0.00     0.235 C 
HETATM    6  C   UNL     1      42.184 -14.292   6.491  1.00  0.00     0.035 C 
ENDROOT
BRANCH   3   7
HETATM    7  C   UNL     1      44.304 -16.887   4.969  1.00  0.00     0.274 C 
BRANCH   7   8
HETATM    8  C   UNL     1      44.000 -18.122   4.168  1.00  0.00    -0.013 A 
HETATM    9  C   UNL     1      43.579 -18.084   2.828  1.00  0.00     0.019 A 
HETATM   10 BR   UNL     1      43.333 -16.441   1.908  1.00  0.00    -0.051 Br
HETATM   11  C   UNL     1      43.308 -19.266   2.128  1.00  0.00     0.022 A 
HETATM   12  C   UNL     1      43.446 -20.503   2.758  1.00  0.00     0.038 A 
HETATM   13  C   UNL     1      43.853 -20.546   4.083  1.00  0.00     0.066 A 
HETATM   14  C   UNL     1      44.132 -19.378   4.786  1.00  0.00     0.046 A 
BRANCH  13  15
HETATM   15  O   UNL     1      43.993 -21.721   4.754  1.00  0.00    -0.361 OA
HETATM   16  H   UNL     1      43.427 -21.713   5.548  1.00  0.00     0.217 HD
ENDBRANCH  13  15
ENDBRANCH   7   8
ENDBRANCH   3   7
BRANCH   1  17
HETATM   17  C   UNL     1      40.329 -14.046   4.733  1.00  0.00     0.127 C 
BRANCH  17  18
HETATM   18  N   UNL     1      39.807 -14.736   3.548  1.00  0.00    -0.376 N 
HETATM   19  H   UNL     1      38.917 -15.206   3.685  1.00  0.00     0.161 HD
BRANCH  18  20
HETATM   20  C   UNL     1      40.051 -14.238   2.277  1.00  0.00     0.100 A 
HETATM   21  C   UNL     1      40.617 -12.984   2.008  1.00  0.00     0.048 A 
HETATM   22  C   UNL     1      40.847 -12.580   0.693  1.00  0.00     0.005 A 
HETATM   23  C   UNL     1      40.528 -13.433  -0.353  1.00  0.00     0.017 A 
HETATM   24  C   UNL     1      39.994 -14.674  -0.056  1.00  0.00     0.089 A 
HETATM   25  N   UNL     1      39.784 -15.031   1.222  1.00  0.00    -0.353 N 
HETATM   26  H   UNL     1      39.414 -15.959   1.400  1.00  0.00     0.166 HD
ENDBRANCH  18  20
ENDBRANCH  17  18
ENDBRANCH   1  17
TORSDOF 6
ENDMDL
MODEL 3
REMARK VINA RESULT:      -7.5      3.231      7.989
REMARK  6 active torsions:
REMARK  status: ('A' for Active; 'I' for Inactive)
REMARK    1  A    between atoms: C_3  and  N_4 
REMARK    2  A    between atoms: N_4  and  C_5 
REMARK    3  A    between atoms: C_5  and  C_6 
REMARK    4  A    between atoms: N_8  and  C_10 
REMARK    5  A    between atoms: C_10  and  C_11 
REMARK    6  A    between atoms: C_16  and  O_17 
ROOT
HETATM    1  C   UNL     1      42.432 -14.641   2.988  1.00  0.00     0.031 C 
HETATM    2  C   UNL     1      42.021 -14.726   1.520  1.00  0.00     0.241 C 
HETATM    3  N   UNL     1      41.635 -13.308   1.155  1.00  0.00    -0.067 N 
HETATM    4  H   UNL     1      42.138 -13.056   0.290  1.00  0.00     0.280 HD
HETATM    5  C   UNL     1      42.138 -12.393   2.254  1.00  0.00     0.235 C 
HETATM    6  C   UNL     1      43.092 -13.266   3.052  1.00  0.00     0.035 C 
ENDROOT
BRANCH   3   7
HETATM    7  C   UNL     1      40.170 -13.132   0.819  1.00  0.00     0.274 C 
BRANCH   7   8
HETATM    8  C   UNL     1      39.849 -13.379  -0.629  1.00  0.00    -0.013 A 
HETATM    9  C   UNL     1      40.068 -12.425  -1.637  1.00  0.00     0.019 A 
HETATM   10 BR   UNL     1      40.777 -10.708  -1.246  1.00  0.00    -0.051 Br
HETATM   11  C   UNL     1      39.750 -12.707  -2.971  1.00  0.00     0.022 A 
HETATM   12  C   UNL     1      39.201 -13.942  -3.317  1.00  0.00     0.038 A 
HETATM   13  C   UNL     1      38.976 -14.884  -2.325  1.00  0.00     0.066 A 
HETATM   14  C   UNL     1      39.295 -14.617  -0.997  1.00  0.00     0.046 A 
BRANCH  13  15
HETATM   15  O   UNL     1      38.432 -16.100  -2.599  1.00  0.00    -0.361 OA
HETATM   16  H   UNL     1      38.396 -16.633  -1.783  1.00  0.00     0.217 HD
ENDBRANCH  13  15
ENDBRANCH   7   8
ENDBRANCH   3   7
BRANCH   1  17
HETATM   17  C   UNL     1      43.342 -15.795   3.421  1.00  0.00     0.127 C 
BRANCH  17  18
HETATM   18  N   UNL     1      43.158 -16.950   2.536  1.00  0.00    -0.376 N 
HETATM   19  H   UNL     1      43.347 -16.771   1.554  1.00  0.00     0.161 HD
BRANCH  18  20
HETATM   20  C   UNL     1      43.417 -18.235   2.989  1.00  0.00     0.100 A 
HETATM   21  C   UNL     1      43.339 -19.389   2.198  1.00  0.00     0.048 A 
HETATM   22  C   UNL     1      43.643 -20.639   2.738  1.00  0.00     0.005 A 
HETATM   23  C   UNL     1      44.041 -20.735   4.063  1.00  0.00     0.017 A 
HETATM   24  C   UNL     1      44.132 -19.576   4.813  1.00  0.00     0.089 A 
HETATM   25  N   UNL     1      43.830 -18.389   4.262  1.00  0.00    -0.353 N 
HETATM   26  H   UNL     1      43.934 -17.559   4.836  1.00  0.00     0.166 HD
ENDBRANCH  18  20
ENDBRANCH  17  18
ENDBRANCH   1  17
TORSDOF 6
ENDMDL
MODEL 4
REMARK VINA RESULT:      -7.1      2.241      2.663
REMARK  6 active torsions:
REMARK  status: ('A' for Active; 'I' for Inactive)
REMARK    1  A    between atoms: C_3  and  N_4 
REMARK    2  A    between atoms: N_4  and  C_5 
REMARK    3  A    between atoms: C_5  and  C_6 
REMARK    4  A    between atoms: N_8  and  C_10 
REMARK    5  A    between atoms: C_10  and  C_11 
REMARK    6  A    between atoms: C_16  and  O_17 
ROOT
HETATM    1  C   UNL     1      40.460 -14.134   2.381  1.00  0.00     0.031 C 
HETATM    2  C   UNL     1      41.762 -14.557   1.705  1.00  0.00     0.241 C 
HETATM    3  N   UNL     1      42.150 -15.843   2.404  1.00  0.00    -0.067 N 
HETATM    4  H   UNL     1      42.344 -16.550   1.679  1.00  0.00     0.280 HD
HETATM    5  C   UNL     1      40.947 -16.320   3.195  1.00  0.00     0.235 C 
HETATM    6  C   UNL     1      39.798 -15.481   2.660  1.00  0.00     0.035 C 
ENDROOT
BRANCH   3   7
HETATM    7  C   UNL     1      43.428 -15.749   3.209  1.00  0.00     0.274 C 
BRANCH   7   8
HETATM    8  C   UNL     1      43.413 -16.576   4.464  1.00  0.00    -0.013 A 
HETATM    9  C   UNL     1      43.655 -17.960   4.474  1.00  0.00     0.019 A 
HETATM   10 BR   UNL     1      44.003 -18.921   2.873  1.00  0.00    -0.051 Br
HETATM   11  C   UNL     1      43.629 -18.684   5.671  1.00  0.00     0.022 A 
HETATM   12  C   UNL     1      43.353 -18.038   6.877  1.00  0.00     0.038 A 
HETATM   13  C   UNL     1      43.105 -16.674   6.872  1.00  0.00     0.066 A 
HETATM   14  C   UNL     1      43.136 -15.943   5.688  1.00  0.00     0.046 A 
BRANCH  13  15
HETATM   15  O   UNL     1      42.819 -15.991   8.014  1.00  0.00    -0.361 OA
HETATM   16  H   UNL     1      42.927 -15.035   7.858  1.00  0.00     0.217 HD
ENDBRANCH  13  15
ENDBRANCH   7   8
ENDBRANCH   3   7
BRANCH   1  17
HETATM   17  C   UNL     1      39.619 -13.189   1.517  1.00  0.00     0.127 C 
BRANCH  17  18
HETATM   18  N   UNL     1      40.189 -13.084   0.170  1.00  0.00    -0.376 N 
HETATM   19  H   UNL     1      41.185 -13.277   0.111  1.00  0.00     0.161 HD
BRANCH  18  20
HETATM   20  C   UNL     1      39.432 -13.412  -0.945  1.00  0.00     0.100 A 
HETATM   21  C   UNL     1      39.789 -14.379  -1.894  1.00  0.00     0.048 A 
HETATM   22  C   UNL     1      38.947 -14.657  -2.972  1.00  0.00     0.005 A 
HETATM   23  C   UNL     1      37.743 -13.980  -3.094  1.00  0.00     0.017 A 
HETATM   24  C   UNL     1      37.406 -13.047  -2.129  1.00  0.00     0.089 A 
HETATM   25  N   UNL     1      38.241 -12.804  -1.105  1.00  0.00    -0.353 N 
HETATM   26  H   UNL     1      37.947 -12.131  -0.404  1.00  0.00     0.166 HD
ENDBRANCH  18  20
ENDBRANCH  17  18
ENDBRANCH   1  17
TORSDOF 6
ENDMDL
MODEL 5
REMARK VINA RESULT:      -7.0      5.752      7.974
REMARK  6 active torsions:
REMARK  status: ('A' for Active; 'I' for Inactive)
REMARK    1  A    between atoms: C_3  and  N_4 
REMARK    2  A    between atoms: N_4  and  C_5 
REMARK    3  A    between atoms: C_5  and  C_6 
REMARK    4  A    between atoms: N_8  and  C_10 
REMARK    5  A    between atoms: C_10  and  C_11 
REMARK    6  A    between atoms: C_16  and  O_17 
ROOT
HETATM    1  C   UNL     1      40.933 -11.627   5.850  1.00  0.00     0.031 C 
HETATM    2  C   UNL     1      41.866 -12.721   5.337  1.00  0.00     0.241 C 
HETATM    3  N   UNL     1      40.980 -13.602   4.482  1.00  0.00    -0.067 N 
HETATM    4  H   UNL     1      41.446 -13.729   3.570  1.00  0.00     0.280 HD
HETATM    5  C   UNL     1      39.686 -12.852   4.229  1.00  0.00     0.235 C 
HETATM    6  C   UNL     1      39.997 -11.428   4.661  1.00  0.00     0.035 C 
ENDROOT
BRANCH   3   7
HETATM    7  C   UNL     1      40.793 -15.003   5.022  1.00  0.00     0.274 C 
BRANCH   7   8
HETATM    8  C   UNL     1      42.034 -15.580   5.644  1.00  0.00    -0.013 A 
HETATM    9  C   UNL     1      43.053 -16.195   4.895  1.00  0.00     0.019 A 
HETATM   10 BR   UNL     1      42.934 -16.369   3.008  1.00  0.00    -0.051 Br
HETATM   11  C   UNL     1      44.189 -16.717   5.524  1.00  0.00     0.022 A 
HETATM   12  C   UNL     1      44.321 -16.642   6.911  1.00  0.00     0.038 A 
HETATM   13  C   UNL     1      43.315 -16.044   7.655  1.00  0.00     0.066 A 
HETATM   14  C   UNL     1      42.185 -15.514   7.039  1.00  0.00     0.046 A 
BRANCH  13  15
HETATM   15  O   UNL     1      43.382 -15.952   9.011  1.00  0.00    -0.361 OA
HETATM   16  H   UNL     1      43.752 -15.085   9.261  1.00  0.00     0.217 HD
ENDBRANCH  13  15
ENDBRANCH   7   8
ENDBRANCH   3   7
BRANCH   1  17
HETATM   17  C   UNL     1      41.679 -10.360   6.281  1.00  0.00     0.127 C 
BRANCH  17  18
HETATM   18  N   UNL     1      42.353 -10.576   7.566  1.00  0.00    -0.376 N 
HETATM   19  H   UNL     1      42.010 -11.368   8.101  1.00  0.00     0.161 HD
BRANCH  18  20
HETATM   20  C   UNL     1      43.696 -10.266   7.718  1.00  0.00     0.100 A 
HETATM   21  C   UNL     1      44.754 -11.063   7.261  1.00  0.00     0.048 A 
HETATM   22  C   UNL     1      46.076 -10.655   7.440  1.00  0.00     0.005 A 
HETATM   23  C   UNL     1      46.342  -9.443   8.061  1.00  0.00     0.017 A 
HETATM   24  C   UNL     1      45.276  -8.666   8.480  1.00  0.00     0.089 A 
HETATM   25  N   UNL     1      44.016  -9.091   8.293  1.00  0.00    -0.353 N 
HETATM   26  H   UNL     1      43.261  -8.481   8.591  1.00  0.00     0.166 HD
ENDBRANCH  18  20
ENDBRANCH  17  18
ENDBRANCH   1  17
TORSDOF 6
ENDMDL
MODEL 6
REMARK VINA RESULT:      -7.0      1.776      2.272
REMARK  6 active torsions:
REMARK  status: ('A' for Active; 'I' for Inactive)
REMARK    1  A    between atoms: C_3  and  N_4 
REMARK    2  A    between atoms: N_4  and  C_5 
REMARK    3  A    between atoms: C_5  and  C_6 
REMARK    4  A    between atoms: N_8  and  C_10 
REMARK    5  A    between atoms: C_10  and  C_11 
REMARK    6  A    between atoms: C_16  and  O_17 
ROOT
HETATM    1  C   UNL     1      40.685 -13.928   1.768  1.00  0.00     0.031 C 
HETATM    2  C   UNL     1      41.323 -15.200   1.216  1.00  0.00     0.241 C 
HETATM    3  N   UNL     1      41.588 -16.050   2.441  1.00  0.00    -0.067 N 
HETATM    4  H   UNL     1      41.197 -16.988   2.265  1.00  0.00     0.280 HD
HETATM    5  C   UNL     1      40.816 -15.447   3.599  1.00  0.00     0.235 C 
HETATM    6  C   UNL     1      39.862 -14.468   2.935  1.00  0.00     0.035 C 
ENDROOT
BRANCH   3   7
HETATM    7  C   UNL     1      43.055 -16.286   2.725  1.00  0.00     0.274 C 
BRANCH   7   8
HETATM    8  C   UNL     1      43.379 -17.708   3.088  1.00  0.00    -0.013 A 
HETATM    9  C   UNL     1      43.858 -18.088   4.354  1.00  0.00     0.019 A 
HETATM   10 BR   UNL     1      44.163 -16.812   5.726  1.00  0.00    -0.051 Br
HETATM   11  C   UNL     1      44.145 -19.428   4.638  1.00  0.00     0.022 A 
HETATM   12  C   UNL     1      43.965 -20.408   3.662  1.00  0.00     0.038 A 
HETATM   13  C   UNL     1      43.501 -20.038   2.409  1.00  0.00     0.066 A 
HETATM   14  C   UNL     1      43.205 -18.710   2.117  1.00  0.00     0.046 A 
BRANCH  13  15
HETATM   15  O   UNL     1      43.318 -20.946   1.413  1.00  0.00    -0.361 OA
HETATM   16  H   UNL     1      42.366 -21.030   1.219  1.00  0.00     0.217 HD
ENDBRANCH  13  15
ENDBRANCH   7   8
ENDBRANCH   3   7
BRANCH   1  17
HETATM   17  C   UNL     1      39.863 -13.169   0.719  1.00  0.00     0.127 C 
BRANCH  17  18
HETATM   18  N   UNL     1      38.706 -12.524   1.346  1.00  0.00    -0.376 N 
HETATM   19  H   UNL     1      38.805 -12.339   2.340  1.00  0.00     0.161 HD
BRANCH  18  20
HETATM   20  C   UNL     1      37.921 -11.632   0.630  1.00  0.00     0.100 A 
HETATM   21  C   UNL     1      37.971 -11.468  -0.761  1.00  0.00     0.048 A 
HETATM   22  C   UNL     1      37.123 -10.560  -1.397  1.00  0.00     0.005 A 
HETATM   23  C   UNL     1      36.215  -9.828  -0.646  1.00  0.00     0.017 A 
HETATM   24  C   UNL     1      36.172 -10.029   0.722  1.00  0.00     0.089 A 
HETATM   25  N   UNL     1      37.004 -10.910   1.302  1.00  0.00    -0.353 N 
HETATM   26  H   UNL     1      36.925 -11.048   2.304  1.00  0.00     0.166 HD
ENDBRANCH  18  20
ENDBRANCH  17  18
ENDBRANCH   1  17
TORSDOF 6
ENDMDL
MODEL 7
REMARK VINA RESULT:      -7.0      5.627      8.038
REMARK  6 active torsions:
REMARK  status: ('A' for Active; 'I' for Inactive)
REMARK    1  A    between atoms: C_3  and  N_4 
REMARK    2  A    between atoms: N_4  and  C_5 
REMARK    3  A    between atoms: C_5  and  C_6 
REMARK    4  A    between atoms: N_8  and  C_10 
REMARK    5  A    between atoms: C_10  and  C_11 
REMARK    6  A    between atoms: C_16  and  O_17 
ROOT
HETATM    1  C   UNL     1      41.274 -11.754   5.930  1.00  0.00     0.031 C 
HETATM    2  C   UNL     1      42.081 -12.852   5.241  1.00  0.00     0.241 C 
HETATM    3  N   UNL     1      41.057 -13.620   4.432  1.00  0.00    -0.067 N 
HETATM    4  H   UNL     1      41.414 -13.702   3.468  1.00  0.00     0.280 HD
HETATM    5  C   UNL     1      39.790 -12.789   4.379  1.00  0.00     0.235 C 
HETATM    6  C   UNL     1      40.228 -11.419   4.869  1.00  0.00     0.035 C 
ENDROOT
BRANCH   3   7
HETATM    7  C   UNL     1      40.849 -15.047   4.893  1.00  0.00     0.274 C 
BRANCH   7   8
HETATM    8  C   UNL     1      41.705 -16.047   4.167  1.00  0.00    -0.013 A 
HETATM    9  C   UNL     1      41.478 -16.427   2.834  1.00  0.00     0.019 A 
HETATM   10 BR   UNL     1      40.033 -15.716   1.828  1.00  0.00    -0.051 Br
HETATM   11  C   UNL     1      42.306 -17.364   2.205  1.00  0.00     0.022 A 
HETATM   12  C   UNL     1      43.369 -17.942   2.901  1.00  0.00     0.038 A 
HETATM   13  C   UNL     1      43.593 -17.576   4.220  1.00  0.00     0.066 A 
HETATM   14  C   UNL     1      42.780 -16.639   4.852  1.00  0.00     0.046 A 
BRANCH  13  15
HETATM   15  O   UNL     1      44.605 -18.113   4.953  1.00  0.00    -0.361 OA
HETATM   16  H   UNL     1      45.460 -17.795   4.610  1.00  0.00     0.217 HD
ENDBRANCH  13  15
ENDBRANCH   7   8
ENDBRANCH   3   7
BRANCH   1  17
HETATM   17  C   UNL     1      42.135 -10.561   6.360  1.00  0.00     0.127 C 
BRANCH  17  18
HETATM   18  N   UNL     1      43.476 -11.012   6.746  1.00  0.00    -0.376 N 
HETATM   19  H   UNL     1      44.109 -11.181   5.971  1.00  0.00     0.161 HD
BRANCH  18  20
HETATM   20  C   UNL     1      44.053 -10.578   7.930  1.00  0.00     0.100 A 
HETATM   21  C   UNL     1      45.234  -9.828   8.011  1.00  0.00     0.048 A 
HETATM   22  C   UNL     1      45.725  -9.415   9.250  1.00  0.00     0.005 A 
HETATM   23  C   UNL     1      45.030  -9.738  10.406  1.00  0.00     0.017 A 
HETATM   24  C   UNL     1      43.855 -10.459  10.293  1.00  0.00     0.089 A 
HETATM   25  N   UNL     1      43.411 -10.841   9.084  1.00  0.00    -0.353 N 
HETATM   26  H   UNL     1      42.532 -11.347   9.040  1.00  0.00     0.166 HD
ENDBRANCH  18  20
ENDBRANCH  17  18
ENDBRANCH   1  17
TORSDOF 6
ENDMDL
MODEL 8
REMARK VINA RESULT:      -6.9      6.684      8.875
REMARK  6 active torsions:
REMARK  status: ('A' for Active; 'I' for Inactive)
REMARK    1  A    between atoms: C_3  and  N_4 
REMARK    2  A    between atoms: N_4  and  C_5 
REMARK    3  A    between atoms: C_5  and  C_6 
REMARK    4  A    between atoms: N_8  and  C_10 
REMARK    5  A    between atoms: C_10  and  C_11 
REMARK    6  A    between atoms: C_16  and  O_17 
ROOT
HETATM    1  C   UNL     1      43.207 -11.418   6.907  1.00  0.00     0.031 C 
HETATM    2  C   UNL     1      43.911 -12.741   6.614  1.00  0.00     0.241 C 
HETATM    3  N   UNL     1      43.280 -13.227   5.326  1.00  0.00    -0.067 N 
HETATM    4  H   UNL     1      44.042 -13.465   4.672  1.00  0.00     0.280 HD
HETATM    5  C   UNL     1      42.509 -12.069   4.723  1.00  0.00     0.235 C 
HETATM    6  C   UNL     1      42.993 -10.858   5.503  1.00  0.00     0.035 C 
ENDROOT
BRANCH   3   7
HETATM    7  C   UNL     1      42.479 -14.502   5.472  1.00  0.00     0.274 C 
BRANCH   7   8
HETATM    8  C   UNL     1      42.860 -15.571   4.485  1.00  0.00    -0.013 A 
HETATM    9  C   UNL     1      43.247 -16.867   4.869  1.00  0.00     0.019 A 
HETATM   10 BR   UNL     1      43.344 -17.378   6.695  1.00  0.00    -0.051 Br
HETATM   11  C   UNL     1      43.592 -17.824   3.908  1.00  0.00     0.022 A 
HETATM   12  C   UNL     1      43.565 -17.501   2.551  1.00  0.00     0.038 A 
HETATM   13  C   UNL     1      43.192 -16.221   2.168  1.00  0.00     0.066 A 
HETATM   14  C   UNL     1      42.839 -15.263   3.114  1.00  0.00     0.046 A 
BRANCH  13  15
HETATM   15  O   UNL     1      43.158 -15.843   0.862  1.00  0.00    -0.361 OA
HETATM   16  H   UNL     1      43.872 -16.293   0.373  1.00  0.00     0.217 HD
ENDBRANCH  13  15
ENDBRANCH   7   8
ENDBRANCH   3   7
BRANCH   1  17
HETATM   17  C   UNL     1      44.017 -10.503   7.831  1.00  0.00     0.127 C 
BRANCH  17  18
HETATM   18  N   UNL     1      43.873 -10.930   9.227  1.00  0.00    -0.376 N 
HETATM   19  H   UNL     1      44.574 -11.592   9.546  1.00  0.00     0.161 HD
BRANCH  18  20
HETATM   20  C   UNL     1      43.366 -10.061  10.182  1.00  0.00     0.100 A 
HETATM   21  C   UNL     1      44.148  -9.319  11.077  1.00  0.00     0.048 A 
HETATM   22  C   UNL     1      43.547  -8.450  11.988  1.00  0.00     0.005 A 
HETATM   23  C   UNL     1      42.168  -8.309  11.995  1.00  0.00     0.017 A 
HETATM   24  C   UNL     1      41.423  -9.037  11.083  1.00  0.00     0.089 A 
HETATM   25  N   UNL     1      42.034  -9.865  10.221  1.00  0.00    -0.353 N 
HETATM   26  H   UNL     1      41.456 -10.363   9.551  1.00  0.00     0.166 HD
ENDBRANCH  18  20
ENDBRANCH  17  18
ENDBRANCH   1  17
TORSDOF 6
ENDMDL
MODEL 9
REMARK VINA RESULT:      -6.9      2.295      4.084
REMARK  6 active torsions:
REMARK  status: ('A' for Active; 'I' for Inactive)
REMARK    1  A    between atoms: C_3  and  N_4 
REMARK    2  A    between atoms: N_4  and  C_5 
REMARK    3  A    between atoms: C_5  and  C_6 
REMARK    4  A    between atoms: N_8  and  C_10 
REMARK    5  A    between atoms: C_10  and  C_11 
REMARK    6  A    between atoms: C_16  and  O_17 
ROOT
HETATM    1  C   UNL     1      41.219 -14.054   1.923  1.00  0.00     0.031 C 
HETATM    2  C   UNL     1      42.353 -14.999   1.534  1.00  0.00     0.241 C 
HETATM    3  N   UNL     1      42.153 -16.212   2.418  1.00  0.00    -0.067 N 
HETATM    4  H   UNL     1      42.167 -17.048   1.814  1.00  0.00     0.280 HD
HETATM    5  C   UNL     1      40.768 -16.116   3.028  1.00  0.00     0.235 C 
HETATM    6  C   UNL     1      40.082 -15.029   2.217  1.00  0.00     0.035 C 
ENDROOT
BRANCH   3   7
HETATM    7  C   UNL     1      43.263 -16.436   3.421  1.00  0.00     0.274 C 
BRANCH   7   8
HETATM    8  C   UNL     1      43.519 -17.886   3.724  1.00  0.00    -0.013 A 
HETATM    9  C   UNL     1      43.763 -18.368   5.022  1.00  0.00     0.019 A 
HETATM   10 BR   UNL     1      43.815 -17.205   6.522  1.00  0.00    -0.051 Br
HETATM   11  C   UNL     1      43.997 -19.729   5.248  1.00  0.00     0.022 A 
HETATM   12  C   UNL     1      43.997 -20.629   4.182  1.00  0.00     0.038 A 
HETATM   13  C   UNL     1      43.765 -20.158   2.899  1.00  0.00     0.066 A 
HETATM   14  C   UNL     1      43.524 -18.808   2.663  1.00  0.00     0.046 A 
BRANCH  13  15
HETATM   15  O   UNL     1      43.765 -20.985   1.819  1.00  0.00    -0.361 OA
HETATM   16  H   UNL     1      44.639 -20.958   1.388  1.00  0.00     0.217 HD
ENDBRANCH  13  15
ENDBRANCH   7   8
ENDBRANCH   3   7
BRANCH   1  17
HETATM   17  C   UNL     1      40.897 -13.026   0.832  1.00  0.00     0.127 C 
BRANCH  17  18
HETATM   18  N   UNL     1      41.021 -11.664   1.362  1.00  0.00    -0.376 N 
HETATM   19  H   UNL     1      40.313 -11.013   1.036  1.00  0.00     0.161 HD
BRANCH  18  20
HETATM   20  C   UNL     1      41.518 -11.445   2.638  1.00  0.00     0.100 A 
HETATM   21  C   UNL     1      42.880 -11.395   2.964  1.00  0.00     0.048 A 
HETATM   22  C   UNL     1      43.285 -11.145   4.275  1.00  0.00     0.005 A 
HETATM   23  C   UNL     1      42.330 -10.930   5.259  1.00  0.00     0.017 A 
HETATM   24  C   UNL     1      40.994 -10.962   4.903  1.00  0.00     0.089 A 
HETATM   25  N   UNL     1      40.639 -11.207   3.631  1.00  0.00    -0.353 N 
HETATM   26  H   UNL     1      39.650 -11.197   3.404  1.00  0.00     0.166 HD
ENDBRANCH  18  20
ENDBRANCH  17  18
ENDBRANCH   1  17
TORSDOF 6
ENDMDL
MODEL 10
REMARK VINA RESULT:      -6.7      5.759      7.906
REMARK  6 active torsions:
REMARK  status: ('A' for Active; 'I' for Inactive)
REMARK    1  A    between atoms: C_3  and  N_4 
REMARK    2  A    between atoms: N_4  and  C_5 
REMARK    3  A    between atoms: C_5  and  C_6 
REMARK    4  A    between atoms: N_8  and  C_10 
REMARK    5  A    between atoms: C_10  and  C_11 
REMARK    6  A    between atoms: C_16  and  O_17 
ROOT
HETATM    1  C   UNL     1      41.596 -13.390   4.027  1.00  0.00     0.031 C 
HETATM    2  C   UNL     1      41.264 -12.497   5.220  1.00  0.00     0.241 C 
HETATM    3  N   UNL     1      42.546 -11.737   5.490  1.00  0.00    -0.067 N 
HETATM    4  H   UNL     1      42.312 -10.734   5.547  1.00  0.00     0.280 HD
HETATM    5  C   UNL     1      43.456 -11.924   4.292  1.00  0.00     0.235 C 
HETATM    6  C   UNL     1      42.544 -12.503   3.223  1.00  0.00     0.035 C 
ENDROOT
BRANCH   3   7
HETATM    7  C   UNL     1      43.190 -12.063   6.820  1.00  0.00     0.274 C 
BRANCH   7   8
HETATM    8  C   UNL     1      44.157 -11.015   7.295  1.00  0.00    -0.013 A 
HETATM    9  C   UNL     1      43.750  -9.814   7.901  1.00  0.00     0.019 A 
HETATM   10 BR   UNL     1      41.915  -9.397   8.151  1.00  0.00    -0.051 Br
HETATM   11  C   UNL     1      44.693  -8.871   8.325  1.00  0.00     0.022 A 
HETATM   12  C   UNL     1      46.056  -9.108   8.145  1.00  0.00     0.038 A 
HETATM   13  C   UNL     1      46.462 -10.288   7.540  1.00  0.00     0.066 A 
HETATM   14  C   UNL     1      45.534 -11.237   7.121  1.00  0.00     0.046 A 
BRANCH  13  15
HETATM   15  O   UNL     1      47.776 -10.571   7.326  1.00  0.00    -0.361 OA
HETATM   16  H   UNL     1      47.852 -11.386   6.797  1.00  0.00     0.217 HD
ENDBRANCH  13  15
ENDBRANCH   7   8
ENDBRANCH   3   7
BRANCH   1  17
HETATM   17  C   UNL     1      40.352 -13.841   3.255  1.00  0.00     0.127 C 
BRANCH  17  18
HETATM   18  N   UNL     1      40.179 -15.293   3.369  1.00  0.00    -0.376 N 
HETATM   19  H   UNL     1      39.325 -15.656   2.955  1.00  0.00     0.161 HD
BRANCH  18  20
HETATM   20  C   UNL     1      41.278 -16.138   3.353  1.00  0.00     0.100 A 
HETATM   21  C   UNL     1      41.882 -16.637   2.191  1.00  0.00     0.048 A 
HETATM   22  C   UNL     1      43.003 -17.464   2.275  1.00  0.00     0.005 A 
HETATM   23  C   UNL     1      43.529 -17.781   3.519  1.00  0.00     0.017 A 
HETATM   24  C   UNL     1      42.926 -17.255   4.647  1.00  0.00     0.089 A 
HETATM   25  N   UNL     1      41.848 -16.463   4.530  1.00  0.00    -0.353 N 
HETATM   26  H   UNL     1      41.449 -16.076   5.379  1.00  0.00     0.166 HD
ENDBRANCH  18  20
ENDBRANCH  17  18
ENDBRANCH   1  17
TORSDOF 6
ENDMDL
