MODEL 1
REMARK VINA RESULT:      -9.1      0.000      0.000
REMARK  4 active torsions:
REMARK  status: ('A' for Active; 'I' for Inactive)
REMARK    1  A    between atoms: C_3  and  O_4 
REMARK    2  A    between atoms: O_4  and  C_5 
REMARK    3  A    between atoms: C_11  and  C_12 
REMARK    4  A    between atoms: C_23  and  N_24 
ROOT
HETATM    1  C   UNL     1      42.378 -14.632   2.236  1.00  0.00     0.244 A 
HETATM    2  N   UNL     1      41.658 -13.734   3.110  1.00  0.00    -0.151 N 
HETATM    3  C   UNL     1      40.357 -13.391   2.843  1.00  0.00     0.734 A 
HETATM    4  N   UNL     1      39.941 -12.518   3.733  1.00  0.00    -0.060 NA
HETATM    5  C   UNL     1      41.005 -12.273   4.565  1.00  0.00     0.103 A 
HETATM    6  C   UNL     1      42.114 -13.026   4.189  1.00  0.00     0.083 A 
HETATM    7  C   UNL     1      41.100 -11.406   5.662  1.00  0.00     0.034 A 
HETATM    8  C   UNL     1      42.315 -11.324   6.351  1.00  0.00     0.002 A 
HETATM    9  C   UNL     1      43.413 -12.091   5.955  1.00  0.00     0.002 A 
HETATM   10  C   UNL     1      43.339 -12.962   4.862  1.00  0.00     0.033 A 
HETATM   11  N   UNL     1      39.664 -13.901   1.802  1.00  0.00    -0.033 NA
HETATM   12  C   UNL     1      40.260 -14.682   0.977  1.00  0.00     0.193 A 
HETATM   13  N   UNL     1      41.599 -15.077   1.082  1.00  0.00    -0.339 N 
HETATM   14  H   UNL     1      41.973 -15.784   0.469  1.00  0.00     0.164 HD
ENDROOT
BRANCH   1  15
HETATM   15  C   UNL     1      42.864 -15.887   2.941  1.00  0.00    -0.014 A 
HETATM   16  C   UNL     1      42.894 -17.132   2.286  1.00  0.00     0.020 A 
HETATM   17  C   UNL     1      43.406 -18.273   2.921  1.00  0.00    -0.027 A 
HETATM   18  C   UNL     1      43.909 -18.156   4.225  1.00  0.00     0.086 A 
HETATM   19  C   UNL     1      43.469 -19.577   2.173  1.00  0.00     0.051 C 
HETATM   20  C   UNL     1      43.934 -16.918   4.886  1.00  0.00    -0.027 A 
HETATM   21  C   UNL     1      44.512 -16.771   6.267  1.00  0.00     0.051 C 
HETATM   22  C   UNL     1      43.387 -15.798   4.243  1.00  0.00     0.020 A 
BRANCH  18  23
HETATM   23  O   UNL     1      44.475 -19.258   4.811  1.00  0.00    -0.289 OA
BRANCH  23  24
HETATM   24  C   UNL     1      43.481 -20.073   5.420  1.00  0.00     0.505 C 
HETATM   25  F   UNL     1      43.873 -21.364   5.273  1.00  0.00    -0.184 F 
HETATM   26  F   UNL     1      43.482 -19.811   6.750  1.00  0.00    -0.184 F 
ENDBRANCH  23  24
ENDBRANCH  18  23
ENDBRANCH   1  15
BRANCH  12  27
HETATM   27  N   UNL     1      39.644 -15.231  -0.089  1.00  0.00    -0.272 NA
HETATM   28  H   UNL     1      39.045 -16.004   0.194  1.00  0.00     0.127 HD
HETATM   29  H   UNL     1      39.149 -14.597  -0.703  1.00  0.00     0.127 HD
ENDBRANCH  12  27
TORSDOF 4
ENDMDL
MODEL 2
REMARK VINA RESULT:      -8.8      1.823      4.079
REMARK  4 active torsions:
REMARK  status: ('A' for Active; 'I' for Inactive)
REMARK    1  A    between atoms: C_3  and  O_4 
REMARK    2  A    between atoms: O_4  and  C_5 
REMARK    3  A    between atoms: C_11  and  C_12 
REMARK    4  A    between atoms: C_23  and  N_24 
ROOT
HETATM    1  C   UNL     1      40.137 -14.566   4.088  1.00  0.00     0.244 A 
HETATM    2  N   UNL     1      40.234 -13.539   3.076  1.00  0.00    -0.151 N 
HETATM    3  C   UNL     1      40.166 -12.212   3.417  1.00  0.00     0.734 A 
HETATM    4  N   UNL     1      40.210 -11.475   2.330  1.00  0.00    -0.060 NA
HETATM    5  C   UNL     1      40.273 -12.347   1.272  1.00  0.00     0.103 A 
HETATM    6  C   UNL     1      40.283 -13.667   1.714  1.00  0.00     0.083 A 
HETATM    7  C   UNL     1      40.315 -12.080  -0.103  1.00  0.00     0.034 A 
HETATM    8  C   UNL     1      40.365 -13.157  -0.995  1.00  0.00     0.002 A 
HETATM    9  C   UNL     1      40.375 -14.473  -0.527  1.00  0.00     0.002 A 
HETATM   10  C   UNL     1      40.333 -14.760   0.842  1.00  0.00     0.033 A 
HETATM   11  N   UNL     1      40.063 -11.789   4.696  1.00  0.00    -0.033 NA
HETATM   12  C   UNL     1      39.946 -12.657   5.634  1.00  0.00     0.193 A 
HETATM   13  N   UNL     1      39.938 -14.043   5.438  1.00  0.00    -0.339 N 
HETATM   14  H   UNL     1      39.960 -14.671   6.226  1.00  0.00     0.164 HD
ENDROOT
BRANCH   1  15
HETATM   15  C   UNL     1      41.363 -15.462   4.146  1.00  0.00    -0.014 A 
HETATM   16  C   UNL     1      42.300 -15.356   5.191  1.00  0.00     0.020 A 
HETATM   17  C   UNL     1      43.394 -16.230   5.275  1.00  0.00    -0.027 A 
HETATM   18  C   UNL     1      43.538 -17.233   4.304  1.00  0.00     0.086 A 
HETATM   19  C   UNL     1      44.348 -16.120   6.432  1.00  0.00     0.051 C 
HETATM   20  C   UNL     1      42.594 -17.391   3.277  1.00  0.00    -0.027 A 
HETATM   21  C   UNL     1      42.712 -18.491   2.258  1.00  0.00     0.051 C 
HETATM   22  C   UNL     1      41.526 -16.485   3.196  1.00  0.00     0.020 A 
BRANCH  18  23
HETATM   23  O   UNL     1      44.566 -18.129   4.434  1.00  0.00    -0.289 OA
BRANCH  23  24
HETATM   24  C   UNL     1      44.081 -19.395   4.866  1.00  0.00     0.505 C 
HETATM   25  F   UNL     1      45.138 -20.246   4.888  1.00  0.00    -0.184 F 
HETATM   26  F   UNL     1      43.656 -19.264   6.147  1.00  0.00    -0.184 F 
ENDBRANCH  23  24
ENDBRANCH  18  23
ENDBRANCH   1  15
BRANCH  12  27
HETATM   27  N   UNL     1      39.833 -12.321   6.935  1.00  0.00    -0.272 NA
HETATM   28  H   UNL     1      40.466 -12.872   7.510  1.00  0.00     0.127 HD
HETATM   29  H   UNL     1      39.907 -11.337   7.157  1.00  0.00     0.127 HD
ENDBRANCH  12  27
TORSDOF 4
ENDMDL
MODEL 3
REMARK VINA RESULT:      -8.8      2.456      4.227
REMARK  4 active torsions:
REMARK  status: ('A' for Active; 'I' for Inactive)
REMARK    1  A    between atoms: C_3  and  O_4 
REMARK    2  A    between atoms: O_4  and  C_5 
REMARK    3  A    between atoms: C_11  and  C_12 
REMARK    4  A    between atoms: C_23  and  N_24 
ROOT
HETATM    1  C   UNL     1      42.273 -11.573   4.533  1.00  0.00     0.244 A 
HETATM    2  N   UNL     1      42.607 -10.990   5.811  1.00  0.00    -0.151 N 
HETATM    3  C   UNL     1      41.665 -10.304   6.535  1.00  0.00     0.734 A 
HETATM    4  N   UNL     1      42.216  -9.812   7.622  1.00  0.00    -0.060 NA
HETATM    5  C   UNL     1      43.543 -10.163   7.577  1.00  0.00     0.103 A 
HETATM    6  C   UNL     1      43.823 -10.906   6.434  1.00  0.00     0.083 A 
HETATM    7  C   UNL     1      44.574  -9.869   8.479  1.00  0.00     0.034 A 
HETATM    8  C   UNL     1      45.863 -10.336   8.200  1.00  0.00     0.002 A 
HETATM    9  C   UNL     1      46.119 -11.081   7.047  1.00  0.00     0.002 A 
HETATM   10  C   UNL     1      45.103 -11.383   6.133  1.00  0.00     0.033 A 
HETATM   11  N   UNL     1      40.380 -10.180   6.134  1.00  0.00    -0.033 NA
HETATM   12  C   UNL     1      40.034 -10.654   4.993  1.00  0.00     0.193 A 
HETATM   13  N   UNL     1      40.893 -11.327   4.116  1.00  0.00    -0.339 N 
HETATM   14  H   UNL     1      40.532 -11.777   3.291  1.00  0.00     0.164 HD
ENDROOT
BRANCH   1  15
HETATM   15  C   UNL     1      42.475 -13.079   4.494  1.00  0.00    -0.014 A 
HETATM   16  C   UNL     1      42.167 -13.890   5.602  1.00  0.00     0.020 A 
HETATM   17  C   UNL     1      42.292 -15.285   5.537  1.00  0.00    -0.027 A 
HETATM   18  C   UNL     1      42.718 -15.873   4.336  1.00  0.00     0.086 A 
HETATM   19  C   UNL     1      41.907 -16.124   6.724  1.00  0.00     0.051 C 
HETATM   20  C   UNL     1      42.988 -15.093   3.201  1.00  0.00    -0.027 A 
HETATM   21  C   UNL     1      43.401 -15.715   1.895  1.00  0.00     0.051 C 
HETATM   22  C   UNL     1      42.886 -13.697   3.300  1.00  0.00     0.020 A 
BRANCH  18  23
HETATM   23  O   UNL     1      42.767 -17.240   4.257  1.00  0.00    -0.289 OA
BRANCH  23  24
HETATM   24  C   UNL     1      44.062 -17.720   4.601  1.00  0.00     0.505 C 
HETATM   25  F   UNL     1      43.910 -18.577   5.642  1.00  0.00    -0.184 F 
HETATM   26  F   UNL     1      44.528 -18.448   3.557  1.00  0.00    -0.184 F 
ENDBRANCH  23  24
ENDBRANCH  18  23
ENDBRANCH   1  15
BRANCH  12  27
HETATM   27  N   UNL     1      38.775 -10.569   4.515  1.00  0.00    -0.272 NA
HETATM   28  H   UNL     1      38.745 -10.006   3.668  1.00  0.00     0.127 HD
HETATM   29  H   UNL     1      38.278 -11.440   4.388  1.00  0.00     0.127 HD
ENDBRANCH  12  27
TORSDOF 4
ENDMDL
MODEL 4
REMARK VINA RESULT:      -8.7      1.896      4.147
REMARK  4 active torsions:
REMARK  status: ('A' for Active; 'I' for Inactive)
REMARK    1  A    between atoms: C_3  and  O_4 
REMARK    2  A    between atoms: O_4  and  C_5 
REMARK    3  A    between atoms: C_11  and  C_12 
REMARK    4  A    between atoms: C_23  and  N_24 
ROOT
HETATM    1  C   UNL     1      41.864 -14.975   5.614  1.00  0.00     0.244 A 
HETATM    2  N   UNL     1      41.789 -14.198   4.399  1.00  0.00    -0.151 N 
HETATM    3  C   UNL     1      42.290 -12.922   4.353  1.00  0.00     0.734 A 
HETATM    4  N   UNL     1      42.048 -12.396   3.172  1.00  0.00    -0.060 NA
HETATM    5  C   UNL     1      41.350 -13.341   2.462  1.00  0.00     0.103 A 
HETATM    6  C   UNL     1      41.164 -14.495   3.218  1.00  0.00     0.083 A 
HETATM    7  C   UNL     1      40.833 -13.277   1.161  1.00  0.00     0.034 A 
HETATM    8  C   UNL     1      40.139 -14.384   0.659  1.00  0.00     0.002 A 
HETATM    9  C   UNL     1      39.965 -15.531   1.437  1.00  0.00     0.002 A 
HETATM   10  C   UNL     1      40.474 -15.614   2.739  1.00  0.00     0.033 A 
HETATM   11  N   UNL     1      42.920 -12.344   5.399  1.00  0.00    -0.033 NA
HETATM   12  C   UNL     1      42.992 -12.978   6.512  1.00  0.00     0.193 A 
HETATM   13  N   UNL     1      42.477 -14.261   6.732  1.00  0.00    -0.339 N 
HETATM   14  H   UNL     1      42.669 -14.749   7.592  1.00  0.00     0.164 HD
ENDROOT
BRANCH   1  15
HETATM   15  C   UNL     1      42.644 -16.269   5.447  1.00  0.00    -0.014 A 
HETATM   16  C   UNL     1      42.784 -17.184   6.506  1.00  0.00     0.020 A 
HETATM   17  C   UNL     1      43.448 -18.406   6.325  1.00  0.00    -0.027 A 
HETATM   18  C   UNL     1      43.964 -18.718   5.058  1.00  0.00     0.086 A 
HETATM   19  C   UNL     1      43.536 -19.382   7.466  1.00  0.00     0.051 C 
HETATM   20  C   UNL     1      43.800 -17.844   3.972  1.00  0.00    -0.027 A 
HETATM   21  C   UNL     1      44.308 -18.187   2.599  1.00  0.00     0.051 C 
HETATM   22  C   UNL     1      43.160 -16.614   4.185  1.00  0.00     0.020 A 
BRANCH  18  23
HETATM   23  O   UNL     1      44.546 -19.944   4.870  1.00  0.00    -0.289 OA
BRANCH  23  24
HETATM   24  C   UNL     1      43.611 -20.868   4.325  1.00  0.00     0.505 C 
HETATM   25  F   UNL     1      44.208 -21.467   3.265  1.00  0.00    -0.184 F 
HETATM   26  F   UNL     1      43.393 -21.835   5.250  1.00  0.00    -0.184 F 
ENDBRANCH  23  24
ENDBRANCH  18  23
ENDBRANCH   1  15
BRANCH  12  27
HETATM   27  N   UNL     1      43.599 -12.472   7.605  1.00  0.00    -0.272 NA
HETATM   28  H   UNL     1      44.271 -13.134   7.987  1.00  0.00     0.127 HD
HETATM   29  H   UNL     1      44.009 -11.553   7.512  1.00  0.00     0.127 HD
ENDBRANCH  12  27
TORSDOF 4
ENDMDL
MODEL 5
REMARK VINA RESULT:      -8.6      4.265      6.927
REMARK  4 active torsions:
REMARK  status: ('A' for Active; 'I' for Inactive)
REMARK    1  A    between atoms: C_3  and  O_4 
REMARK    2  A    between atoms: O_4  and  C_5 
REMARK    3  A    between atoms: C_11  and  C_12 
REMARK    4  A    between atoms: C_23  and  N_24 
ROOT
HETATM    1  C   UNL     1      43.805 -15.886   4.881  1.00  0.00     0.244 A 
HETATM    2  N   UNL     1      43.631 -17.292   5.163  1.00  0.00    -0.151 N 
HETATM    3  C   UNL     1      43.369 -17.723   6.439  1.00  0.00     0.734 A 
HETATM    4  N   UNL     1      43.318 -19.036   6.459  1.00  0.00    -0.060 NA
HETATM    5  C   UNL     1      43.586 -19.454   5.179  1.00  0.00     0.103 A 
HETATM    6  C   UNL     1      43.796 -18.368   4.334  1.00  0.00     0.083 A 
HETATM    7  C   UNL     1      43.676 -20.755   4.666  1.00  0.00     0.034 A 
HETATM    8  C   UNL     1      43.976 -20.923   3.310  1.00  0.00     0.002 A 
HETATM    9  C   UNL     1      44.183 -19.817   2.482  1.00  0.00     0.002 A 
HETATM   10  C   UNL     1      44.098 -18.510   2.976  1.00  0.00     0.033 A 
HETATM   11  N   UNL     1      43.205 -16.876   7.479  1.00  0.00    -0.033 NA
HETATM   12  C   UNL     1      43.375 -15.618   7.293  1.00  0.00     0.193 A 
HETATM   13  N   UNL     1      43.704 -15.032   6.064  1.00  0.00    -0.339 N 
HETATM   14  H   UNL     1      43.708 -14.031   5.959  1.00  0.00     0.164 HD
ENDROOT
BRANCH   1  15
HETATM   15  C   UNL     1      42.801 -15.352   3.874  1.00  0.00    -0.014 A 
HETATM   16  C   UNL     1      41.683 -16.110   3.479  1.00  0.00     0.020 A 
HETATM   17  C   UNL     1      40.725 -15.585   2.600  1.00  0.00    -0.027 A 
HETATM   18  C   UNL     1      40.884 -14.274   2.125  1.00  0.00     0.086 A 
HETATM   19  C   UNL     1      39.517 -16.405   2.237  1.00  0.00     0.051 C 
HETATM   20  C   UNL     1      41.964 -13.479   2.538  1.00  0.00    -0.027 A 
HETATM   21  C   UNL     1      42.122 -12.057   2.073  1.00  0.00     0.051 C 
HETATM   22  C   UNL     1      42.927 -14.037   3.393  1.00  0.00     0.020 A 
BRANCH  18  23
HETATM   23  O   UNL     1      39.907 -13.742   1.326  1.00  0.00    -0.289 OA
BRANCH  23  24
HETATM   24  C   UNL     1      40.251 -13.872  -0.048  1.00  0.00     0.505 C 
HETATM   25  F   UNL     1      39.462 -14.843  -0.572  1.00  0.00    -0.184 F 
HETATM   26  F   UNL     1      39.917 -12.716  -0.673  1.00  0.00    -0.184 F 
ENDBRANCH  23  24
ENDBRANCH  18  23
ENDBRANCH   1  15
BRANCH  12  27
HETATM   27  N   UNL     1      43.236 -14.706   8.276  1.00  0.00    -0.272 NA
HETATM   28  H   UNL     1      42.318 -14.775   8.710  1.00  0.00     0.127 HD
HETATM   29  H   UNL     1      43.965 -14.679   8.977  1.00  0.00     0.127 HD
ENDBRANCH  12  27
TORSDOF 4
ENDMDL
MODEL 6
REMARK VINA RESULT:      -8.6     14.731     16.830
REMARK  4 active torsions:
REMARK  status: ('A' for Active; 'I' for Inactive)
REMARK    1  A    between atoms: C_3  and  O_4 
REMARK    2  A    between atoms: O_4  and  C_5 
REMARK    3  A    between atoms: C_11  and  C_12 
REMARK    4  A    between atoms: C_23  and  N_24 
ROOT
HETATM    1  C   UNL     1      46.869 -28.585   0.082  1.00  0.00     0.244 A 
HETATM    2  N   UNL     1      47.835 -29.571   0.509  1.00  0.00    -0.151 N 
HETATM    3  C   UNL     1      47.749 -30.142   1.753  1.00  0.00     0.734 A 
HETATM    4  N   UNL     1      48.768 -30.952   1.938  1.00  0.00    -0.060 NA
HETATM    5  C   UNL     1      49.538 -30.871   0.804  1.00  0.00     0.103 A 
HETATM    6  C   UNL     1      48.974 -29.996  -0.120  1.00  0.00     0.083 A 
HETATM    7  C   UNL     1      50.744 -31.515   0.497  1.00  0.00     0.034 A 
HETATM    8  C   UNL     1      51.349 -31.255  -0.737  1.00  0.00     0.002 A 
HETATM    9  C   UNL     1      50.763 -30.373  -1.648  1.00  0.00     0.002 A 
HETATM   10  C   UNL     1      49.559 -29.720  -1.360  1.00  0.00     0.033 A 
HETATM   11  N   UNL     1      46.747 -29.868   2.617  1.00  0.00    -0.033 NA
HETATM   12  C   UNL     1      45.875 -28.980   2.302  1.00  0.00     0.193 A 
HETATM   13  N   UNL     1      45.864 -28.269   1.096  1.00  0.00    -0.339 N 
HETATM   14  H   UNL     1      45.088 -27.672   0.862  1.00  0.00     0.164 HD
ENDROOT
BRANCH   1  15
HETATM   15  C   UNL     1      46.108 -28.999  -1.167  1.00  0.00    -0.014 A 
HETATM   16  C   UNL     1      45.461 -30.245  -1.253  1.00  0.00     0.020 A 
HETATM   17  C   UNL     1      44.705 -30.594  -2.382  1.00  0.00    -0.027 A 
HETATM   18  C   UNL     1      44.586 -29.669  -3.430  1.00  0.00     0.086 A 
HETATM   19  C   UNL     1      43.987 -31.915  -2.419  1.00  0.00     0.051 C 
HETATM   20  C   UNL     1      45.182 -28.401  -3.352  1.00  0.00    -0.027 A 
HETATM   21  C   UNL     1      45.023 -27.384  -4.449  1.00  0.00     0.051 C 
HETATM   22  C   UNL     1      45.959 -28.088  -2.227  1.00  0.00     0.020 A 
BRANCH  18  23
HETATM   23  O   UNL     1      43.786 -29.986  -4.497  1.00  0.00    -0.289 OA
BRANCH  23  24
HETATM   24  C   UNL     1      44.469 -30.844  -5.403  1.00  0.00     0.505 C 
HETATM   25  F   UNL     1      44.057 -30.519  -6.654  1.00  0.00    -0.184 F 
HETATM   26  F   UNL     1      45.792 -30.552  -5.338  1.00  0.00    -0.184 F 
ENDBRANCH  23  24
ENDBRANCH  18  23
ENDBRANCH   1  15
BRANCH  12  27
HETATM   27  N   UNL     1      44.848 -28.643   3.108  1.00  0.00    -0.272 NA
HETATM   28  H   UNL     1      44.860 -29.196   3.963  1.00  0.00     0.127 HD
HETATM   29  H   UNL     1      44.737 -27.660   3.315  1.00  0.00     0.127 HD
ENDBRANCH  12  27
TORSDOF 4
ENDMDL
MODEL 7
REMARK VINA RESULT:      -8.6      7.542     10.418
REMARK  4 active torsions:
REMARK  status: ('A' for Active; 'I' for Inactive)
REMARK    1  A    between atoms: C_3  and  O_4 
REMARK    2  A    between atoms: O_4  and  C_5 
REMARK    3  A    between atoms: C_11  and  C_12 
REMARK    4  A    between atoms: C_23  and  N_24 
ROOT
HETATM    1  C   UNL     1      40.345  -9.013  11.188  1.00  0.00     0.244 A 
HETATM    2  N   UNL     1      40.784  -8.161  12.268  1.00  0.00    -0.151 N 
HETATM    3  C   UNL     1      40.677  -8.574  13.572  1.00  0.00     0.734 A 
HETATM    4  N   UNL     1      41.076  -7.610  14.373  1.00  0.00    -0.060 NA
HETATM    5  C   UNL     1      41.411  -6.550  13.568  1.00  0.00     0.103 A 
HETATM    6  C   UNL     1      41.230  -6.868  12.225  1.00  0.00     0.083 A 
HETATM    7  C   UNL     1      41.872  -5.274  13.919  1.00  0.00     0.034 A 
HETATM    8  C   UNL     1      42.138  -4.352  12.901  1.00  0.00     0.002 A 
HETATM    9  C   UNL     1      41.948  -4.695  11.560  1.00  0.00     0.002 A 
HETATM   10  C   UNL     1      41.488  -5.964  11.189  1.00  0.00     0.033 A 
HETATM   11  N   UNL     1      40.218  -9.796  13.919  1.00  0.00    -0.033 NA
HETATM   12  C   UNL     1      39.788 -10.585  13.002  1.00  0.00     0.193 A 
HETATM   13  N   UNL     1      39.776 -10.284  11.635  1.00  0.00    -0.339 N 
HETATM   14  H   UNL     1      39.536 -10.990  10.958  1.00  0.00     0.164 HD
ENDROOT
BRANCH   1  15
HETATM   15  C   UNL     1      41.456  -9.356  10.210  1.00  0.00    -0.014 A 
HETATM   16  C   UNL     1      41.263  -9.270   8.819  1.00  0.00     0.020 A 
HETATM   17  C   UNL     1      42.313  -9.524   7.924  1.00  0.00    -0.027 A 
HETATM   18  C   UNL     1      43.577  -9.853   8.436  1.00  0.00     0.086 A 
HETATM   19  C   UNL     1      42.083  -9.375   6.445  1.00  0.00     0.051 C 
HETATM   20  C   UNL     1      43.811  -9.901   9.819  1.00  0.00    -0.027 A 
HETATM   21  C   UNL     1      45.172 -10.207  10.380  1.00  0.00     0.051 C 
HETATM   22  C   UNL     1      42.737  -9.675  10.694  1.00  0.00     0.020 A 
BRANCH  18  23
HETATM   23  O   UNL     1      44.615 -10.026   7.558  1.00  0.00    -0.289 OA
BRANCH  23  24
HETATM   24  C   UNL     1      44.577 -11.327   6.983  1.00  0.00     0.505 C 
HETATM   25  F   UNL     1      45.861 -11.709   6.766  1.00  0.00    -0.184 F 
HETATM   26  F   UNL     1      44.066 -12.177   7.906  1.00  0.00    -0.184 F 
ENDBRANCH  23  24
ENDBRANCH  18  23
ENDBRANCH   1  15
BRANCH  12  27
HETATM   27  N   UNL     1      39.308 -11.818  13.262  1.00  0.00    -0.272 NA
HETATM   28  H   UNL     1      39.237 -12.368  12.408  1.00  0.00     0.127 HD
HETATM   29  H   UNL     1      39.774 -12.342  13.991  1.00  0.00     0.127 HD
ENDBRANCH  12  27
TORSDOF 4
ENDMDL
MODEL 8
REMARK VINA RESULT:      -8.6      4.463      7.117
REMARK  4 active torsions:
REMARK  status: ('A' for Active; 'I' for Inactive)
REMARK    1  A    between atoms: C_3  and  O_4 
REMARK    2  A    between atoms: O_4  and  C_5 
REMARK    3  A    between atoms: C_11  and  C_12 
REMARK    4  A    between atoms: C_23  and  N_24 
ROOT
HETATM    1  C   UNL     1      41.749 -11.963   5.014  1.00  0.00     0.244 A 
HETATM    2  N   UNL     1      42.293 -13.256   4.669  1.00  0.00    -0.151 N 
HETATM    3  C   UNL     1      42.750 -13.507   3.400  1.00  0.00     0.734 A 
HETATM    4  N   UNL     1      43.132 -14.761   3.309  1.00  0.00    -0.060 NA
HETATM    5  C   UNL     1      42.884 -15.332   4.533  1.00  0.00     0.103 A 
HETATM    6  C   UNL     1      42.343 -14.402   5.416  1.00  0.00     0.083 A 
HETATM    7  C   UNL     1      43.087 -16.652   4.960  1.00  0.00     0.034 A 
HETATM    8  C   UNL     1      42.738 -16.995   6.270  1.00  0.00     0.002 A 
HETATM    9  C   UNL     1      42.198 -16.043   7.138  1.00  0.00     0.002 A 
HETATM   10  C   UNL     1      41.987 -14.721   6.730  1.00  0.00     0.033 A 
HETATM   11  N   UNL     1      42.772 -12.567   2.430  1.00  0.00    -0.033 NA
HETATM   12  C   UNL     1      42.277 -11.408   2.672  1.00  0.00     0.193 A 
HETATM   13  N   UNL     1      41.720 -11.020   3.897  1.00  0.00    -0.339 N 
HETATM   14  H   UNL     1      41.456 -10.062   4.058  1.00  0.00     0.164 HD
ENDROOT
BRANCH   1  15
HETATM   15  C   UNL     1      42.508 -11.279   6.139  1.00  0.00    -0.014 A 
HETATM   16  C   UNL     1      43.902 -11.419   6.275  1.00  0.00     0.020 A 
HETATM   17  C   UNL     1      44.605 -10.731   7.275  1.00  0.00    -0.027 A 
HETATM   18  C   UNL     1      43.899  -9.880   8.138  1.00  0.00     0.086 A 
HETATM   19  C   UNL     1      46.101 -10.866   7.362  1.00  0.00     0.051 C 
HETATM   20  C   UNL     1      42.517  -9.685   7.996  1.00  0.00    -0.027 A 
HETATM   21  C   UNL     1      41.756  -8.740   8.886  1.00  0.00     0.051 C 
HETATM   22  C   UNL     1      41.830 -10.408   7.009  1.00  0.00     0.020 A 
BRANCH  18  23
HETATM   23  O   UNL     1      44.602  -9.155   9.065  1.00  0.00    -0.289 OA
BRANCH  23  24
HETATM   24  C   UNL     1      44.547  -9.779  10.342  1.00  0.00     0.505 C 
HETATM   25  F   UNL     1      45.777 -10.291  10.595  1.00  0.00    -0.184 F 
HETATM   26  F   UNL     1      44.326  -8.813  11.268  1.00  0.00    -0.184 F 
ENDBRANCH  23  24
ENDBRANCH  18  23
ENDBRANCH   1  15
BRANCH  12  27
HETATM   27  N   UNL     1      42.254 -10.415   1.760  1.00  0.00    -0.272 NA
HETATM   28  H   UNL     1      43.159  -9.952   1.704  1.00  0.00     0.127 HD
HETATM   29  H   UNL     1      41.913 -10.654   0.838  1.00  0.00     0.127 HD
ENDBRANCH  12  27
TORSDOF 4
ENDMDL
MODEL 9
REMARK VINA RESULT:      -8.5      2.507      4.002
REMARK  4 active torsions:
REMARK  status: ('A' for Active; 'I' for Inactive)
REMARK    1  A    between atoms: C_3  and  O_4 
REMARK    2  A    between atoms: O_4  and  C_5 
REMARK    3  A    between atoms: C_11  and  C_12 
REMARK    4  A    between atoms: C_23  and  N_24 
ROOT
HETATM    1  C   UNL     1      42.014 -11.552   4.445  1.00  0.00     0.244 A 
HETATM    2  N   UNL     1      42.444 -10.989   5.704  1.00  0.00    -0.151 N 
HETATM    3  C   UNL     1      41.578 -10.256   6.475  1.00  0.00     0.734 A 
HETATM    4  N   UNL     1      42.210  -9.797   7.532  1.00  0.00    -0.060 NA
HETATM    5  C   UNL     1      43.512 -10.216   7.418  1.00  0.00     0.103 A 
HETATM    6  C   UNL     1      43.693 -10.970   6.262  1.00  0.00     0.083 A 
HETATM    7  C   UNL     1      44.603  -9.979   8.265  1.00  0.00     0.034 A 
HETATM    8  C   UNL     1      45.850 -10.512   7.920  1.00  0.00     0.002 A 
HETATM    9  C   UNL     1      46.006 -11.267   6.755  1.00  0.00     0.002 A 
HETATM   10  C   UNL     1      44.929 -11.514   5.896  1.00  0.00     0.033 A 
HETATM   11  N   UNL     1      40.283 -10.064   6.141  1.00  0.00    -0.033 NA
HETATM   12  C   UNL     1      39.853 -10.517   5.020  1.00  0.00     0.193 A 
HETATM   13  N   UNL     1      40.629 -11.233   4.100  1.00  0.00    -0.339 N 
HETATM   14  H   UNL     1      40.203 -11.661   3.295  1.00  0.00     0.164 HD
ENDROOT
BRANCH   1  15
HETATM   15  C   UNL     1      42.134 -13.066   4.396  1.00  0.00    -0.014 A 
HETATM   16  C   UNL     1      42.640 -13.726   3.262  1.00  0.00     0.020 A 
HETATM   17  C   UNL     1      42.811 -15.119   3.249  1.00  0.00    -0.027 A 
HETATM   18  C   UNL     1      42.483 -15.853   4.398  1.00  0.00     0.086 A 
HETATM   19  C   UNL     1      43.400 -15.786   2.036  1.00  0.00     0.051 C 
HETATM   20  C   UNL     1      42.020 -15.217   5.560  1.00  0.00    -0.027 A 
HETATM   21  C   UNL     1      41.710 -15.988   6.814  1.00  0.00     0.051 C 
HETATM   22  C   UNL     1      41.828 -13.827   5.538  1.00  0.00     0.020 A 
BRANCH  18  23
HETATM   23  O   UNL     1      42.722 -17.203   4.405  1.00  0.00    -0.289 OA
BRANCH  23  24
HETATM   24  C   UNL     1      44.040 -17.480   4.863  1.00  0.00     0.505 C 
HETATM   25  F   UNL     1      43.926 -18.222   5.993  1.00  0.00    -0.184 F 
HETATM   26  F   UNL     1      44.648 -18.263   3.939  1.00  0.00    -0.184 F 
ENDBRANCH  23  24
ENDBRANCH  18  23
ENDBRANCH   1  15
BRANCH  12  27
HETATM   27  N   UNL     1      38.578 -10.365   4.608  1.00  0.00    -0.272 NA
HETATM   28  H   UNL     1      38.318 -11.098   3.951  1.00  0.00     0.127 HD
HETATM   29  H   UNL     1      37.877 -10.263   5.330  1.00  0.00     0.127 HD
ENDBRANCH  12  27
TORSDOF 4
ENDMDL
MODEL 10
REMARK VINA RESULT:      -8.5      4.640      6.925
REMARK  4 active torsions:
REMARK  status: ('A' for Active; 'I' for Inactive)
REMARK    1  A    between atoms: C_3  and  O_4 
REMARK    2  A    between atoms: O_4  and  C_5 
REMARK    3  A    between atoms: C_11  and  C_12 
REMARK    4  A    between atoms: C_23  and  N_24 
ROOT
HETATM    1  C   UNL     1      41.251 -11.249   4.378  1.00  0.00     0.244 A 
HETATM    2  N   UNL     1      41.253 -12.640   3.990  1.00  0.00    -0.151 N 
HETATM    3  C   UNL     1      41.499 -13.004   2.691  1.00  0.00     0.734 A 
HETATM    4  N   UNL     1      41.382 -14.308   2.569  1.00  0.00    -0.060 NA
HETATM    5  C   UNL     1      41.021 -14.783   3.805  1.00  0.00     0.103 A 
HETATM    6  C   UNL     1      40.924 -13.745   4.728  1.00  0.00     0.083 A 
HETATM    7  C   UNL     1      40.749 -16.096   4.212  1.00  0.00     0.034 A 
HETATM    8  C   UNL     1      40.385 -16.325   5.543  1.00  0.00     0.002 A 
HETATM    9  C   UNL     1      40.295 -15.267   6.451  1.00  0.00     0.002 A 
HETATM   10  C   UNL     1      40.562 -13.949   6.064  1.00  0.00     0.033 A 
HETATM   11  N   UNL     1      41.804 -12.110   1.725  1.00  0.00    -0.033 NA
HETATM   12  C   UNL     1      41.790 -10.858   2.006  1.00  0.00     0.193 A 
HETATM   13  N   UNL     1      41.499 -10.329   3.269  1.00  0.00    -0.339 N 
HETATM   14  H   UNL     1      41.620  -9.346   3.452  1.00  0.00     0.164 HD
ENDROOT
BRANCH   1  15
HETATM   15  C   UNL     1      42.282 -10.927   5.447  1.00  0.00    -0.014 A 
HETATM   16  C   UNL     1      41.913 -10.332   6.667  1.00  0.00     0.020 A 
HETATM   17  C   UNL     1      42.860 -10.098   7.676  1.00  0.00    -0.027 A 
HETATM   18  C   UNL     1      44.191 -10.484   7.459  1.00  0.00     0.086 A 
HETATM   19  C   UNL     1      42.421  -9.506   8.986  1.00  0.00     0.051 C 
HETATM   20  C   UNL     1      44.579 -11.121   6.270  1.00  0.00    -0.027 A 
HETATM   21  C   UNL     1      45.994 -11.580   6.045  1.00  0.00     0.051 C 
HETATM   22  C   UNL     1      43.621 -11.314   5.264  1.00  0.00     0.020 A 
BRANCH  18  23
HETATM   23  O   UNL     1      45.095 -10.321   8.476  1.00  0.00    -0.289 OA
BRANCH  23  24
HETATM   24  C   UNL     1      45.595  -8.989   8.499  1.00  0.00     0.505 C 
HETATM   25  F   UNL     1      45.835  -8.670   9.795  1.00  0.00    -0.184 F 
HETATM   26  F   UNL     1      46.794  -8.982   7.865  1.00  0.00    -0.184 F 
ENDBRANCH  23  24
ENDBRANCH  18  23
ENDBRANCH   1  15
BRANCH  12  27
HETATM   27  N   UNL     1      42.077  -9.901   1.100  1.00  0.00    -0.272 NA
HETATM   28  H   UNL     1      43.068  -9.903   0.870  1.00  0.00     0.127 HD
HETATM   29  H   UNL     1      41.511  -9.885   0.262  1.00  0.00     0.127 HD
ENDBRANCH  12  27
TORSDOF 4
ENDMDL
