MODEL 1
REMARK VINA RESULT:      -9.4      0.000      0.000
REMARK  8 active torsions:
REMARK  status: ('A' for Active; 'I' for Inactive)
REMARK    1  A    between atoms: C_8  and  C_9 
REMARK    2  A    between atoms: C_9  and  C_10 
REMARK       I    between atoms: C_10  and  N_11 
REMARK    3  A    between atoms: N_11  and  C_12 
REMARK    4  A    between atoms: N_11  and  C_27 
REMARK    5  A    between atoms: C_12  and  C_13 
REMARK    6  A    between atoms: C_12  and  C_22 
REMARK       I    between atoms: C_13  and  N_14 
REMARK    7  A    between atoms: N_14  and  C_15 
REMARK    8  A    between atoms: C_27  and  C_28 
ROOT
HETATM    1  C   UNL     1      41.784 -15.236   3.019  1.00  0.00     0.225 C 
HETATM    2  N   UNL     1      41.506 -13.973   3.554  1.00  0.00    -0.330 N 
HETATM    3  O   UNL     1      40.887 -15.979   2.607  1.00  0.00    -0.273 OA
ENDROOT
BRANCH   2   4
HETATM    4  C   UNL     1      40.085 -13.563   3.622  1.00  0.00     0.219 C 
BRANCH   4   5
HETATM    5  C   UNL     1      39.739 -12.909   4.990  1.00  0.00     0.246 C 
HETATM    6  N   UNL     1      39.834 -11.532   5.065  1.00  0.00    -0.354 N 
HETATM    7  H   UNL     1      40.501 -11.147   4.399  1.00  0.00     0.162 HD
HETATM    8  O   UNL     1      39.487 -13.610   5.973  1.00  0.00    -0.271 OA
BRANCH   6   9
HETATM    9  C   UNL     1      39.698 -10.800   6.322  1.00  0.00     0.084 C 
HETATM   10  C   UNL     1      41.076 -10.308   6.797  1.00  0.00     0.025 C 
HETATM   11  C   UNL     1      41.621  -9.163   5.941  1.00  0.00     0.002 C 
HETATM   12  C   UNL     1      40.632  -8.005   5.854  1.00  0.00     0.000 C 
HETATM   13  C   UNL     1      39.264  -8.472   5.369  1.00  0.00     0.002 C 
HETATM   14  C   UNL     1      38.724  -9.612   6.230  1.00  0.00     0.025 C 
ENDBRANCH   6   9
ENDBRANCH   4   5
BRANCH   4  15
HETATM   15  C   UNL     1      39.619 -12.788   2.396  1.00  0.00     0.014 A 
HETATM   16  S   UNL     1      40.032 -13.392   0.830  1.00  0.00    -0.104 SA
HETATM   17  C   UNL     1      39.244 -12.100   0.038  1.00  0.00     0.050 A 
HETATM   18  C   UNL     1      38.698 -11.206   0.927  1.00  0.00     0.008 A 
HETATM   19  C   UNL     1      38.926 -11.593   2.280  1.00  0.00     0.017 A 
ENDBRANCH   4  15
ENDBRANCH   2   4
BRANCH   2  20
HETATM   20  C   UNL     1      42.493 -12.892   3.449  1.00  0.00     0.165 C 
BRANCH  20  21
HETATM   21  C   UNL     1      43.245 -12.594   4.725  1.00  0.00    -0.037 A 
HETATM   22  C   UNL     1      44.165 -11.534   4.772  1.00  0.00     0.048 A 
HETATM   23  C   UNL     1      44.782 -11.265   5.976  1.00  0.00     0.105 A 
HETATM   24  C   UNL     1      44.529 -12.009   7.104  1.00  0.00     0.105 A 
HETATM   25  O   UNL     1      45.673 -10.263   6.205  1.00  0.00    -0.323 OA
HETATM   26  O   UNL     1      45.229 -11.571   8.184  1.00  0.00    -0.323 OA
HETATM   27  C   UNL     1      43.645 -13.067   7.094  1.00  0.00     0.040 A 
HETATM   28  C   UNL     1      45.931 -10.448   7.612  1.00  0.00     0.352 A 
HETATM   29  C   UNL     1      42.996 -13.356   5.891  1.00  0.00     0.012 A 
ENDBRANCH  20  21
ENDBRANCH   2  20
BRANCH   1  30
HETATM   30  C   UNL     1      43.214 -15.753   3.072  1.00  0.00     0.144 C 
BRANCH  30  31
HETATM   31  C   UNL     1      43.491 -16.937   3.948  1.00  0.00    -0.021 A 
HETATM   32  C   UNL     1      43.567 -18.335   3.626  1.00  0.00    -0.001 A 
HETATM   33  C   UNL     1      43.402 -19.100   2.451  1.00  0.00     0.014 A 
HETATM   34  C   UNL     1      43.914 -19.014   4.798  1.00  0.00     0.042 A 
HETATM   35  C   UNL     1      43.617 -20.483   2.482  1.00  0.00     0.001 A 
HETATM   36  C   UNL     1      43.974 -21.121   3.665  1.00  0.00     0.002 A 
HETATM   37  C   UNL     1      44.121 -20.397   4.850  1.00  0.00     0.030 A 
HETATM   38  N   UNL     1      43.997 -18.081   5.802  1.00  0.00    -0.365 N 
HETATM   39  H   UNL     1      44.220 -18.294   6.765  1.00  0.00     0.165 HD
HETATM   40  C   UNL     1      43.749 -16.833   5.306  1.00  0.00     0.097 A 
ENDBRANCH  30  31
ENDBRANCH   1  30
TORSDOF 8
ENDMDL
MODEL 2
REMARK VINA RESULT:      -9.1      1.782      2.872
REMARK  8 active torsions:
REMARK  status: ('A' for Active; 'I' for Inactive)
REMARK    1  A    between atoms: C_8  and  C_9 
REMARK    2  A    between atoms: C_9  and  C_10 
REMARK       I    between atoms: C_10  and  N_11 
REMARK    3  A    between atoms: N_11  and  C_12 
REMARK    4  A    between atoms: N_11  and  C_27 
REMARK    5  A    between atoms: C_12  and  C_13 
REMARK    6  A    between atoms: C_12  and  C_22 
REMARK       I    between atoms: C_13  and  N_14 
REMARK    7  A    between atoms: N_14  and  C_15 
REMARK    8  A    between atoms: C_27  and  C_28 
ROOT
HETATM    1  C   UNL     1      41.560 -14.263   5.867  1.00  0.00     0.225 C 
HETATM    2  N   UNL     1      42.080 -13.014   5.509  1.00  0.00    -0.330 N 
HETATM    3  O   UNL     1      40.425 -14.616   5.531  1.00  0.00    -0.273 OA
ENDROOT
BRANCH   2   4
HETATM    4  C   UNL     1      41.206 -12.118   4.717  1.00  0.00     0.219 C 
BRANCH   4   5
HETATM    5  C   UNL     1      41.618 -10.627   4.871  1.00  0.00     0.246 C 
HETATM    6  N   UNL     1      41.184  -9.974   6.009  1.00  0.00    -0.354 N 
HETATM    7  H   UNL     1      40.327 -10.372   6.388  1.00  0.00     0.162 HD
HETATM    8  O   UNL     1      42.223 -10.048   3.965  1.00  0.00    -0.271 OA
BRANCH   6   9
HETATM    9  C   UNL     1      41.357  -8.537   6.207  1.00  0.00     0.084 C 
HETATM   10  C   UNL     1      39.987  -7.861   6.389  1.00  0.00     0.025 C 
HETATM   11  C   UNL     1      39.344  -8.186   7.739  1.00  0.00     0.002 C 
HETATM   12  C   UNL     1      40.273  -7.851   8.901  1.00  0.00     0.000 C 
HETATM   13  C   UNL     1      41.631  -8.526   8.745  1.00  0.00     0.002 C 
HETATM   14  C   UNL     1      42.269  -8.194   7.398  1.00  0.00     0.025 C 
ENDBRANCH   6   9
ENDBRANCH   4   5
BRANCH   4  15
HETATM   15  C   UNL     1      40.997 -12.588   3.282  1.00  0.00     0.014 A 
HETATM   16  S   UNL     1      39.387 -12.652   2.659  1.00  0.00    -0.104 SA
HETATM   17  C   UNL     1      39.913 -13.232   1.142  1.00  0.00     0.050 A 
HETATM   18  C   UNL     1      41.276 -13.405   1.101  1.00  0.00     0.008 A 
HETATM   19  C   UNL     1      41.896 -13.051   2.334  1.00  0.00     0.017 A 
ENDBRANCH   4  15
ENDBRANCH   2   4
BRANCH   2  20
HETATM   20  C   UNL     1      43.525 -12.837   5.333  1.00  0.00     0.165 C 
BRANCH  20  21
HETATM   21  C   UNL     1      44.192 -11.978   6.382  1.00  0.00    -0.037 A 
HETATM   22  C   UNL     1      43.628 -11.860   7.662  1.00  0.00     0.048 A 
HETATM   23  C   UNL     1      44.306 -11.111   8.602  1.00  0.00     0.105 A 
HETATM   24  C   UNL     1      45.492 -10.481   8.310  1.00  0.00     0.105 A 
HETATM   25  O   UNL     1      43.920 -10.918   9.892  1.00  0.00    -0.323 OA
HETATM   26  O   UNL     1      46.000  -9.809   9.376  1.00  0.00    -0.323 OA
HETATM   27  C   UNL     1      46.068 -10.559   7.060  1.00  0.00     0.040 A 
HETATM   28  C   UNL     1      45.012 -10.112  10.382  1.00  0.00     0.352 A 
HETATM   29  C   UNL     1      45.410 -11.320   6.090  1.00  0.00     0.012 A 
ENDBRANCH  20  21
ENDBRANCH   2  20
BRANCH   1  30
HETATM   30  C   UNL     1      42.367 -15.147   6.806  1.00  0.00     0.144 C 
BRANCH  30  31
HETATM   31  C   UNL     1      42.873 -16.451   6.268  1.00  0.00    -0.021 A 
HETATM   32  C   UNL     1      43.056 -16.889   4.911  1.00  0.00    -0.001 A 
HETATM   33  C   UNL     1      42.830 -16.321   3.639  1.00  0.00     0.014 A 
HETATM   34  C   UNL     1      43.614 -18.170   4.960  1.00  0.00     0.042 A 
HETATM   35  C   UNL     1      43.192 -17.027   2.485  1.00  0.00     0.001 A 
HETATM   36  C   UNL     1      43.757 -18.294   2.574  1.00  0.00     0.002 A 
HETATM   37  C   UNL     1      43.970 -18.894   3.816  1.00  0.00     0.030 A 
HETATM   38  N   UNL     1      43.720 -18.520   6.283  1.00  0.00    -0.365 N 
HETATM   39  H   UNL     1      44.081 -19.405   6.614  1.00  0.00     0.165 HD
HETATM   40  C   UNL     1      43.284 -17.499   7.076  1.00  0.00     0.097 A 
ENDBRANCH  30  31
ENDBRANCH   1  30
TORSDOF 8
ENDMDL
MODEL 3
REMARK VINA RESULT:      -9.0      2.335      5.443
REMARK  8 active torsions:
REMARK  status: ('A' for Active; 'I' for Inactive)
REMARK    1  A    between atoms: C_8  and  C_9 
REMARK    2  A    between atoms: C_9  and  C_10 
REMARK       I    between atoms: C_10  and  N_11 
REMARK    3  A    between atoms: N_11  and  C_12 
REMARK    4  A    between atoms: N_11  and  C_27 
REMARK    5  A    between atoms: C_12  and  C_13 
REMARK    6  A    between atoms: C_12  and  C_22 
REMARK       I    between atoms: C_13  and  N_14 
REMARK    7  A    between atoms: N_14  and  C_15 
REMARK    8  A    between atoms: C_27  and  C_28 
ROOT
HETATM    1  C   UNL     1      40.981 -15.020   2.490  1.00  0.00     0.225 C 
HETATM    2  N   UNL     1      40.957 -13.622   2.410  1.00  0.00    -0.330 N 
HETATM    3  O   UNL     1      40.071 -15.657   3.031  1.00  0.00    -0.273 OA
ENDROOT
BRANCH   2   4
HETATM    4  C   UNL     1      39.796 -12.930   3.015  1.00  0.00     0.219 C 
BRANCH   4   5
HETATM    5  C   UNL     1      40.043 -12.590   4.511  1.00  0.00     0.246 C 
HETATM    6  N   UNL     1      41.359 -12.543   4.931  1.00  0.00    -0.354 N 
HETATM    7  H   UNL     1      41.973 -13.130   4.369  1.00  0.00     0.162 HD
HETATM    8  O   UNL     1      39.095 -12.466   5.290  1.00  0.00    -0.271 OA
BRANCH   6   9
HETATM    9  C   UNL     1      41.733 -12.399   6.336  1.00  0.00     0.084 C 
HETATM   10  C   UNL     1      42.682 -13.537   6.749  1.00  0.00     0.025 C 
HETATM   11  C   UNL     1      44.078 -13.391   6.140  1.00  0.00     0.002 C 
HETATM   12  C   UNL     1      44.692 -12.031   6.458  1.00  0.00     0.000 C 
HETATM   13  C   UNL     1      43.771 -10.889   6.040  1.00  0.00     0.002 C 
HETATM   14  C   UNL     1      42.381 -11.039   6.654  1.00  0.00     0.025 C 
ENDBRANCH   6   9
ENDBRANCH   4   5
BRANCH   4  15
HETATM   15  C   UNL     1      39.269 -11.778   2.167  1.00  0.00     0.014 A 
HETATM   16  S   UNL     1      40.037 -10.236   2.298  1.00  0.00    -0.104 SA
HETATM   17  C   UNL     1      38.979  -9.525   1.161  1.00  0.00     0.050 A 
HETATM   18  C   UNL     1      38.040 -10.417   0.703  1.00  0.00     0.008 A 
HETATM   19  C   UNL     1      38.196 -11.706   1.291  1.00  0.00     0.017 A 
ENDBRANCH   4  15
ENDBRANCH   2   4
BRANCH   2  20
HETATM   20  C   UNL     1      41.621 -12.934   1.298  1.00  0.00     0.165 C 
BRANCH  20  21
HETATM   21  C   UNL     1      40.962 -13.119  -0.048  1.00  0.00    -0.037 A 
HETATM   22  C   UNL     1      40.231 -14.286  -0.323  1.00  0.00     0.048 A 
HETATM   23  C   UNL     1      39.598 -14.380  -1.545  1.00  0.00     0.105 A 
HETATM   24  C   UNL     1      39.679 -13.380  -2.485  1.00  0.00     0.105 A 
HETATM   25  O   UNL     1      38.828 -15.421  -1.962  1.00  0.00    -0.323 OA
HETATM   26  O   UNL     1      38.975 -13.666  -3.611  1.00  0.00    -0.323 OA
HETATM   27  C   UNL     1      40.400 -12.227  -2.258  1.00  0.00     0.040 A 
HETATM   28  C   UNL     1      38.417 -14.950  -3.262  1.00  0.00     0.352 A 
HETATM   29  C   UNL     1      41.043 -12.098  -1.025  1.00  0.00     0.012 A 
ENDBRANCH  20  21
ENDBRANCH   2  20
BRANCH   1  30
HETATM   30  C   UNL     1      42.227 -15.755   2.017  1.00  0.00     0.144 C 
BRANCH  30  31
HETATM   31  C   UNL     1      42.901 -16.674   2.991  1.00  0.00    -0.021 A 
HETATM   32  C   UNL     1      43.148 -18.088   2.918  1.00  0.00    -0.001 A 
HETATM   33  C   UNL     1      42.857 -19.106   1.984  1.00  0.00     0.014 A 
HETATM   34  C   UNL     1      43.866 -18.444   4.063  1.00  0.00     0.042 A 
HETATM   35  C   UNL     1      43.316 -20.410   2.208  1.00  0.00     0.001 A 
HETATM   36  C   UNL     1      44.039 -20.723   3.353  1.00  0.00     0.002 A 
HETATM   37  C   UNL     1      44.321 -19.745   4.308  1.00  0.00     0.030 A 
HETATM   38  N   UNL     1      44.009 -17.311   4.826  1.00  0.00    -0.365 N 
HETATM   39  H   UNL     1      44.479 -17.279   5.720  1.00  0.00     0.165 HD
HETATM   40  C   UNL     1      43.439 -16.244   4.194  1.00  0.00     0.097 A 
ENDBRANCH  30  31
ENDBRANCH   1  30
TORSDOF 8
ENDMDL
MODEL 4
REMARK VINA RESULT:      -8.9      2.090      4.184
REMARK  8 active torsions:
REMARK  status: ('A' for Active; 'I' for Inactive)
REMARK    1  A    between atoms: C_8  and  C_9 
REMARK    2  A    between atoms: C_9  and  C_10 
REMARK       I    between atoms: C_10  and  N_11 
REMARK    3  A    between atoms: N_11  and  C_12 
REMARK    4  A    between atoms: N_11  and  C_27 
REMARK    5  A    between atoms: C_12  and  C_13 
REMARK    6  A    between atoms: C_12  and  C_22 
REMARK       I    between atoms: C_13  and  N_14 
REMARK    7  A    between atoms: N_14  and  C_15 
REMARK    8  A    between atoms: C_27  and  C_28 
ROOT
HETATM    1  C   UNL     1      41.251 -13.906   5.407  1.00  0.00     0.225 C 
HETATM    2  N   UNL     1      42.177 -12.873   5.602  1.00  0.00    -0.330 N 
HETATM    3  O   UNL     1      40.343 -13.817   4.575  1.00  0.00    -0.273 OA
ENDROOT
BRANCH   2   4
HETATM    4  C   UNL     1      42.016 -11.655   4.775  1.00  0.00     0.219 C 
BRANCH   4   5
HETATM    5  C   UNL     1      42.474 -11.890   3.308  1.00  0.00     0.246 C 
HETATM    6  N   UNL     1      41.548 -12.446   2.446  1.00  0.00    -0.354 N 
HETATM    7  H   UNL     1      40.855 -13.016   2.927  1.00  0.00     0.162 HD
HETATM    8  O   UNL     1      43.642 -11.673   2.975  1.00  0.00    -0.271 OA
BRANCH   6   9
HETATM    9  C   UNL     1      41.888 -12.871   1.091  1.00  0.00     0.084 C 
HETATM   10  C   UNL     1      41.638 -14.381   0.933  1.00  0.00     0.025 C 
HETATM   11  C   UNL     1      40.149 -14.731   0.899  1.00  0.00     0.002 C 
HETATM   12  C   UNL     1      39.410 -13.943  -0.178  1.00  0.00     0.000 C 
HETATM   13  C   UNL     1      39.633 -12.443  -0.027  1.00  0.00     0.002 C 
HETATM   14  C   UNL     1      41.121 -12.099   0.002  1.00  0.00     0.025 C 
ENDBRANCH   6   9
ENDBRANCH   4   5
BRANCH   4  15
HETATM   15  C   UNL     1      40.652 -10.993   4.931  1.00  0.00     0.014 A 
HETATM   16  S   UNL     1      40.038 -10.729   6.524  1.00  0.00    -0.104 SA
HETATM   17  C   UNL     1      38.597 -10.027   5.937  1.00  0.00     0.050 A 
HETATM   18  C   UNL     1      38.553 -10.010   4.564  1.00  0.00     0.008 A 
HETATM   19  C   UNL     1      39.726 -10.579   3.986  1.00  0.00     0.017 A 
ENDBRANCH   4  15
ENDBRANCH   2   4
BRANCH   2  20
HETATM   20  C   UNL     1      43.536 -13.176   6.061  1.00  0.00     0.165 C 
BRANCH  20  21
HETATM   21  C   UNL     1      44.175 -12.099   6.907  1.00  0.00    -0.037 A 
HETATM   22  C   UNL     1      43.537 -11.645   8.073  1.00  0.00     0.048 A 
HETATM   23  C   UNL     1      44.189 -10.704   8.842  1.00  0.00     0.105 A 
HETATM   24  C   UNL     1      45.420 -10.203   8.489  1.00  0.00     0.105 A 
HETATM   25  O   UNL     1      43.732 -10.179  10.011  1.00  0.00    -0.323 OA
HETATM   26  O   UNL     1      45.890  -9.298   9.388  1.00  0.00    -0.323 OA
HETATM   27  C   UNL     1      46.069 -10.611   7.345  1.00  0.00     0.040 A 
HETATM   28  C   UNL     1      44.827  -9.308  10.363  1.00  0.00     0.352 A 
HETATM   29  C   UNL     1      45.439 -11.572   6.550  1.00  0.00     0.012 A 
ENDBRANCH  20  21
ENDBRANCH   2  20
BRANCH   1  30
HETATM   30  C   UNL     1      41.292 -15.106   6.341  1.00  0.00     0.144 C 
BRANCH  30  31
HETATM   31  C   UNL     1      42.279 -16.191   6.034  1.00  0.00    -0.021 A 
HETATM   32  C   UNL     1      42.568 -16.863   4.797  1.00  0.00    -0.001 A 
HETATM   33  C   UNL     1      42.063 -16.794   3.481  1.00  0.00     0.014 A 
HETATM   34  C   UNL     1      43.620 -17.751   5.043  1.00  0.00     0.042 A 
HETATM   35  C   UNL     1      42.638 -17.576   2.471  1.00  0.00     0.001 A 
HETATM   36  C   UNL     1      43.691 -18.438   2.751  1.00  0.00     0.002 A 
HETATM   37  C   UNL     1      44.198 -18.548   4.048  1.00  0.00     0.030 A 
HETATM   38  N   UNL     1      43.927 -17.664   6.378  1.00  0.00    -0.365 N 
HETATM   39  H   UNL     1      44.645 -18.207   6.838  1.00  0.00     0.165 HD
HETATM   40  C   UNL     1      43.134 -16.731   6.982  1.00  0.00     0.097 A 
ENDBRANCH  30  31
ENDBRANCH   1  30
TORSDOF 8
ENDMDL
MODEL 5
REMARK VINA RESULT:      -8.8      2.412      5.156
REMARK  8 active torsions:
REMARK  status: ('A' for Active; 'I' for Inactive)
REMARK    1  A    between atoms: C_8  and  C_9 
REMARK    2  A    between atoms: C_9  and  C_10 
REMARK       I    between atoms: C_10  and  N_11 
REMARK    3  A    between atoms: N_11  and  C_12 
REMARK    4  A    between atoms: N_11  and  C_27 
REMARK    5  A    between atoms: C_12  and  C_13 
REMARK    6  A    between atoms: C_12  and  C_22 
REMARK       I    between atoms: C_13  and  N_14 
REMARK    7  A    between atoms: N_14  and  C_15 
REMARK    8  A    between atoms: C_27  and  C_28 
ROOT
HETATM    1  C   UNL     1      42.992 -13.841   5.823  1.00  0.00     0.225 C 
HETATM    2  N   UNL     1      41.955 -12.986   5.433  1.00  0.00    -0.330 N 
HETATM    3  O   UNL     1      43.684 -13.612   6.821  1.00  0.00    -0.273 OA
ENDROOT
BRANCH   2   4
HETATM    4  C   UNL     1      41.725 -11.779   6.259  1.00  0.00     0.219 C 
BRANCH   4   5
HETATM    5  C   UNL     1      43.034 -10.968   6.470  1.00  0.00     0.246 C 
HETATM    6  N   UNL     1      43.376 -10.662   7.774  1.00  0.00    -0.354 N 
HETATM    7  H   UNL     1      42.568 -10.614   8.391  1.00  0.00     0.162 HD
HETATM    8  O   UNL     1      43.672 -10.546   5.502  1.00  0.00    -0.271 OA
BRANCH   6   9
HETATM    9  C   UNL     1      44.484  -9.771   8.109  1.00  0.00     0.084 C 
HETATM   10  C   UNL     1      43.949  -8.370   8.454  1.00  0.00     0.025 C 
HETATM   11  C   UNL     1      43.226  -8.330   9.802  1.00  0.00     0.002 C 
HETATM   12  C   UNL     1      44.105  -8.867  10.928  1.00  0.00     0.000 C 
HETATM   13  C   UNL     1      44.631 -10.263  10.611  1.00  0.00     0.002 C 
HETATM   14  C   UNL     1      45.354 -10.295   9.266  1.00  0.00     0.025 C 
ENDBRANCH   6   9
ENDBRANCH   4   5
BRANCH   4  15
HETATM   15  C   UNL     1      40.519 -10.961   5.814  1.00  0.00     0.014 A 
HETATM   16  S   UNL     1      39.027 -11.155   6.665  1.00  0.00    -0.104 SA
HETATM   17  C   UNL     1      38.222 -10.025   5.670  1.00  0.00     0.050 A 
HETATM   18  C   UNL     1      39.044  -9.523   4.690  1.00  0.00     0.008 A 
HETATM   19  C   UNL     1      40.358 -10.071   4.763  1.00  0.00     0.017 A 
ENDBRANCH   4  15
ENDBRANCH   2   4
BRANCH   2  20
HETATM   20  C   UNL     1      40.792 -13.515   4.713  1.00  0.00     0.165 C 
BRANCH  20  21
HETATM   21  C   UNL     1      40.864 -13.385   3.209  1.00  0.00    -0.037 A 
HETATM   22  C   UNL     1      40.227 -14.328   2.386  1.00  0.00     0.048 A 
HETATM   23  C   UNL     1      40.272 -14.131   1.022  1.00  0.00     0.105 A 
HETATM   24  C   UNL     1      40.926 -13.059   0.463  1.00  0.00     0.105 A 
HETATM   25  O   UNL     1      39.686 -14.926   0.086  1.00  0.00    -0.323 OA
HETATM   26  O   UNL     1      40.839 -13.045  -0.893  1.00  0.00    -0.323 OA
HETATM   27  C   UNL     1      41.577 -12.122   1.236  1.00  0.00     0.040 A 
HETATM   28  C   UNL     1      40.029 -14.217  -1.123  1.00  0.00     0.352 A 
HETATM   29  C   UNL     1      41.540 -12.288   2.623  1.00  0.00     0.012 A 
ENDBRANCH  20  21
ENDBRANCH   2  20
BRANCH   1  30
HETATM   30  C   UNL     1      43.357 -15.007   4.916  1.00  0.00     0.144 C 
BRANCH  30  31
HETATM   31  C   UNL     1      43.369 -16.379   5.520  1.00  0.00    -0.021 A 
HETATM   32  C   UNL     1      43.565 -17.664   4.907  1.00  0.00    -0.001 A 
HETATM   33  C   UNL     1      43.786 -18.118   3.589  1.00  0.00     0.014 A 
HETATM   34  C   UNL     1      43.543 -18.619   5.928  1.00  0.00     0.042 A 
HETATM   35  C   UNL     1      44.005 -19.480   3.348  1.00  0.00     0.001 A 
HETATM   36  C   UNL     1      43.988 -20.399   4.391  1.00  0.00     0.002 A 
HETATM   37  C   UNL     1      43.748 -19.985   5.702  1.00  0.00     0.030 A 
HETATM   38  N   UNL     1      43.295 -17.956   7.104  1.00  0.00    -0.365 N 
HETATM   39  H   UNL     1      43.212 -18.403   8.007  1.00  0.00     0.165 HD
HETATM   40  C   UNL     1      43.192 -16.614   6.874  1.00  0.00     0.097 A 
ENDBRANCH  30  31
ENDBRANCH   1  30
TORSDOF 8
ENDMDL
MODEL 6
REMARK VINA RESULT:      -8.7      2.205      6.215
REMARK  8 active torsions:
REMARK  status: ('A' for Active; 'I' for Inactive)
REMARK    1  A    between atoms: C_8  and  C_9 
REMARK    2  A    between atoms: C_9  and  C_10 
REMARK       I    between atoms: C_10  and  N_11 
REMARK    3  A    between atoms: N_11  and  C_12 
REMARK    4  A    between atoms: N_11  and  C_27 
REMARK    5  A    between atoms: C_12  and  C_13 
REMARK    6  A    between atoms: C_12  and  C_22 
REMARK       I    between atoms: C_13  and  N_14 
REMARK    7  A    between atoms: N_14  and  C_15 
REMARK    8  A    between atoms: C_27  and  C_28 
ROOT
HETATM    1  C   UNL     1      42.512 -12.611   5.924  1.00  0.00     0.225 C 
HETATM    2  N   UNL     1      41.613 -13.645   5.636  1.00  0.00    -0.330 N 
HETATM    3  O   UNL     1      42.282 -11.441   5.602  1.00  0.00    -0.273 OA
ENDROOT
BRANCH   2   4
HETATM    4  C   UNL     1      40.372 -13.282   4.915  1.00  0.00     0.219 C 
BRANCH   4   5
HETATM    5  C   UNL     1      39.622 -12.112   5.612  1.00  0.00     0.246 C 
HETATM    6  N   UNL     1      39.562 -10.913   4.927  1.00  0.00    -0.354 N 
HETATM    7  H   UNL     1      40.339 -10.789   4.281  1.00  0.00     0.162 HD
HETATM    8  O   UNL     1      39.191 -12.240   6.761  1.00  0.00    -0.271 OA
BRANCH   6   9
HETATM    9  C   UNL     1      39.035  -9.689   5.526  1.00  0.00     0.084 C 
HETATM   10  C   UNL     1      40.192  -8.815   6.043  1.00  0.00     0.025 C 
HETATM   11  C   UNL     1      40.995  -8.170   4.911  1.00  0.00     0.002 C 
HETATM   12  C   UNL     1      40.098  -7.379   3.964  1.00  0.00     0.000 C 
HETATM   13  C   UNL     1      38.955  -8.235   3.429  1.00  0.00     0.002 C 
HETATM   14  C   UNL     1      38.155  -8.872   4.563  1.00  0.00     0.025 C 
ENDBRANCH   6   9
ENDBRANCH   4   5
BRANCH   4  15
HETATM   15  C   UNL     1      40.570 -13.122   3.412  1.00  0.00     0.014 A 
HETATM   16  S   UNL     1      39.192 -13.258   2.377  1.00  0.00    -0.104 SA
HETATM   17  C   UNL     1      40.125 -13.000   0.971  1.00  0.00     0.050 A 
HETATM   18  C   UNL     1      41.459 -12.839   1.259  1.00  0.00     0.008 A 
HETATM   19  C   UNL     1      41.716 -12.925   2.658  1.00  0.00     0.017 A 
ENDBRANCH   4  15
ENDBRANCH   2   4
BRANCH   2  20
HETATM   20  C   UNL     1      41.542 -14.825   6.504  1.00  0.00     0.165 C 
BRANCH  20  21
HETATM   21  C   UNL     1      42.262 -16.044   5.977  1.00  0.00    -0.037 A 
HETATM   22  C   UNL     1      42.442 -16.217   4.595  1.00  0.00     0.048 A 
HETATM   23  C   UNL     1      43.158 -17.316   4.168  1.00  0.00     0.105 A 
HETATM   24  C   UNL     1      43.677 -18.233   5.051  1.00  0.00     0.105 A 
HETATM   25  O   UNL     1      43.449 -17.620   2.874  1.00  0.00    -0.323 OA
HETATM   26  O   UNL     1      44.357 -19.230   4.426  1.00  0.00    -0.323 OA
HETATM   27  C   UNL     1      43.508 -18.107   6.413  1.00  0.00     0.040 A 
HETATM   28  C   UNL     1      44.230 -18.820   3.048  1.00  0.00     0.352 A 
HETATM   29  C   UNL     1      42.796 -16.997   6.877  1.00  0.00     0.012 A 
ENDBRANCH  20  21
ENDBRANCH   2  20
BRANCH   1  30
HETATM   30  C   UNL     1      43.863 -12.966   6.526  1.00  0.00     0.144 C 
BRANCH  30  31
HETATM   31  C   UNL     1      44.727 -11.839   7.006  1.00  0.00    -0.021 A 
HETATM   32  C   UNL     1      44.616 -11.017   8.179  1.00  0.00    -0.001 A 
HETATM   33  C   UNL     1      43.708 -10.931   9.257  1.00  0.00     0.014 A 
HETATM   34  C   UNL     1      45.715 -10.152   8.186  1.00  0.00     0.042 A 
HETATM   35  C   UNL     1      43.944 -10.024  10.298  1.00  0.00     0.001 A 
HETATM   36  C   UNL     1      45.055  -9.189  10.275  1.00  0.00     0.002 A 
HETATM   37  C   UNL     1      45.958  -9.231   9.212  1.00  0.00     0.030 A 
HETATM   38  N   UNL     1      46.436 -10.398   7.045  1.00  0.00    -0.365 N 
HETATM   39  H   UNL     1      47.280  -9.906   6.783  1.00  0.00     0.165 HD
HETATM   40  C   UNL     1      45.858 -11.408   6.332  1.00  0.00     0.097 A 
ENDBRANCH  30  31
ENDBRANCH   1  30
TORSDOF 8
ENDMDL
MODEL 7
REMARK VINA RESULT:      -8.4      3.137      6.088
REMARK  8 active torsions:
REMARK  status: ('A' for Active; 'I' for Inactive)
REMARK    1  A    between atoms: C_8  and  C_9 
REMARK    2  A    between atoms: C_9  and  C_10 
REMARK       I    between atoms: C_10  and  N_11 
REMARK    3  A    between atoms: N_11  and  C_12 
REMARK    4  A    between atoms: N_11  and  C_27 
REMARK    5  A    between atoms: C_12  and  C_13 
REMARK    6  A    between atoms: C_12  and  C_22 
REMARK       I    between atoms: C_13  and  N_14 
REMARK    7  A    between atoms: N_14  and  C_15 
REMARK    8  A    between atoms: C_27  and  C_28 
ROOT
HETATM    1  C   UNL     1      40.009 -11.376   5.794  1.00  0.00     0.225 C 
HETATM    2  N   UNL     1      41.351 -11.163   6.132  1.00  0.00    -0.330 N 
HETATM    3  O   UNL     1      39.112 -10.623   6.185  1.00  0.00    -0.273 OA
ENDROOT
BRANCH   2   4
HETATM    4  C   UNL     1      41.655  -9.999   6.996  1.00  0.00     0.219 C 
BRANCH   4   5
HETATM    5  C   UNL     1      42.921 -10.242   7.865  1.00  0.00     0.246 C 
HETATM    6  N   UNL     1      42.739 -10.282   9.234  1.00  0.00    -0.354 N 
HETATM    7  H   UNL     1      41.931  -9.744   9.540  1.00  0.00     0.162 HD
HETATM    8  O   UNL     1      44.037 -10.299   7.342  1.00  0.00    -0.271 OA
BRANCH   6   9
HETATM    9  C   UNL     1      43.856 -10.338  10.175  1.00  0.00     0.084 C 
HETATM   10  C   UNL     1      44.401  -8.923  10.432  1.00  0.00     0.025 C 
HETATM   11  C   UNL     1      43.452  -8.070  11.277  1.00  0.00     0.002 C 
HETATM   12  C   UNL     1      43.093  -8.759  12.589  1.00  0.00     0.000 C 
HETATM   13  C   UNL     1      42.535 -10.158  12.353  1.00  0.00     0.002 C 
HETATM   14  C   UNL     1      43.488 -11.006  11.513  1.00  0.00     0.025 C 
ENDBRANCH   6   9
ENDBRANCH   4   5
BRANCH   4  15
HETATM   15  C   UNL     1      41.623  -8.669   6.252  1.00  0.00     0.014 A 
HETATM   16  S   UNL     1      41.882  -7.214   7.149  1.00  0.00    -0.104 SA
HETATM   17  C   UNL     1      41.702  -6.235   5.762  1.00  0.00     0.050 A 
HETATM   18  C   UNL     1      41.424  -6.977   4.639  1.00  0.00     0.008 A 
HETATM   19  C   UNL     1      41.364  -8.372   4.923  1.00  0.00     0.017 A 
ENDBRANCH   4  15
ENDBRANCH   2   4
BRANCH   2  20
HETATM   20  C   UNL     1      42.420 -11.603   5.229  1.00  0.00     0.165 C 
BRANCH  20  21
HETATM   21  C   UNL     1      42.793 -13.062   5.350  1.00  0.00    -0.037 A 
HETATM   22  C   UNL     1      42.901 -13.661   6.615  1.00  0.00     0.048 A 
HETATM   23  C   UNL     1      43.186 -15.010   6.670  1.00  0.00     0.105 A 
HETATM   24  C   UNL     1      43.374 -15.759   5.533  1.00  0.00     0.105 A 
HETATM   25  O   UNL     1      43.297 -15.752   7.805  1.00  0.00    -0.323 OA
HETATM   26  O   UNL     1      43.631 -17.066   5.808  1.00  0.00    -0.323 OA
HETATM   27  C   UNL     1      43.292 -15.204   4.275  1.00  0.00     0.040 A 
HETATM   28  C   UNL     1      43.554 -17.058   7.249  1.00  0.00     0.352 A 
HETATM   29  C   UNL     1      42.994 -13.842   4.186  1.00  0.00     0.012 A 
ENDBRANCH  20  21
ENDBRANCH   2  20
BRANCH   1  30
HETATM   30  C   UNL     1      39.641 -12.644   5.037  1.00  0.00     0.144 C 
BRANCH  30  31
HETATM   31  C   UNL     1      39.673 -12.592   3.539  1.00  0.00    -0.021 A 
HETATM   32  C   UNL     1      39.800 -13.649   2.574  1.00  0.00    -0.001 A 
HETATM   33  C   UNL     1      39.955 -15.050   2.642  1.00  0.00     0.014 A 
HETATM   34  C   UNL     1      39.712 -13.066   1.306  1.00  0.00     0.042 A 
HETATM   35  C   UNL     1      39.983 -15.807   1.464  1.00  0.00     0.001 A 
HETATM   36  C   UNL     1      39.880 -15.193   0.222  1.00  0.00     0.002 A 
HETATM   37  C   UNL     1      39.751 -13.807   0.119  1.00  0.00     0.030 A 
HETATM   38  N   UNL     1      39.589 -11.711   1.486  1.00  0.00    -0.365 N 
HETATM   39  H   UNL     1      39.519 -11.038   0.734  1.00  0.00     0.165 HD
HETATM   40  C   UNL     1      39.561 -11.414   2.818  1.00  0.00     0.097 A 
ENDBRANCH  30  31
ENDBRANCH   1  30
TORSDOF 8
ENDMDL
MODEL 8
REMARK VINA RESULT:      -8.4      1.941      4.100
REMARK  8 active torsions:
REMARK  status: ('A' for Active; 'I' for Inactive)
REMARK    1  A    between atoms: C_8  and  C_9 
REMARK    2  A    between atoms: C_9  and  C_10 
REMARK       I    between atoms: C_10  and  N_11 
REMARK    3  A    between atoms: N_11  and  C_12 
REMARK    4  A    between atoms: N_11  and  C_27 
REMARK    5  A    between atoms: C_12  and  C_13 
REMARK    6  A    between atoms: C_12  and  C_22 
REMARK       I    between atoms: C_13  and  N_14 
REMARK    7  A    between atoms: N_14  and  C_15 
REMARK    8  A    between atoms: C_27  and  C_28 
ROOT
HETATM    1  C   UNL     1      40.799 -14.002   4.192  1.00  0.00     0.225 C 
HETATM    2  N   UNL     1      41.712 -12.941   4.204  1.00  0.00    -0.330 N 
HETATM    3  O   UNL     1      39.972 -14.139   3.284  1.00  0.00    -0.273 OA
ENDROOT
BRANCH   2   4
HETATM    4  C   UNL     1      41.640 -11.972   3.086  1.00  0.00     0.219 C 
BRANCH   4   5
HETATM    5  C   UNL     1      41.693 -12.683   1.704  1.00  0.00     0.246 C 
HETATM    6  N   UNL     1      40.738 -12.316   0.776  1.00  0.00    -0.354 N 
HETATM    7  H   UNL     1      39.884 -11.968   1.207  1.00  0.00     0.162 HD
HETATM    8  O   UNL     1      42.498 -13.596   1.501  1.00  0.00    -0.271 OA
BRANCH   6   9
HETATM    9  C   UNL     1      40.567 -13.012  -0.497  1.00  0.00     0.084 C 
HETATM   10  C   UNL     1      39.089 -13.385  -0.700  1.00  0.00     0.025 C 
HETATM   11  C   UNL     1      38.210 -12.169  -1.002  1.00  0.00     0.002 C 
HETATM   12  C   UNL     1      38.738 -11.375  -2.193  1.00  0.00     0.000 C 
HETATM   13  C   UNL     1      40.198 -10.982  -2.002  1.00  0.00     0.002 C 
HETATM   14  C   UNL     1      41.070 -12.200  -1.704  1.00  0.00     0.025 C 
ENDBRANCH   6   9
ENDBRANCH   4   5
BRANCH   4  15
HETATM   15  C   UNL     1      40.524 -10.946   3.245  1.00  0.00     0.014 A 
HETATM   16  S   UNL     1      40.789  -9.340   2.665  1.00  0.00    -0.104 SA
HETATM   17  C   UNL     1      39.241  -8.820   3.165  1.00  0.00     0.050 A 
HETATM   18  C   UNL     1      38.536  -9.823   3.785  1.00  0.00     0.008 A 
HETATM   19  C   UNL     1      39.278 -11.039   3.845  1.00  0.00     0.017 A 
ENDBRANCH   4  15
ENDBRANCH   2   4
BRANCH   2  20
HETATM   20  C   UNL     1      43.020 -13.099   4.847  1.00  0.00     0.165 C 
BRANCH  20  21
HETATM   21  C   UNL     1      43.364 -12.030   5.858  1.00  0.00    -0.037 A 
HETATM   22  C   UNL     1      44.699 -11.818   6.238  1.00  0.00     0.048 A 
HETATM   23  C   UNL     1      44.966 -10.791   7.118  1.00  0.00     0.105 A 
HETATM   24  C   UNL     1      43.969  -9.996   7.632  1.00  0.00     0.105 A 
HETATM   25  O   UNL     1      46.199 -10.430   7.566  1.00  0.00    -0.323 OA
HETATM   26  O   UNL     1      44.446  -9.037   8.468  1.00  0.00    -0.323 OA
HETATM   27  C   UNL     1      42.645 -10.183   7.296  1.00  0.00     0.040 A 
HETATM   28  C   UNL     1      45.863  -9.302   8.401  1.00  0.00     0.352 A 
HETATM   29  C   UNL     1      42.344 -11.209   6.397  1.00  0.00     0.012 A 
ENDBRANCH  20  21
ENDBRANCH   2  20
BRANCH   1  30
HETATM   30  C   UNL     1      40.741 -14.929   5.397  1.00  0.00     0.144 C 
BRANCH  30  31
HETATM   31  C   UNL     1      41.769 -16.017   5.486  1.00  0.00    -0.021 A 
HETATM   32  C   UNL     1      42.373 -16.811   4.452  1.00  0.00    -0.001 A 
HETATM   33  C   UNL     1      42.238 -16.896   3.049  1.00  0.00     0.014 A 
HETATM   34  C   UNL     1      43.316 -17.643   5.065  1.00  0.00     0.042 A 
HETATM   35  C   UNL     1      43.057 -17.768   2.321  1.00  0.00     0.001 A 
HETATM   36  C   UNL     1      43.993 -18.570   2.965  1.00  0.00     0.002 A 
HETATM   37  C   UNL     1      44.133 -18.528   4.353  1.00  0.00     0.030 A 
HETATM   38  N   UNL     1      43.255 -17.404   6.416  1.00  0.00    -0.365 N 
HETATM   39  H   UNL     1      43.821 -17.878   7.107  1.00  0.00     0.165 HD
HETATM   40  C   UNL     1      42.335 -16.431   6.680  1.00  0.00     0.097 A 
ENDBRANCH  30  31
ENDBRANCH   1  30
TORSDOF 8
ENDMDL
MODEL 9
REMARK VINA RESULT:      -8.4      2.720      7.220
REMARK  8 active torsions:
REMARK  status: ('A' for Active; 'I' for Inactive)
REMARK    1  A    between atoms: C_8  and  C_9 
REMARK    2  A    between atoms: C_9  and  C_10 
REMARK       I    between atoms: C_10  and  N_11 
REMARK    3  A    between atoms: N_11  and  C_12 
REMARK    4  A    between atoms: N_11  and  C_27 
REMARK    5  A    between atoms: C_12  and  C_13 
REMARK    6  A    between atoms: C_12  and  C_22 
REMARK       I    between atoms: C_13  and  N_14 
REMARK    7  A    between atoms: N_14  and  C_15 
REMARK    8  A    between atoms: C_27  and  C_28 
ROOT
HETATM    1  C   UNL     1      42.203 -10.472   5.022  1.00  0.00     0.225 C 
HETATM    2  N   UNL     1      41.292 -11.501   4.753  1.00  0.00    -0.330 N 
HETATM    3  O   UNL     1      42.384  -9.541   4.232  1.00  0.00    -0.273 OA
ENDROOT
BRANCH   2   4
HETATM    4  C   UNL     1      40.559 -11.438   3.468  1.00  0.00     0.219 C 
BRANCH   4   5
HETATM    5  C   UNL     1      40.050 -12.838   3.025  1.00  0.00     0.246 C 
HETATM    6  N   UNL     1      41.010 -13.775   2.692  1.00  0.00    -0.354 N 
HETATM    7  H   UNL     1      41.875 -13.351   2.363  1.00  0.00     0.162 HD
HETATM    8  O   UNL     1      38.842 -13.052   2.894  1.00  0.00    -0.271 OA
BRANCH   6   9
HETATM    9  C   UNL     1      40.676 -15.071   2.106  1.00  0.00     0.084 C 
HETATM   10  C   UNL     1      41.543 -15.325   0.861  1.00  0.00     0.025 C 
HETATM   11  C   UNL     1      43.004 -15.618   1.209  1.00  0.00     0.002 C 
HETATM   12  C   UNL     1      43.126 -16.771   2.200  1.00  0.00     0.000 C 
HETATM   13  C   UNL     1      42.286 -16.528   3.449  1.00  0.00     0.002 C 
HETATM   14  C   UNL     1      40.828 -16.241   3.095  1.00  0.00     0.025 C 
ENDBRANCH   6   9
ENDBRANCH   4   5
BRANCH   4  15
HETATM   15  C   UNL     1      39.520 -10.324   3.419  1.00  0.00     0.014 A 
HETATM   16  S   UNL     1      39.259  -9.501   1.921  1.00  0.00    -0.104 SA
HETATM   17  C   UNL     1      38.072  -8.479   2.599  1.00  0.00     0.050 A 
HETATM   18  C   UNL     1      37.884  -8.724   3.938  1.00  0.00     0.008 A 
HETATM   19  C   UNL     1      38.725  -9.772   4.412  1.00  0.00     0.017 A 
ENDBRANCH   4  15
ENDBRANCH   2   4
BRANCH   2  20
HETATM   20  C   UNL     1      40.622 -12.202   5.853  1.00  0.00     0.165 C 
BRANCH  20  21
HETATM   21  C   UNL     1      41.166 -13.579   6.153  1.00  0.00    -0.037 A 
HETATM   22  C   UNL     1      42.552 -13.800   6.186  1.00  0.00     0.048 A 
HETATM   23  C   UNL     1      42.998 -15.061   6.523  1.00  0.00     0.105 A 
HETATM   24  C   UNL     1      42.130 -16.087   6.810  1.00  0.00     0.105 A 
HETATM   25  O   UNL     1      44.301 -15.439   6.630  1.00  0.00    -0.323 OA
HETATM   26  O   UNL     1      42.774 -17.240   7.130  1.00  0.00    -0.323 OA
HETATM   27  C   UNL     1      40.763 -15.914   6.773  1.00  0.00     0.040 A 
HETATM   28  C   UNL     1      44.150 -16.814   7.040  1.00  0.00     0.352 A 
HETATM   29  C   UNL     1      40.280 -14.644   6.445  1.00  0.00     0.012 A 
ENDBRANCH  20  21
ENDBRANCH   2  20
BRANCH   1  30
HETATM   30  C   UNL     1      43.083 -10.583   6.258  1.00  0.00     0.144 C 
BRANCH  30  31
HETATM   31  C   UNL     1      42.655  -9.836   7.484  1.00  0.00    -0.021 A 
HETATM   32  C   UNL     1      43.273  -9.738   8.778  1.00  0.00    -0.001 A 
HETATM   33  C   UNL     1      44.431 -10.282   9.375  1.00  0.00     0.014 A 
HETATM   34  C   UNL     1      42.496  -8.865   9.545  1.00  0.00     0.042 A 
HETATM   35  C   UNL     1      44.781  -9.914  10.680  1.00  0.00     0.001 A 
HETATM   36  C   UNL     1      43.990  -9.032  11.407  1.00  0.00     0.002 A 
HETATM   37  C   UNL     1      42.825  -8.497  10.855  1.00  0.00     0.030 A 
HETATM   38  N   UNL     1      41.425  -8.485   8.775  1.00  0.00    -0.365 N 
HETATM   39  H   UNL     1      40.690  -7.863   9.083  1.00  0.00     0.165 HD
HETATM   40  C   UNL     1      41.510  -9.057   7.538  1.00  0.00     0.097 A 
ENDBRANCH  30  31
ENDBRANCH   1  30
TORSDOF 8
ENDMDL
MODEL 10
REMARK VINA RESULT:      -8.3      3.423      6.718
REMARK  8 active torsions:
REMARK  status: ('A' for Active; 'I' for Inactive)
REMARK    1  A    between atoms: C_8  and  C_9 
REMARK    2  A    between atoms: C_9  and  C_10 
REMARK       I    between atoms: C_10  and  N_11 
REMARK    3  A    between atoms: N_11  and  C_12 
REMARK    4  A    between atoms: N_11  and  C_27 
REMARK    5  A    between atoms: C_12  and  C_13 
REMARK    6  A    between atoms: C_12  and  C_22 
REMARK       I    between atoms: C_13  and  N_14 
REMARK    7  A    between atoms: N_14  and  C_15 
REMARK    8  A    between atoms: C_27  and  C_28 
ROOT
HETATM    1  C   UNL     1      43.044 -12.441   2.778  1.00  0.00     0.225 C 
HETATM    2  N   UNL     1      41.854 -11.812   2.393  1.00  0.00    -0.330 N 
HETATM    3  O   UNL     1      43.862 -11.887   3.521  1.00  0.00    -0.273 OA
ENDROOT
BRANCH   2   4
HETATM    4  C   UNL     1      41.616 -10.442   2.903  1.00  0.00     0.219 C 
BRANCH   4   5
HETATM    5  C   UNL     1      40.793  -9.589   1.898  1.00  0.00     0.246 C 
HETATM    6  N   UNL     1      41.506  -8.896   0.937  1.00  0.00    -0.354 N 
HETATM    7  H   UNL     1      42.454  -8.673   1.235  1.00  0.00     0.162 HD
HETATM    8  O   UNL     1      39.572  -9.473   2.027  1.00  0.00    -0.271 OA
BRANCH   6   9
HETATM    9  C   UNL     1      40.882  -7.932   0.035  1.00  0.00     0.084 C 
HETATM   10  C   UNL     1      41.798  -6.709  -0.146  1.00  0.00     0.025 C 
HETATM   11  C   UNL     1      43.036  -7.020  -0.989  1.00  0.00     0.002 C 
HETATM   12  C   UNL     1      42.661  -7.621  -2.340  1.00  0.00     0.000 C 
HETATM   13  C   UNL     1      41.766  -8.845  -2.180  1.00  0.00     0.002 C 
HETATM   14  C   UNL     1      40.530  -8.527  -1.340  1.00  0.00     0.025 C 
ENDBRANCH   6   9
ENDBRANCH   4   5
BRANCH   4  15
HETATM   15  C   UNL     1      41.115 -10.411   4.343  1.00  0.00     0.014 A 
HETATM   16  S   UNL     1      41.553  -9.069   5.341  1.00  0.00    -0.104 SA
HETATM   17  C   UNL     1      40.710  -9.695   6.687  1.00  0.00     0.050 A 
HETATM   18  C   UNL     1      40.126 -10.908   6.411  1.00  0.00     0.008 A 
HETATM   19  C   UNL     1      40.372 -11.326   5.071  1.00  0.00     0.017 A 
ENDBRANCH   4  15
ENDBRANCH   2   4
BRANCH   2  20
HETATM   20  C   UNL     1      40.663 -12.610   2.085  1.00  0.00     0.165 C 
BRANCH  20  21
HETATM   21  C   UNL     1      40.481 -12.941   0.623  1.00  0.00    -0.037 A 
HETATM   22  C   UNL     1      39.756 -14.081   0.240  1.00  0.00     0.048 A 
HETATM   23  C   UNL     1      39.568 -14.306  -1.108  1.00  0.00     0.105 A 
HETATM   24  C   UNL     1      40.079 -13.461  -2.064  1.00  0.00     0.105 A 
HETATM   25  O   UNL     1      38.869 -15.339  -1.650  1.00  0.00    -0.323 OA
HETATM   26  O   UNL     1      39.769 -13.856  -3.327  1.00  0.00    -0.323 OA
HETATM   27  C   UNL     1      40.810 -12.342  -1.729  1.00  0.00     0.040 A 
HETATM   28  C   UNL     1      38.981 -15.033  -3.056  1.00  0.00     0.352 A 
HETATM   29  C   UNL     1      41.008 -12.081  -0.370  1.00  0.00     0.012 A 
ENDBRANCH  20  21
ENDBRANCH   2  20
BRANCH   1  30
HETATM   30  C   UNL     1      43.395 -13.783   2.154  1.00  0.00     0.144 C 
BRANCH  30  31
HETATM   31  C   UNL     1      43.169 -15.013   2.981  1.00  0.00    -0.021 A 
HETATM   32  C   UNL     1      42.837 -15.150   4.373  1.00  0.00    -0.001 A 
HETATM   33  C   UNL     1      42.628 -14.252   5.443  1.00  0.00     0.014 A 
HETATM   34  C   UNL     1      42.679 -16.515   4.630  1.00  0.00     0.042 A 
HETATM   35  C   UNL     1      42.243 -14.741   6.698  1.00  0.00     0.001 A 
HETATM   36  C   UNL     1      42.083 -16.105   6.911  1.00  0.00     0.002 A 
HETATM   37  C   UNL     1      42.307 -17.020   5.881  1.00  0.00     0.030 A 
HETATM   38  N   UNL     1      42.951 -17.185   3.463  1.00  0.00    -0.365 N 
HETATM   39  H   UNL     1      42.926 -18.191   3.362  1.00  0.00     0.165 HD
HETATM   40  C   UNL     1      43.242 -16.298   2.468  1.00  0.00     0.097 A 
ENDBRANCH  30  31
ENDBRANCH   1  30
TORSDOF 8
ENDMDL
