MODEL 1
REMARK VINA RESULT:      -9.8      0.000      0.000
REMARK  7 active torsions:
REMARK  status: ('A' for Active; 'I' for Inactive)
REMARK    1  A    between atoms: C_2  and  C_3 
REMARK    2  A    between atoms: C_3  and  N_4 
REMARK       I    between atoms: N_4  and  C_5 
REMARK    3  A    between atoms: C_5  and  C_6 
REMARK    4  A    between atoms: C_7  and  N_8 
REMARK    5  A    between atoms: N_9  and  N_10 
REMARK    6  A    between atoms: C_11  and  C_12 
REMARK    7  A    between atoms: C_13  and  O_14 
ROOT
HETATM    1  C   UNL     1      42.933 -16.497   6.295  1.00  0.00     0.104 C 
HETATM    2  C   UNL     1      43.082 -15.823   7.501  1.00  0.00     0.123 C 
HETATM    3  N   UNL     1      42.844 -14.474   7.248  1.00  0.00    -0.202 N 
HETATM    4  C   UNL     1      42.054 -14.401   6.122  1.00  0.00     0.183 A 
HETATM    5  C   UNL     1      42.160 -15.630   5.472  1.00  0.00     0.124 A 
HETATM    6  N   UNL     1      41.608 -15.817   4.246  1.00  0.00    -0.242 NA
HETATM    7  C   UNL     1      40.924 -14.765   3.766  1.00  0.00     0.086 A 
HETATM    8  C   UNL     1      40.811 -13.533   4.464  1.00  0.00     0.088 A 
HETATM    9  N   UNL     1      41.402 -13.313   5.650  1.00  0.00    -0.225 NA
HETATM   10  C   UNL     1      40.297 -14.896   2.533  1.00  0.00     0.034 A 
HETATM   11  C   UNL     1      39.550 -13.857   1.976  1.00  0.00     0.002 A 
HETATM   12  C   UNL     1      39.429 -12.658   2.666  1.00  0.00     0.002 A 
HETATM   13  C   UNL     1      40.063 -12.509   3.900  1.00  0.00     0.034 A 
ENDROOT
BRANCH   3  14
HETATM   14  N   UNL     1      43.356 -13.391   7.940  1.00  0.00    -0.176 NA
HETATM   15  C   UNL     1      44.052 -12.600   7.177  1.00  0.00     0.153 C 
BRANCH  15  16
HETATM   16  C   UNL     1      44.675 -11.360   7.663  1.00  0.00     0.017 A 
HETATM   17  C   UNL     1      45.813 -10.812   7.070  1.00  0.00     0.077 A 
HETATM   18  C   UNL     1      46.399  -9.672   7.618  1.00  0.00     0.039 A 
HETATM   19  C   UNL     1      45.841  -9.074   8.751  1.00  0.00     0.022 A 
HETATM   20  C   UNL     1      44.696  -9.619   9.331  1.00  0.00     0.012 A 
HETATM   21 BR   UNL     1      43.934  -8.809  10.860  1.00  0.00    -0.051 Br
HETATM   22  C   UNL     1      44.109 -10.763   8.797  1.00  0.00     0.034 A 
BRANCH  17  23
HETATM   23  O   UNL     1      46.413 -11.354   5.970  1.00  0.00    -0.360 OA
HETATM   24  H   UNL     1      46.712 -10.618   5.389  1.00  0.00     0.217 HD
ENDBRANCH  17  23
ENDBRANCH  15  16
ENDBRANCH   3  14
BRANCH   2  25
HETATM   25  N   UNL     1      43.501 -16.266   8.730  1.00  0.00    -0.286 NA
HETATM   26  H   UNL     1      44.500 -16.475   8.815  1.00  0.00     0.125 HD
HETATM   27  H   UNL     1      43.207 -15.709   9.538  1.00  0.00     0.125 HD
ENDBRANCH   2  25
BRANCH   1  28
HETATM   28  C   UNL     1      43.494 -17.805   5.974  1.00  0.00     0.257 C 
HETATM   29  N   UNL     1      44.015 -17.857   4.693  1.00  0.00    -0.356 N 
HETATM   30  H   UNL     1      43.843 -17.031   4.130  1.00  0.00     0.162 HD
HETATM   31  O   UNL     1      43.430 -18.781   6.710  1.00  0.00    -0.267 OA
BRANCH  29  32
HETATM   32  C   UNL     1      44.226 -19.100   3.986  1.00  0.00     0.126 C 
BRANCH  32  33
HETATM   33  C   UNL     1      43.883 -18.998   2.489  1.00  0.00    -0.005 C 
HETATM   34  C   UNL     1      42.796 -17.953   2.235  1.00  0.00     0.011 C 
HETATM   35  C   UNL     1      43.479 -20.344   1.879  1.00  0.00     0.011 C 
ENDBRANCH  32  33
ENDBRANCH  29  32
ENDBRANCH   1  28
TORSDOF 7
ENDMDL
MODEL 2
REMARK VINA RESULT:      -9.5      3.947      8.246
REMARK  7 active torsions:
REMARK  status: ('A' for Active; 'I' for Inactive)
REMARK    1  A    between atoms: C_2  and  C_3 
REMARK    2  A    between atoms: C_3  and  N_4 
REMARK       I    between atoms: N_4  and  C_5 
REMARK    3  A    between atoms: C_5  and  C_6 
REMARK    4  A    between atoms: C_7  and  N_8 
REMARK    5  A    between atoms: N_9  and  N_10 
REMARK    6  A    between atoms: C_11  and  C_12 
REMARK    7  A    between atoms: C_13  and  O_14 
ROOT
HETATM    1  C   UNL     1      41.426 -13.909   4.697  1.00  0.00     0.104 C 
HETATM    2  C   UNL     1      40.272 -13.750   3.939  1.00  0.00     0.123 C 
HETATM    3  N   UNL     1      40.404 -14.564   2.816  1.00  0.00    -0.202 N 
HETATM    4  C   UNL     1      41.290 -15.568   3.139  1.00  0.00     0.183 A 
HETATM    5  C   UNL     1      41.993 -15.142   4.266  1.00  0.00     0.124 A 
HETATM    6  N   UNL     1      43.045 -15.856   4.740  1.00  0.00    -0.242 NA
HETATM    7  C   UNL     1      43.295 -17.000   4.082  1.00  0.00     0.086 A 
HETATM    8  C   UNL     1      42.545 -17.422   2.952  1.00  0.00     0.088 A 
HETATM    9  N   UNL     1      41.539 -16.697   2.435  1.00  0.00    -0.225 NA
HETATM   10  C   UNL     1      44.333 -17.806   4.534  1.00  0.00     0.034 A 
HETATM   11  C   UNL     1      44.643 -19.019   3.918  1.00  0.00     0.002 A 
HETATM   12  C   UNL     1      43.899 -19.437   2.823  1.00  0.00     0.002 A 
HETATM   13  C   UNL     1      42.860 -18.633   2.350  1.00  0.00     0.034 A 
ENDROOT
BRANCH   3  14
HETATM   14  N   UNL     1      39.823 -14.376   1.575  1.00  0.00    -0.176 NA
HETATM   15  C   UNL     1      40.534 -13.604   0.807  1.00  0.00     0.153 C 
BRANCH  15  16
HETATM   16  C   UNL     1      40.152 -13.275  -0.575  1.00  0.00     0.017 A 
HETATM   17  C   UNL     1      39.464 -14.171  -1.395  1.00  0.00     0.077 A 
HETATM   18  C   UNL     1      39.191 -13.829  -2.717  1.00  0.00     0.039 A 
HETATM   19  C   UNL     1      39.594 -12.588  -3.218  1.00  0.00     0.022 A 
HETATM   20  C   UNL     1      40.269 -11.692  -2.389  1.00  0.00     0.012 A 
HETATM   21 BR   UNL     1      40.810 -10.009  -3.060  1.00  0.00    -0.051 Br
HETATM   22  C   UNL     1      40.555 -12.028  -1.069  1.00  0.00     0.034 A 
BRANCH  17  23
HETATM   23  O   UNL     1      39.054 -15.402  -0.971  1.00  0.00    -0.360 OA
HETATM   24  H   UNL     1      39.803 -15.829  -0.494  1.00  0.00     0.217 HD
ENDBRANCH  17  23
ENDBRANCH  15  16
ENDBRANCH   3  14
BRANCH   2  25
HETATM   25  N   UNL     1      39.207 -12.900   4.094  1.00  0.00    -0.286 NA
HETATM   26  H   UNL     1      38.899 -12.407   3.250  1.00  0.00     0.125 HD
HETATM   27  H   UNL     1      38.387 -13.280   4.575  1.00  0.00     0.125 HD
ENDBRANCH   2  25
BRANCH   1  28
HETATM   28  C   UNL     1      41.929 -12.968   5.692  1.00  0.00     0.257 C 
HETATM   29  N   UNL     1      43.267 -13.170   5.982  1.00  0.00    -0.356 N 
HETATM   30  H   UNL     1      43.676 -13.993   5.552  1.00  0.00     0.162 HD
HETATM   31  O   UNL     1      41.233 -12.152   6.281  1.00  0.00    -0.267 OA
BRANCH  29  32
HETATM   32  C   UNL     1      43.882 -12.691   7.199  1.00  0.00     0.126 C 
BRANCH  32  33
HETATM   33  C   UNL     1      44.545 -11.313   7.027  1.00  0.00    -0.005 C 
HETATM   34  C   UNL     1      45.855 -11.416   6.247  1.00  0.00     0.011 C 
HETATM   35  C   UNL     1      44.777 -10.596   8.362  1.00  0.00     0.011 C 
ENDBRANCH  32  33
ENDBRANCH  29  32
ENDBRANCH   1  28
TORSDOF 7
ENDMDL
MODEL 3
REMARK VINA RESULT:      -9.3      3.860      7.943
REMARK  7 active torsions:
REMARK  status: ('A' for Active; 'I' for Inactive)
REMARK    1  A    between atoms: C_2  and  C_3 
REMARK    2  A    between atoms: C_3  and  N_4 
REMARK       I    between atoms: N_4  and  C_5 
REMARK    3  A    between atoms: C_5  and  C_6 
REMARK    4  A    between atoms: C_7  and  N_8 
REMARK    5  A    between atoms: N_9  and  N_10 
REMARK    6  A    between atoms: C_11  and  C_12 
REMARK    7  A    between atoms: C_13  and  O_14 
ROOT
HETATM    1  C   UNL     1      42.501 -14.438   5.373  1.00  0.00     0.104 C 
HETATM    2  C   UNL     1      41.751 -13.740   4.433  1.00  0.00     0.123 C 
HETATM    3  N   UNL     1      41.993 -14.332   3.196  1.00  0.00    -0.202 N 
HETATM    4  C   UNL     1      42.392 -15.630   3.432  1.00  0.00     0.183 A 
HETATM    5  C   UNL     1      42.788 -15.695   4.768  1.00  0.00     0.124 A 
HETATM    6  N   UNL     1      43.373 -16.813   5.266  1.00  0.00    -0.242 NA
HETATM    7  C   UNL     1      43.475 -17.833   4.397  1.00  0.00     0.086 A 
HETATM    8  C   UNL     1      43.038 -17.747   3.048  1.00  0.00     0.088 A 
HETATM    9  N   UNL     1      42.512 -16.627   2.525  1.00  0.00    -0.225 NA
HETATM   10  C   UNL     1      44.028 -19.027   4.846  1.00  0.00     0.034 A 
HETATM   11  C   UNL     1      44.149 -20.139   4.012  1.00  0.00     0.002 A 
HETATM   12  C   UNL     1      43.709 -20.057   2.698  1.00  0.00     0.002 A 
HETATM   13  C   UNL     1      43.161 -18.862   2.230  1.00  0.00     0.034 A 
ENDROOT
BRANCH   3  14
HETATM   14  N   UNL     1      41.924 -13.730   1.952  1.00  0.00    -0.176 NA
HETATM   15  C   UNL     1      40.788 -13.948   1.358  1.00  0.00     0.153 C 
BRANCH  15  16
HETATM   16  C   UNL     1      40.451 -13.389   0.041  1.00  0.00     0.017 A 
HETATM   17  C   UNL     1      40.773 -12.080  -0.322  1.00  0.00     0.077 A 
HETATM   18  C   UNL     1      40.367 -11.585  -1.559  1.00  0.00     0.039 A 
HETATM   19  C   UNL     1      39.648 -12.399  -2.439  1.00  0.00     0.022 A 
HETATM   20  C   UNL     1      39.342 -13.711  -2.075  1.00  0.00     0.012 A 
HETATM   21 BR   UNL     1      38.376 -14.819  -3.266  1.00  0.00    -0.051 Br
HETATM   22  C   UNL     1      39.736 -14.213  -0.838  1.00  0.00     0.034 A 
BRANCH  17  23
HETATM   23  O   UNL     1      41.461 -11.230   0.495  1.00  0.00    -0.360 OA
HETATM   24  H   UNL     1      42.070 -11.766   1.053  1.00  0.00     0.217 HD
ENDBRANCH  17  23
ENDBRANCH  15  16
ENDBRANCH   3  14
BRANCH   2  25
HETATM   25  N   UNL     1      40.992 -12.605   4.555  1.00  0.00    -0.286 NA
HETATM   26  H   UNL     1      41.340 -11.777   4.062  1.00  0.00     0.125 HD
HETATM   27  H   UNL     1      39.990 -12.705   4.370  1.00  0.00     0.125 HD
ENDBRANCH   2  25
BRANCH   1  28
HETATM   28  C   UNL     1      42.909 -13.937   6.680  1.00  0.00     0.257 C 
HETATM   29  N   UNL     1      43.101 -12.566   6.685  1.00  0.00    -0.356 N 
HETATM   30  H   UNL     1      43.037 -12.125   5.774  1.00  0.00     0.162 HD
HETATM   31  O   UNL     1      43.152 -14.649   7.646  1.00  0.00    -0.267 OA
BRANCH  29  32
HETATM   32  C   UNL     1      43.899 -11.894   7.684  1.00  0.00     0.126 C 
BRANCH  32  33
HETATM   33  C   UNL     1      45.309 -11.539   7.179  1.00  0.00    -0.005 C 
HETATM   34  C   UNL     1      45.861 -10.300   7.884  1.00  0.00     0.011 C 
HETATM   35  C   UNL     1      45.365 -11.353   5.658  1.00  0.00     0.011 C 
ENDBRANCH  32  33
ENDBRANCH  29  32
ENDBRANCH   1  28
TORSDOF 7
ENDMDL
MODEL 4
REMARK VINA RESULT:      -9.2      2.899      5.395
REMARK  7 active torsions:
REMARK  status: ('A' for Active; 'I' for Inactive)
REMARK    1  A    between atoms: C_2  and  C_3 
REMARK    2  A    between atoms: C_3  and  N_4 
REMARK       I    between atoms: N_4  and  C_5 
REMARK    3  A    between atoms: C_5  and  C_6 
REMARK    4  A    between atoms: C_7  and  N_8 
REMARK    5  A    between atoms: N_9  and  N_10 
REMARK    6  A    between atoms: C_11  and  C_12 
REMARK    7  A    between atoms: C_13  and  O_14 
ROOT
HETATM    1  C   UNL     1      41.776 -12.994   1.712  1.00  0.00     0.104 C 
HETATM    2  C   UNL     1      42.336 -12.014   2.523  1.00  0.00     0.123 C 
HETATM    3  N   UNL     1      42.694 -12.630   3.720  1.00  0.00    -0.202 N 
HETATM    4  C   UNL     1      42.876 -13.969   3.454  1.00  0.00     0.183 A 
HETATM    5  C   UNL     1      42.240 -14.232   2.241  1.00  0.00     0.124 A 
HETATM    6  N   UNL     1      42.118 -15.502   1.781  1.00  0.00    -0.242 NA
HETATM    7  C   UNL     1      42.700 -16.440   2.547  1.00  0.00     0.086 A 
HETATM    8  C   UNL     1      43.364 -16.140   3.766  1.00  0.00     0.088 A 
HETATM    9  N   UNL     1      43.442 -14.895   4.264  1.00  0.00    -0.225 NA
HETATM   10  C   UNL     1      42.651 -17.762   2.120  1.00  0.00     0.034 A 
HETATM   11  C   UNL     1      43.249 -18.791   2.848  1.00  0.00     0.002 A 
HETATM   12  C   UNL     1      43.911 -18.494   4.032  1.00  0.00     0.002 A 
HETATM   13  C   UNL     1      43.959 -17.173   4.479  1.00  0.00     0.034 A 
ENDROOT
BRANCH   3  14
HETATM   14  N   UNL     1      42.786 -12.041   4.968  1.00  0.00    -0.176 NA
HETATM   15  C   UNL     1      44.000 -11.674   5.255  1.00  0.00     0.153 C 
BRANCH  15  16
HETATM   16  C   UNL     1      44.357 -10.993   6.509  1.00  0.00     0.017 A 
HETATM   17  C   UNL     1      45.677 -10.874   6.946  1.00  0.00     0.077 A 
HETATM   18  C   UNL     1      45.948 -10.279   8.176  1.00  0.00     0.039 A 
HETATM   19  C   UNL     1      44.902  -9.793   8.966  1.00  0.00     0.022 A 
HETATM   20  C   UNL     1      43.586  -9.903   8.516  1.00  0.00     0.012 A 
HETATM   21 BR   UNL     1      42.168  -9.241   9.577  1.00  0.00    -0.051 Br
HETATM   22  C   UNL     1      43.304 -10.504   7.293  1.00  0.00     0.034 A 
BRANCH  17  23
HETATM   23  O   UNL     1      46.743 -11.339   6.229  1.00  0.00    -0.360 OA
HETATM   24  H   UNL     1      47.345 -10.581   6.047  1.00  0.00     0.217 HD
ENDBRANCH  17  23
ENDBRANCH  15  16
ENDBRANCH   3  14
BRANCH   2  25
HETATM   25  N   UNL     1      42.448 -10.659   2.344  1.00  0.00    -0.286 NA
HETATM   26  H   UNL     1      41.643 -10.194   1.915  1.00  0.00     0.125 HD
HETATM   27  H   UNL     1      42.751 -10.116   3.159  1.00  0.00     0.125 HD
ENDBRANCH   2  25
BRANCH   1  28
HETATM   28  C   UNL     1      40.881 -12.759   0.584  1.00  0.00     0.257 C 
HETATM   29  N   UNL     1      40.772 -13.862  -0.244  1.00  0.00    -0.356 N 
HETATM   30  H   UNL     1      41.398 -14.627  -0.017  1.00  0.00     0.162 HD
HETATM   31  O   UNL     1      40.356 -11.681   0.334  1.00  0.00    -0.267 OA
BRANCH  29  32
HETATM   32  C   UNL     1      40.321 -13.768  -1.614  1.00  0.00     0.126 C 
BRANCH  32  33
HETATM   33  C   UNL     1      38.850 -14.187  -1.786  1.00  0.00    -0.005 C 
HETATM   34  C   UNL     1      38.668 -15.104  -2.995  1.00  0.00     0.011 C 
HETATM   35  C   UNL     1      37.899 -12.989  -1.880  1.00  0.00     0.011 C 
ENDBRANCH  32  33
ENDBRANCH  29  32
ENDBRANCH   1  28
TORSDOF 7
ENDMDL
MODEL 5
REMARK VINA RESULT:      -8.9      1.863      2.015
REMARK  7 active torsions:
REMARK  status: ('A' for Active; 'I' for Inactive)
REMARK    1  A    between atoms: C_2  and  C_3 
REMARK    2  A    between atoms: C_3  and  N_4 
REMARK       I    between atoms: N_4  and  C_5 
REMARK    3  A    between atoms: C_5  and  C_6 
REMARK    4  A    between atoms: C_7  and  N_8 
REMARK    5  A    between atoms: N_9  and  N_10 
REMARK    6  A    between atoms: C_11  and  C_12 
REMARK    7  A    between atoms: C_13  and  O_14 
ROOT
HETATM    1  C   UNL     1      42.995 -15.420   5.546  1.00  0.00     0.104 C 
HETATM    2  C   UNL     1      43.123 -14.438   6.521  1.00  0.00     0.123 C 
HETATM    3  N   UNL     1      43.194 -13.213   5.860  1.00  0.00    -0.202 N 
HETATM    4  C   UNL     1      42.582 -13.371   4.636  1.00  0.00     0.183 A 
HETATM    5  C   UNL     1      42.521 -14.742   4.387  1.00  0.00     0.124 A 
HETATM    6  N   UNL     1      42.101 -15.213   3.186  1.00  0.00    -0.242 NA
HETATM    7  C   UNL     1      41.707 -14.269   2.314  1.00  0.00     0.086 A 
HETATM    8  C   UNL     1      41.756 -12.879   2.605  1.00  0.00     0.088 A 
HETATM    9  N   UNL     1      42.225 -12.396   3.767  1.00  0.00    -0.225 NA
HETATM   10  C   UNL     1      41.227 -14.677   1.076  1.00  0.00     0.034 A 
HETATM   11  C   UNL     1      40.779 -13.759   0.124  1.00  0.00     0.002 A 
HETATM   12  C   UNL     1      40.814 -12.403   0.416  1.00  0.00     0.002 A 
HETATM   13  C   UNL     1      41.305 -11.978   1.651  1.00  0.00     0.034 A 
ENDROOT
BRANCH   3  14
HETATM   14  N   UNL     1      43.821 -12.061   6.299  1.00  0.00    -0.176 NA
HETATM   15  C   UNL     1      43.032 -11.307   7.007  1.00  0.00     0.153 C 
BRANCH  15  16
HETATM   16  C   UNL     1      43.467 -10.043   7.619  1.00  0.00     0.017 A 
HETATM   17  C   UNL     1      44.638  -9.938   8.371  1.00  0.00     0.077 A 
HETATM   18  C   UNL     1      44.962  -8.730   8.984  1.00  0.00     0.039 A 
HETATM   19  C   UNL     1      44.123  -7.622   8.836  1.00  0.00     0.022 A 
HETATM   20  C   UNL     1      42.961  -7.729   8.071  1.00  0.00     0.012 A 
HETATM   21 BR   UNL     1      41.827  -6.231   7.863  1.00  0.00    -0.051 Br
HETATM   22  C   UNL     1      42.624  -8.935   7.463  1.00  0.00     0.034 A 
BRANCH  17  23
HETATM   23  O   UNL     1      45.493 -10.985   8.565  1.00  0.00    -0.360 OA
HETATM   24  H   UNL     1      45.392 -11.608   7.809  1.00  0.00     0.217 HD
ENDBRANCH  17  23
ENDBRANCH  15  16
ENDBRANCH   3  14
BRANCH   2  25
HETATM   25  N   UNL     1      43.287 -14.537   7.878  1.00  0.00    -0.286 NA
HETATM   26  H   UNL     1      43.399 -15.485   8.249  1.00  0.00     0.125 HD
HETATM   27  H   UNL     1      43.999 -13.930   8.296  1.00  0.00     0.125 HD
ENDBRANCH   2  25
BRANCH   1  28
HETATM   28  C   UNL     1      43.319 -16.833   5.712  1.00  0.00     0.257 C 
HETATM   29  N   UNL     1      44.027 -17.343   4.638  1.00  0.00    -0.356 N 
HETATM   30  H   UNL     1      44.126 -16.708   3.854  1.00  0.00     0.162 HD
HETATM   31  O   UNL     1      42.932 -17.523   6.646  1.00  0.00    -0.267 OA
BRANCH  29  32
HETATM   32  C   UNL     1      44.091 -18.758   4.348  1.00  0.00     0.126 C 
BRANCH  32  33
HETATM   33  C   UNL     1      43.949 -19.062   2.845  1.00  0.00    -0.005 C 
HETATM   34  C   UNL     1      42.844 -18.221   2.207  1.00  0.00     0.011 C 
HETATM   35  C   UNL     1      43.715 -20.550   2.562  1.00  0.00     0.011 C 
ENDBRANCH  32  33
ENDBRANCH  29  32
ENDBRANCH   1  28
TORSDOF 7
ENDMDL
MODEL 6
REMARK VINA RESULT:      -8.6      5.080      8.646
REMARK  7 active torsions:
REMARK  status: ('A' for Active; 'I' for Inactive)
REMARK    1  A    between atoms: C_2  and  C_3 
REMARK    2  A    between atoms: C_3  and  N_4 
REMARK       I    between atoms: N_4  and  C_5 
REMARK    3  A    between atoms: C_5  and  C_6 
REMARK    4  A    between atoms: C_7  and  N_8 
REMARK    5  A    between atoms: N_9  and  N_10 
REMARK    6  A    between atoms: C_11  and  C_12 
REMARK    7  A    between atoms: C_13  and  O_14 
ROOT
HETATM    1  C   UNL     1      41.136 -11.167   1.244  1.00  0.00     0.104 C 
HETATM    2  C   UNL     1      42.014 -11.986   1.946  1.00  0.00     0.123 C 
HETATM    3  N   UNL     1      41.574 -13.296   1.778  1.00  0.00    -0.202 N 
HETATM    4  C   UNL     1      40.843 -13.338   0.611  1.00  0.00     0.183 A 
HETATM    5  C   UNL     1      40.494 -12.023   0.304  1.00  0.00     0.124 A 
HETATM    6  N   UNL     1      39.642 -11.750  -0.716  1.00  0.00    -0.242 NA
HETATM    7  C   UNL     1      39.233 -12.822  -1.415  1.00  0.00     0.086 A 
HETATM    8  C   UNL     1      39.627 -14.149  -1.096  1.00  0.00     0.088 A 
HETATM    9  N   UNL     1      40.421 -14.440  -0.052  1.00  0.00    -0.225 NA
HETATM   10  C   UNL     1      38.391 -12.617  -2.501  1.00  0.00     0.034 A 
HETATM   11  C   UNL     1      37.939 -13.676  -3.289  1.00  0.00     0.002 A 
HETATM   12  C   UNL     1      38.336 -14.971  -2.984  1.00  0.00     0.002 A 
HETATM   13  C   UNL     1      39.173 -15.193  -1.890  1.00  0.00     0.034 A 
ENDROOT
BRANCH   3  14
HETATM   14  N   UNL     1      41.760 -14.359   2.644  1.00  0.00    -0.176 NA
HETATM   15  C   UNL     1      42.699 -15.165   2.245  1.00  0.00     0.153 C 
BRANCH  15  16
HETATM   16  C   UNL     1      43.114 -16.353   3.005  1.00  0.00     0.017 A 
HETATM   17  C   UNL     1      43.483 -16.290   4.350  1.00  0.00     0.077 A 
HETATM   18  C   UNL     1      43.934 -17.437   4.999  1.00  0.00     0.039 A 
HETATM   19  C   UNL     1      44.005 -18.650   4.309  1.00  0.00     0.022 A 
HETATM   20  C   UNL     1      43.621 -18.709   2.969  1.00  0.00     0.012 A 
HETATM   21 BR   UNL     1      43.709 -20.351   2.034  1.00  0.00    -0.051 Br
HETATM   22  C   UNL     1      43.178 -17.567   2.309  1.00  0.00     0.034 A 
BRANCH  17  23
HETATM   23  O   UNL     1      43.449 -15.134   5.077  1.00  0.00    -0.360 OA
HETATM   24  H   UNL     1      43.284 -14.386   4.458  1.00  0.00     0.217 HD
ENDBRANCH  17  23
ENDBRANCH  15  16
ENDBRANCH   3  14
BRANCH   2  25
HETATM   25  N   UNL     1      43.059 -11.675   2.777  1.00  0.00    -0.286 NA
HETATM   26  H   UNL     1      43.224 -12.324   3.553  1.00  0.00     0.125 HD
HETATM   27  H   UNL     1      43.953 -11.462   2.325  1.00  0.00     0.125 HD
ENDBRANCH   2  25
BRANCH   1  28
HETATM   28  C   UNL     1      40.929  -9.742   1.476  1.00  0.00     0.257 C 
HETATM   29  N   UNL     1      40.829  -9.023   0.298  1.00  0.00    -0.356 N 
HETATM   30  H   UNL     1      41.017  -9.558  -0.543  1.00  0.00     0.162 HD
HETATM   31  O   UNL     1      40.937  -9.216   2.582  1.00  0.00    -0.267 OA
BRANCH  29  32
HETATM   32  C   UNL     1      41.054  -7.597   0.233  1.00  0.00     0.126 C 
BRANCH  32  33
HETATM   33  C   UNL     1      41.744  -7.164  -1.073  1.00  0.00    -0.005 C 
HETATM   34  C   UNL     1      42.969  -8.028  -1.371  1.00  0.00     0.011 C 
HETATM   35  C   UNL     1      42.127  -5.680  -1.078  1.00  0.00     0.011 C 
ENDBRANCH  32  33
ENDBRANCH  29  32
ENDBRANCH   1  28
TORSDOF 7
ENDMDL
MODEL 7
REMARK VINA RESULT:      -8.5      3.367      7.580
REMARK  7 active torsions:
REMARK  status: ('A' for Active; 'I' for Inactive)
REMARK    1  A    between atoms: C_2  and  C_3 
REMARK    2  A    between atoms: C_3  and  N_4 
REMARK       I    between atoms: N_4  and  C_5 
REMARK    3  A    between atoms: C_5  and  C_6 
REMARK    4  A    between atoms: C_7  and  N_8 
REMARK    5  A    between atoms: N_9  and  N_10 
REMARK    6  A    between atoms: C_11  and  C_12 
REMARK    7  A    between atoms: C_13  and  O_14 
ROOT
HETATM    1  C   UNL     1      42.479 -11.618   5.975  1.00  0.00     0.104 C 
HETATM    2  C   UNL     1      43.049 -12.835   6.331  1.00  0.00     0.123 C 
HETATM    3  N   UNL     1      42.614 -13.777   5.401  1.00  0.00    -0.202 N 
HETATM    4  C   UNL     1      42.283 -13.096   4.250  1.00  0.00     0.183 A 
HETATM    5  C   UNL     1      42.117 -11.758   4.605  1.00  0.00     0.124 A 
HETATM    6  N   UNL     1      41.643 -10.855   3.710  1.00  0.00    -0.242 NA
HETATM    7  C   UNL     1      41.415 -11.344   2.479  1.00  0.00     0.086 A 
HETATM    8  C   UNL     1      41.618 -12.708   2.140  1.00  0.00     0.088 A 
HETATM    9  N   UNL     1      42.030 -13.625   3.030  1.00  0.00    -0.225 NA
HETATM   10  C   UNL     1      40.966 -10.469   1.497  1.00  0.00     0.034 A 
HETATM   11  C   UNL     1      40.727 -10.895   0.189  1.00  0.00     0.002 A 
HETATM   12  C   UNL     1      40.939 -12.226  -0.144  1.00  0.00     0.002 A 
HETATM   13  C   UNL     1      41.380 -13.117   0.835  1.00  0.00     0.034 A 
ENDROOT
BRANCH   3  14
HETATM   14  N   UNL     1      42.463 -15.138   5.598  1.00  0.00    -0.176 NA
HETATM   15  C   UNL     1      43.380 -15.831   4.989  1.00  0.00     0.153 C 
BRANCH  15  16
HETATM   16  C   UNL     1      43.462 -17.297   5.068  1.00  0.00     0.017 A 
HETATM   17  C   UNL     1      43.460 -17.983   6.283  1.00  0.00     0.077 A 
HETATM   18  C   UNL     1      43.610 -19.368   6.297  1.00  0.00     0.039 A 
HETATM   19  C   UNL     1      43.752 -20.070   5.097  1.00  0.00     0.022 A 
HETATM   20  C   UNL     1      43.739 -19.379   3.885  1.00  0.00     0.012 A 
HETATM   21 BR   UNL     1      43.924 -20.325   2.258  1.00  0.00    -0.051 Br
HETATM   22  C   UNL     1      43.599 -17.995   3.860  1.00  0.00     0.034 A 
BRANCH  17  23
HETATM   23  O   UNL     1      43.338 -17.356   7.490  1.00  0.00    -0.360 OA
HETATM   24  H   UNL     1      42.399 -17.422   7.777  1.00  0.00     0.217 HD
ENDBRANCH  17  23
ENDBRANCH  15  16
ENDBRANCH   3  14
BRANCH   2  25
HETATM   25  N   UNL     1      43.797 -13.190   7.423  1.00  0.00    -0.286 NA
HETATM   26  H   UNL     1      43.619 -12.659   8.282  1.00  0.00     0.125 HD
HETATM   27  H   UNL     1      43.828 -14.188   7.650  1.00  0.00     0.125 HD
ENDBRANCH   2  25
BRANCH   1  28
HETATM   28  C   UNL     1      42.286 -10.476   6.861  1.00  0.00     0.257 C 
HETATM   29  N   UNL     1      43.446 -10.121   7.528  1.00  0.00    -0.356 N 
HETATM   30  H   UNL     1      44.225 -10.756   7.392  1.00  0.00     0.162 HD
HETATM   31  O   UNL     1      41.204  -9.944   7.074  1.00  0.00    -0.267 OA
BRANCH  29  32
HETATM   32  C   UNL     1      43.440  -9.342   8.745  1.00  0.00     0.126 C 
BRANCH  32  33
HETATM   33  C   UNL     1      44.855  -9.084   9.293  1.00  0.00    -0.005 C 
HETATM   34  C   UNL     1      45.898  -9.105   8.176  1.00  0.00     0.011 C 
HETATM   35  C   UNL     1      45.248 -10.061  10.406  1.00  0.00     0.011 C 
ENDBRANCH  32  33
ENDBRANCH  29  32
ENDBRANCH   1  28
TORSDOF 7
ENDMDL
MODEL 8
REMARK VINA RESULT:      -8.5      3.321      5.769
REMARK  7 active torsions:
REMARK  status: ('A' for Active; 'I' for Inactive)
REMARK    1  A    between atoms: C_2  and  C_3 
REMARK    2  A    between atoms: C_3  and  N_4 
REMARK       I    between atoms: N_4  and  C_5 
REMARK    3  A    between atoms: C_5  and  C_6 
REMARK    4  A    between atoms: C_7  and  N_8 
REMARK    5  A    between atoms: N_9  and  N_10 
REMARK    6  A    between atoms: C_11  and  C_12 
REMARK    7  A    between atoms: C_13  and  O_14 
ROOT
HETATM    1  C   UNL     1      41.675 -12.642   1.554  1.00  0.00     0.104 C 
HETATM    2  C   UNL     1      41.868 -11.642   2.501  1.00  0.00     0.123 C 
HETATM    3  N   UNL     1      41.998 -12.270   3.737  1.00  0.00    -0.202 N 
HETATM    4  C   UNL     1      42.431 -13.556   3.501  1.00  0.00     0.183 A 
HETATM    5  C   UNL     1      42.164 -13.834   2.161  1.00  0.00     0.124 A 
HETATM    6  N   UNL     1      42.344 -15.082   1.660  1.00  0.00    -0.242 NA
HETATM    7  C   UNL     1      42.843 -15.975   2.532  1.00  0.00     0.086 A 
HETATM    8  C   UNL     1      43.130 -15.656   3.886  1.00  0.00     0.088 A 
HETATM    9  N   UNL     1      42.901 -14.442   4.411  1.00  0.00    -0.225 NA
HETATM   10  C   UNL     1      43.092 -17.266   2.081  1.00  0.00     0.034 A 
HETATM   11  C   UNL     1      43.629 -18.245   2.918  1.00  0.00     0.002 A 
HETATM   12  C   UNL     1      43.922 -17.927   4.237  1.00  0.00     0.002 A 
HETATM   13  C   UNL     1      43.667 -16.639   4.707  1.00  0.00     0.034 A 
ENDROOT
BRANCH   3  14
HETATM   14  N   UNL     1      41.688 -11.744   4.979  1.00  0.00    -0.176 NA
HETATM   15  C   UNL     1      42.694 -11.122   5.519  1.00  0.00     0.153 C 
BRANCH  15  16
HETATM   16  C   UNL     1      42.613 -10.446   6.822  1.00  0.00     0.017 A 
HETATM   17  C   UNL     1      41.479  -9.744   7.233  1.00  0.00     0.077 A 
HETATM   18  C   UNL     1      41.487  -9.066   8.450  1.00  0.00     0.039 A 
HETATM   19  C   UNL     1      42.624  -9.097   9.262  1.00  0.00     0.022 A 
HETATM   20  C   UNL     1      43.749  -9.812   8.852  1.00  0.00     0.012 A 
HETATM   21 BR   UNL     1      45.287  -9.863   9.951  1.00  0.00    -0.051 Br
HETATM   22  C   UNL     1      43.755 -10.486   7.634  1.00  0.00     0.034 A 
BRANCH  17  23
HETATM   23  O   UNL     1      40.342  -9.665   6.482  1.00  0.00    -0.360 OA
HETATM   24  H   UNL     1      40.597  -9.707   5.532  1.00  0.00     0.217 HD
ENDBRANCH  17  23
ENDBRANCH  15  16
ENDBRANCH   3  14
BRANCH   2  25
HETATM   25  N   UNL     1      41.827 -10.277   2.384  1.00  0.00    -0.286 NA
HETATM   26  H   UNL     1      40.999  -9.817   2.775  1.00  0.00     0.125 HD
HETATM   27  H   UNL     1      42.664  -9.769   2.685  1.00  0.00     0.125 HD
ENDBRANCH   2  25
BRANCH   1  28
HETATM   28  C   UNL     1      41.069 -12.466   0.239  1.00  0.00     0.257 C 
HETATM   29  N   UNL     1      40.600 -13.655  -0.290  1.00  0.00    -0.356 N 
HETATM   30  H   UNL     1      40.834 -14.482   0.248  1.00  0.00     0.162 HD
HETATM   31  O   UNL     1      41.056 -11.408  -0.377  1.00  0.00    -0.267 OA
BRANCH  29  32
HETATM   32  C   UNL     1      40.362 -13.839  -1.704  1.00  0.00     0.126 C 
BRANCH  32  33
HETATM   33  C   UNL     1      38.864 -13.901  -2.051  1.00  0.00    -0.005 C 
HETATM   34  C   UNL     1      38.566 -15.029  -3.039  1.00  0.00     0.011 C 
HETATM   35  C   UNL     1      38.323 -12.571  -2.587  1.00  0.00     0.011 C 
ENDBRANCH  32  33
ENDBRANCH  29  32
ENDBRANCH   1  28
TORSDOF 7
ENDMDL
MODEL 9
REMARK VINA RESULT:      -8.5      2.624      5.028
REMARK  7 active torsions:
REMARK  status: ('A' for Active; 'I' for Inactive)
REMARK    1  A    between atoms: C_2  and  C_3 
REMARK    2  A    between atoms: C_3  and  N_4 
REMARK       I    between atoms: N_4  and  C_5 
REMARK    3  A    between atoms: C_5  and  C_6 
REMARK    4  A    between atoms: C_7  and  N_8 
REMARK    5  A    between atoms: N_9  and  N_10 
REMARK    6  A    between atoms: C_11  and  C_12 
REMARK    7  A    between atoms: C_13  and  O_14 
ROOT
HETATM    1  C   UNL     1      41.973 -11.997   3.121  1.00  0.00     0.104 C 
HETATM    2  C   UNL     1      42.315 -11.041   4.072  1.00  0.00     0.123 C 
HETATM    3  N   UNL     1      42.508 -11.714   5.276  1.00  0.00    -0.202 N 
HETATM    4  C   UNL     1      42.828 -13.018   4.972  1.00  0.00     0.183 A 
HETATM    5  C   UNL     1      42.429 -13.236   3.654  1.00  0.00     0.124 A 
HETATM    6  N   UNL     1      42.478 -14.478   3.108  1.00  0.00    -0.242 NA
HETATM    7  C   UNL     1      42.987 -15.428   3.910  1.00  0.00     0.086 A 
HETATM    8  C   UNL     1      43.411 -15.171   5.241  1.00  0.00     0.088 A 
HETATM    9  N   UNL     1      43.313 -13.960   5.814  1.00  0.00    -0.225 NA
HETATM   10  C   UNL     1      43.106 -16.718   3.407  1.00  0.00     0.034 A 
HETATM   11  C   UNL     1      43.645 -17.756   4.170  1.00  0.00     0.002 A 
HETATM   12  C   UNL     1      44.072 -17.500   5.466  1.00  0.00     0.002 A 
HETATM   13  C   UNL     1      43.948 -16.212   5.988  1.00  0.00     0.034 A 
ENDROOT
BRANCH   3  14
HETATM   14  N   UNL     1      42.343 -11.206   6.553  1.00  0.00    -0.176 NA
HETATM   15  C   UNL     1      43.450 -10.736   7.046  1.00  0.00     0.153 C 
BRANCH  15  16
HETATM   16  C   UNL     1      43.535 -10.111   8.374  1.00  0.00     0.017 A 
HETATM   17  C   UNL     1      44.653 -10.252   9.198  1.00  0.00     0.077 A 
HETATM   18  C   UNL     1      44.648  -9.694  10.474  1.00  0.00     0.039 A 
HETATM   19  C   UNL     1      43.531  -8.984  10.924  1.00  0.00     0.022 A 
HETATM   20  C   UNL     1      42.423  -8.835  10.090  1.00  0.00     0.012 A 
HETATM   21 BR   UNL     1      40.912  -7.870  10.692  1.00  0.00    -0.051 Br
HETATM   22  C   UNL     1      42.414  -9.397   8.817  1.00  0.00     0.034 A 
BRANCH  17  23
HETATM   23  O   UNL     1      45.770 -10.943   8.824  1.00  0.00    -0.360 OA
HETATM   24  H   UNL     1      46.466 -10.291   8.577  1.00  0.00     0.217 HD
ENDBRANCH  17  23
ENDBRANCH  15  16
ENDBRANCH   3  14
BRANCH   2  25
HETATM   25  N   UNL     1      42.358  -9.673   3.992  1.00  0.00    -0.286 NA
HETATM   26  H   UNL     1      42.033  -9.263   3.111  1.00  0.00     0.125 HD
HETATM   27  H   UNL     1      41.940  -9.158   4.773  1.00  0.00     0.125 HD
ENDBRANCH   2  25
BRANCH   1  28
HETATM   28  C   UNL     1      41.269 -11.740   1.870  1.00  0.00     0.257 C 
HETATM   29  N   UNL     1      40.325 -12.711   1.586  1.00  0.00    -0.356 N 
HETATM   30  H   UNL     1      40.328 -13.505   2.217  1.00  0.00     0.162 HD
HETATM   31  O   UNL     1      41.540 -10.826   1.102  1.00  0.00    -0.267 OA
BRANCH  29  32
HETATM   32  C   UNL     1      39.814 -12.936   0.252  1.00  0.00     0.126 C 
BRANCH  32  33
HETATM   33  C   UNL     1      40.128 -14.349  -0.273  1.00  0.00    -0.005 C 
HETATM   34  C   UNL     1      39.263 -14.699  -1.484  1.00  0.00     0.011 C 
HETATM   35  C   UNL     1      39.990 -15.428   0.807  1.00  0.00     0.011 C 
ENDBRANCH  32  33
ENDBRANCH  29  32
ENDBRANCH   1  28
TORSDOF 7
ENDMDL
MODEL 10
REMARK VINA RESULT:      -8.4      3.874      8.430
REMARK  7 active torsions:
REMARK  status: ('A' for Active; 'I' for Inactive)
REMARK    1  A    between atoms: C_2  and  C_3 
REMARK    2  A    between atoms: C_3  and  N_4 
REMARK       I    between atoms: N_4  and  C_5 
REMARK    3  A    between atoms: C_5  and  C_6 
REMARK    4  A    between atoms: C_7  and  N_8 
REMARK    5  A    between atoms: N_9  and  N_10 
REMARK    6  A    between atoms: C_11  and  C_12 
REMARK    7  A    between atoms: C_13  and  O_14 
ROOT
HETATM    1  C   UNL     1      41.434 -11.590   5.350  1.00  0.00     0.104 C 
HETATM    2  C   UNL     1      40.294 -11.634   4.554  1.00  0.00     0.123 C 
HETATM    3  N   UNL     1      40.406 -12.760   3.742  1.00  0.00    -0.202 N 
HETATM    4  C   UNL     1      41.247 -13.645   4.380  1.00  0.00     0.183 A 
HETATM    5  C   UNL     1      41.955 -12.915   5.335  1.00  0.00     0.124 A 
HETATM    6  N   UNL     1      42.972 -13.482   6.030  1.00  0.00    -0.242 NA
HETATM    7  C   UNL     1      43.183 -14.783   5.765  1.00  0.00     0.086 A 
HETATM    8  C   UNL     1      42.428 -15.508   4.805  1.00  0.00     0.088 A 
HETATM    9  N   UNL     1      41.458 -14.945   4.066  1.00  0.00    -0.225 NA
HETATM   10  C   UNL     1      44.183 -15.443   6.468  1.00  0.00     0.034 A 
HETATM   11  C   UNL     1      44.450 -16.798   6.265  1.00  0.00     0.002 A 
HETATM   12  C   UNL     1      43.702 -17.509   5.337  1.00  0.00     0.002 A 
HETATM   13  C   UNL     1      42.702 -16.856   4.616  1.00  0.00     0.034 A 
ENDROOT
BRANCH   3  14
HETATM   14  N   UNL     1      39.846 -12.947   2.491  1.00  0.00    -0.176 NA
HETATM   15  C   UNL     1      40.720 -12.827   1.534  1.00  0.00     0.153 C 
BRANCH  15  16
HETATM   16  C   UNL     1      40.386 -13.013   0.115  1.00  0.00     0.017 A 
HETATM   17  C   UNL     1      39.895 -14.219  -0.387  1.00  0.00     0.077 A 
HETATM   18  C   UNL     1      39.661 -14.357  -1.754  1.00  0.00     0.039 A 
HETATM   19  C   UNL     1      39.908 -13.287  -2.618  1.00  0.00     0.022 A 
HETATM   20  C   UNL     1      40.385 -12.079  -2.108  1.00  0.00     0.012 A 
HETATM   21 BR   UNL     1      40.713 -10.626  -3.273  1.00  0.00    -0.051 Br
HETATM   22  C   UNL     1      40.630 -11.934  -0.745  1.00  0.00     0.034 A 
BRANCH  17  23
HETATM   23  O   UNL     1      39.645 -15.306   0.401  1.00  0.00    -0.360 OA
HETATM   24  H   UNL     1      40.228 -16.042   0.103  1.00  0.00     0.217 HD
ENDBRANCH  17  23
ENDBRANCH  15  16
ENDBRANCH   3  14
BRANCH   2  25
HETATM   25  N   UNL     1      39.264 -10.741   4.414  1.00  0.00    -0.286 NA
HETATM   26  H   UNL     1      38.348 -11.055   4.750  1.00  0.00     0.125 HD
HETATM   27  H   UNL     1      39.435  -9.790   4.755  1.00  0.00     0.125 HD
ENDBRANCH   2  25
BRANCH   1  28
HETATM   28  C   UNL     1      41.963 -10.405   6.015  1.00  0.00     0.257 C 
HETATM   29  N   UNL     1      43.013 -10.701   6.866  1.00  0.00    -0.356 N 
HETATM   30  H   UNL     1      43.195 -11.691   6.989  1.00  0.00     0.162 HD
HETATM   31  O   UNL     1      41.480  -9.284   5.914  1.00  0.00    -0.267 OA
BRANCH  29  32
HETATM   32  C   UNL     1      43.418  -9.822   7.940  1.00  0.00     0.126 C 
BRANCH  32  33
HETATM   33  C   UNL     1      44.936  -9.858   8.196  1.00  0.00    -0.005 C 
HETATM   34  C   UNL     1      45.601 -11.015   7.450  1.00  0.00     0.011 C 
HETATM   35  C   UNL     1      45.286  -9.916   9.687  1.00  0.00     0.011 C 
ENDBRANCH  32  33
ENDBRANCH  29  32
ENDBRANCH   1  28
TORSDOF 7
ENDMDL
