MODEL 1
REMARK VINA RESULT:      -8.5      0.000      0.000
REMARK  7 active torsions:
REMARK  status: ('A' for Active; 'I' for Inactive)
REMARK    1  A    between atoms: C_2  and  O_3 
REMARK    2  A    between atoms: O_3  and  C_4 
REMARK    3  A    between atoms: C_4  and  C_5 
REMARK    4  A    between atoms: C_8  and  N_9 
REMARK    5  A    between atoms: C_12  and  N_13 
REMARK    6  A    between atoms: C_17  and  O_18 
REMARK    7  A    between atoms: C_17  and  C_19 
ROOT
HETATM    1  N   UNL     1      43.783 -10.387   7.988  1.00  0.00    -0.251 N 
HETATM    2  C   UNL     1      42.713 -10.705   7.183  1.00  0.00     0.262 C 
HETATM    3  O   UNL     1      41.547 -10.340   7.210  1.00  0.00    -0.270 OA
HETATM    4  C   UNL     1      43.210 -11.659   6.123  1.00  0.00     0.289 C 
HETATM    5  C   UNL     1      44.685 -11.362   6.045  1.00  0.00     0.146 C 
HETATM    6  C   UNL     1      44.963 -10.824   7.418  1.00  0.00     0.233 C 
HETATM    7  O   UNL     1      46.099 -10.816   7.866  1.00  0.00    -0.273 OA
ENDROOT
BRANCH   4   8
HETATM    8  N   UNL     1      42.470 -11.595   4.773  1.00  0.00    -0.058 N 
HETATM    9  H   UNL     1      42.153 -10.611   4.713  1.00  0.00     0.281 HD
HETATM   10  C   UNL     1      43.341 -11.785   3.548  1.00  0.00     0.239 C 
HETATM   11  C   UNL     1      42.506 -11.719   2.279  1.00  0.00     0.071 C 
HETATM   12  C   UNL     1      41.354 -12.745   2.289  1.00  0.00     0.088 C 
HETATM   13  C   UNL     1      40.471 -12.355   3.490  1.00  0.00     0.071 C 
HETATM   14  C   UNL     1      41.230 -12.458   4.799  1.00  0.00     0.239 C 
BRANCH  12  15
HETATM   15  O   UNL     1      40.578 -12.507   1.116  1.00  0.00    -0.385 OA
HETATM   16  H   UNL     1      41.129 -12.638   0.322  1.00  0.00     0.211 HD
ENDBRANCH  12  15
BRANCH  12  17
HETATM   17  C   UNL     1      41.796 -14.215   2.280  1.00  0.00    -0.024 A 
HETATM   18  C   UNL     1      41.008 -15.223   2.871  1.00  0.00     0.011 A 
HETATM   19  C   UNL     1      41.434 -16.556   2.912  1.00  0.00     0.020 A 
HETATM   20  C   UNL     1      42.642 -16.913   2.330  1.00  0.00     0.011 A 
HETATM   21 BR   UNL     1      43.230 -18.706   2.404  1.00  0.00    -0.051 Br
HETATM   22  C   UNL     1      43.412 -15.956   1.682  1.00  0.00     0.020 A 
HETATM   23  C   UNL     1      42.984 -14.624   1.645  1.00  0.00     0.011 A 
ENDBRANCH  12  17
ENDBRANCH   4   8
BRANCH   1  24
HETATM   24  C   UNL     1      43.687  -9.763   9.268  1.00  0.00     0.045 A 
HETATM   25  C   UNL     1      43.453  -8.383   9.393  1.00  0.00     0.031 A 
HETATM   26  C   UNL     1      43.226  -7.794  10.647  1.00  0.00     0.020 A 
HETATM   27  C   UNL     1      43.242  -8.567  11.811  1.00  0.00     0.039 A 
HETATM   28  C   UNL     1      43.539  -9.926  11.709  1.00  0.00     0.020 A 
HETATM   29  C   UNL     1      43.758 -10.511  10.454  1.00  0.00     0.031 A 
BRANCH  27  30
HETATM   30  C   UNL     1      42.884  -7.920  13.102  1.00  0.00     0.293 C 
HETATM   31  O   UNL     1      42.909  -6.712  13.273  1.00  0.00    -0.259 OA
BRANCH  30  32
HETATM   32  O   UNL     1      42.472  -8.854  13.994  1.00  0.00    -0.318 OA
BRANCH  32  33
HETATM   33  C   UNL     1      41.086  -8.810  14.365  1.00  0.00     0.174 C 
HETATM   34  C   UNL     1      40.309  -9.789  13.504  1.00  0.00     0.034 C 
ENDBRANCH  32  33
ENDBRANCH  30  32
ENDBRANCH  27  30
ENDBRANCH   1  24
TORSDOF 7
ENDMDL
MODEL 2
REMARK VINA RESULT:      -8.3      4.017     10.130
REMARK  7 active torsions:
REMARK  status: ('A' for Active; 'I' for Inactive)
REMARK    1  A    between atoms: C_2  and  O_3 
REMARK    2  A    between atoms: O_3  and  C_4 
REMARK    3  A    between atoms: C_4  and  C_5 
REMARK    4  A    between atoms: C_8  and  N_9 
REMARK    5  A    between atoms: C_12  and  N_13 
REMARK    6  A    between atoms: C_17  and  O_18 
REMARK    7  A    between atoms: C_17  and  C_19 
ROOT
HETATM    1  N   UNL     1      42.532 -13.812   5.303  1.00  0.00    -0.251 N 
HETATM    2  C   UNL     1      43.406 -12.999   5.989  1.00  0.00     0.262 C 
HETATM    3  O   UNL     1      44.627 -12.974   6.023  1.00  0.00    -0.270 OA
HETATM    4  C   UNL     1      42.581 -12.008   6.776  1.00  0.00     0.289 C 
HETATM    5  C   UNL     1      41.279 -11.952   6.018  1.00  0.00     0.146 C 
HETATM    6  C   UNL     1      41.251 -13.298   5.357  1.00  0.00     0.233 C 
HETATM    7  O   UNL     1      40.199 -13.775   4.959  1.00  0.00    -0.273 OA
ENDROOT
BRANCH   4   8
HETATM    8  N   UNL     1      43.242 -10.638   7.018  1.00  0.00    -0.058 N 
HETATM    9  H   UNL     1      43.752 -10.452   6.136  1.00  0.00     0.281 HD
HETATM   10  C   UNL     1      42.284  -9.471   7.152  1.00  0.00     0.239 C 
HETATM   11  C   UNL     1      43.043  -8.178   7.403  1.00  0.00     0.071 C 
HETATM   12  C   UNL     1      43.956  -8.274   8.643  1.00  0.00     0.088 C 
HETATM   13  C   UNL     1      44.966  -9.392   8.320  1.00  0.00     0.071 C 
HETATM   14  C   UNL     1      44.275 -10.727   8.117  1.00  0.00     0.239 C 
BRANCH  12  15
HETATM   15  O   UNL     1      44.699  -7.057   8.704  1.00  0.00    -0.385 OA
HETATM   16  H   UNL     1      45.263  -6.974   7.913  1.00  0.00     0.211 HD
ENDBRANCH  12  15
BRANCH  12  17
HETATM   17  C   UNL     1      43.219  -8.452   9.978  1.00  0.00    -0.024 A 
HETATM   18  C   UNL     1      43.881  -8.941  11.122  1.00  0.00     0.011 A 
HETATM   19  C   UNL     1      43.199  -9.156  12.326  1.00  0.00     0.020 A 
HETATM   20  C   UNL     1      41.848  -8.852  12.418  1.00  0.00     0.011 A 
HETATM   21 BR   UNL     1      40.920  -9.163  14.033  1.00  0.00    -0.051 Br
HETATM   22  C   UNL     1      41.181  -8.307  11.329  1.00  0.00     0.020 A 
HETATM   23  C   UNL     1      41.866  -8.095  10.126  1.00  0.00     0.011 A 
ENDBRANCH  12  17
ENDBRANCH   4   8
BRANCH   1  24
HETATM   24  C   UNL     1      42.881 -15.051   4.687  1.00  0.00     0.045 A 
HETATM   25  C   UNL     1      43.209 -16.182   5.453  1.00  0.00     0.031 A 
HETATM   26  C   UNL     1      43.420 -17.433   4.852  1.00  0.00     0.020 A 
HETATM   27  C   UNL     1      43.324 -17.582   3.466  1.00  0.00     0.039 A 
HETATM   28  C   UNL     1      43.065 -16.455   2.686  1.00  0.00     0.020 A 
HETATM   29  C   UNL     1      42.847 -15.209   3.292  1.00  0.00     0.031 A 
BRANCH  27  30
HETATM   30  C   UNL     1      43.443 -18.947   2.884  1.00  0.00     0.293 C 
HETATM   31  O   UNL     1      42.826 -19.307   1.896  1.00  0.00    -0.259 OA
BRANCH  30  32
HETATM   32  O   UNL     1      44.368 -19.665   3.567  1.00  0.00    -0.318 OA
BRANCH  32  33
HETATM   33  C   UNL     1      43.949 -20.955   4.038  1.00  0.00     0.174 C 
HETATM   34  C   UNL     1      43.949 -20.955   5.555  1.00  0.00     0.034 C 
ENDBRANCH  32  33
ENDBRANCH  30  32
ENDBRANCH  27  30
ENDBRANCH   1  24
TORSDOF 7
ENDMDL
MODEL 3
REMARK VINA RESULT:      -8.0      7.152      9.544
REMARK  7 active torsions:
REMARK  status: ('A' for Active; 'I' for Inactive)
REMARK    1  A    between atoms: C_2  and  O_3 
REMARK    2  A    between atoms: O_3  and  C_4 
REMARK    3  A    between atoms: C_4  and  C_5 
REMARK    4  A    between atoms: C_8  and  N_9 
REMARK    5  A    between atoms: C_12  and  N_13 
REMARK    6  A    between atoms: C_17  and  O_18 
REMARK    7  A    between atoms: C_17  and  C_19 
ROOT
HETATM    1  N   UNL     1      41.577 -14.348   2.162  1.00  0.00    -0.251 N 
HETATM    2  C   UNL     1      40.847 -14.502   1.006  1.00  0.00     0.262 C 
HETATM    3  O   UNL     1      40.192 -15.444   0.584  1.00  0.00    -0.270 OA
HETATM    4  C   UNL     1      40.946 -13.209   0.232  1.00  0.00     0.289 C 
HETATM    5  C   UNL     1      41.254 -12.185   1.295  1.00  0.00     0.146 C 
HETATM    6  C   UNL     1      41.923 -13.023   2.344  1.00  0.00     0.233 C 
HETATM    7  O   UNL     1      42.641 -12.510   3.188  1.00  0.00    -0.273 OA
ENDROOT
BRANCH   4   8
HETATM    8  N   UNL     1      39.731 -12.869  -0.652  1.00  0.00    -0.058 N 
HETATM    9  H   UNL     1      39.092 -13.672  -0.511  1.00  0.00     0.281 HD
HETATM   10  C   UNL     1      38.924 -11.665  -0.209  1.00  0.00     0.239 C 
HETATM   11  C   UNL     1      37.764 -11.415  -1.160  1.00  0.00     0.071 C 
HETATM   12  C   UNL     1      38.237 -11.244  -2.618  1.00  0.00     0.088 C 
HETATM   13  C   UNL     1      38.909 -12.580  -2.989  1.00  0.00     0.071 C 
HETATM   14  C   UNL     1      40.115 -12.861  -2.113  1.00  0.00     0.239 C 
BRANCH  12  15
HETATM   15  O   UNL     1      37.064 -11.139  -3.424  1.00  0.00    -0.385 OA
HETATM   16  H   UNL     1      36.740 -12.030  -3.652  1.00  0.00     0.211 HD
ENDBRANCH  12  15
BRANCH  12  17
HETATM   17  C   UNL     1      39.107 -10.005  -2.875  1.00  0.00    -0.024 A 
HETATM   18  C   UNL     1      40.181 -10.039  -3.786  1.00  0.00     0.011 A 
HETATM   19  C   UNL     1      41.009  -8.927  -3.983  1.00  0.00     0.020 A 
HETATM   20  C   UNL     1      40.756  -7.747  -3.297  1.00  0.00     0.011 A 
HETATM   21 BR   UNL     1      41.885  -6.253  -3.542  1.00  0.00    -0.051 Br
HETATM   22  C   UNL     1      39.666  -7.660  -2.441  1.00  0.00     0.020 A 
HETATM   23  C   UNL     1      38.841  -8.774  -2.245  1.00  0.00     0.011 A 
ENDBRANCH  12  17
ENDBRANCH   4   8
BRANCH   1  24
HETATM   24  C   UNL     1      41.988 -15.415   3.018  1.00  0.00     0.045 A 
HETATM   25  C   UNL     1      43.044 -16.271   2.664  1.00  0.00     0.031 A 
HETATM   26  C   UNL     1      43.535 -17.232   3.562  1.00  0.00     0.020 A 
HETATM   27  C   UNL     1      42.971 -17.373   4.833  1.00  0.00     0.039 A 
HETATM   28  C   UNL     1      41.878 -16.577   5.174  1.00  0.00     0.020 A 
HETATM   29  C   UNL     1      41.397 -15.613   4.276  1.00  0.00     0.031 A 
BRANCH  27  30
HETATM   30  C   UNL     1      43.597 -18.326   5.790  1.00  0.00     0.293 C 
HETATM   31  O   UNL     1      43.348 -18.331   6.984  1.00  0.00    -0.259 OA
BRANCH  30  32
HETATM   32  O   UNL     1      44.398 -19.194   5.127  1.00  0.00    -0.318 OA
BRANCH  32  33
HETATM   33  C   UNL     1      43.989 -20.571   5.139  1.00  0.00     0.174 C 
HETATM   34  C   UNL     1      43.859 -21.065   3.710  1.00  0.00     0.034 C 
ENDBRANCH  32  33
ENDBRANCH  30  32
ENDBRANCH  27  30
ENDBRANCH   1  24
TORSDOF 7
ENDMDL
MODEL 4
REMARK VINA RESULT:      -7.8      5.458     10.583
REMARK  7 active torsions:
REMARK  status: ('A' for Active; 'I' for Inactive)
REMARK    1  A    between atoms: C_2  and  O_3 
REMARK    2  A    between atoms: O_3  and  C_4 
REMARK    3  A    between atoms: C_4  and  C_5 
REMARK    4  A    between atoms: C_8  and  N_9 
REMARK    5  A    between atoms: C_12  and  N_13 
REMARK    6  A    between atoms: C_17  and  O_18 
REMARK    7  A    between atoms: C_17  and  C_19 
ROOT
HETATM    1  N   UNL     1      40.363 -12.889  -0.201  1.00  0.00    -0.251 N 
HETATM    2  C   UNL     1      41.091 -12.550   0.916  1.00  0.00     0.262 C 
HETATM    3  O   UNL     1      41.452 -11.464   1.345  1.00  0.00    -0.270 OA
HETATM    4  C   UNL     1      41.417 -13.829   1.651  1.00  0.00     0.289 C 
HETATM    5  C   UNL     1      40.335 -14.778   1.202  1.00  0.00     0.146 C 
HETATM    6  C   UNL     1      39.964 -14.210  -0.136  1.00  0.00     0.233 C 
HETATM    7  O   UNL     1      39.393 -14.898  -0.968  1.00  0.00    -0.273 OA
ENDROOT
BRANCH   4   8
HETATM    8  N   UNL     1      41.561 -13.698   3.179  1.00  0.00    -0.058 N 
HETATM    9  H   UNL     1      41.214 -12.743   3.379  1.00  0.00     0.281 HD
HETATM   10  C   UNL     1      40.661 -14.603   3.995  1.00  0.00     0.239 C 
HETATM   11  C   UNL     1      40.900 -14.402   5.483  1.00  0.00     0.071 C 
HETATM   12  C   UNL     1      42.378 -14.619   5.867  1.00  0.00     0.088 C 
HETATM   13  C   UNL     1      43.165 -13.550   5.084  1.00  0.00     0.071 C 
HETATM   14  C   UNL     1      43.016 -13.733   3.586  1.00  0.00     0.239 C 
BRANCH  12  15
HETATM   15  O   UNL     1      42.499 -14.286   7.249  1.00  0.00    -0.385 OA
HETATM   16  H   UNL     1      43.396 -14.505   7.564  1.00  0.00     0.211 HD
ENDBRANCH  12  15
BRANCH  12  17
HETATM   17  C   UNL     1      42.893 -16.052   5.673  1.00  0.00    -0.024 A 
HETATM   18  C   UNL     1      43.490 -16.461   4.464  1.00  0.00     0.011 A 
HETATM   19  C   UNL     1      43.912 -17.781   4.265  1.00  0.00     0.020 A 
HETATM   20  C   UNL     1      43.776 -18.711   5.286  1.00  0.00     0.011 A 
HETATM   21 BR   UNL     1      44.322 -20.498   5.013  1.00  0.00    -0.051 Br
HETATM   22  C   UNL     1      43.252 -18.325   6.513  1.00  0.00     0.020 A 
HETATM   23  C   UNL     1      42.829 -17.004   6.708  1.00  0.00     0.011 A 
ENDBRANCH  12  17
ENDBRANCH   4   8
BRANCH   1  24
HETATM   24  C   UNL     1      40.116 -12.024  -1.310  1.00  0.00     0.045 A 
HETATM   25  C   UNL     1      38.909 -11.315  -1.430  1.00  0.00     0.031 A 
HETATM   26  C   UNL     1      38.721 -10.365  -2.446  1.00  0.00     0.020 A 
HETATM   27  C   UNL     1      39.729 -10.110  -3.379  1.00  0.00     0.039 A 
HETATM   28  C   UNL     1      40.907 -10.855  -3.314  1.00  0.00     0.020 A 
HETATM   29  C   UNL     1      41.093 -11.797  -2.292  1.00  0.00     0.031 A 
BRANCH  27  30
HETATM   30  C   UNL     1      39.528  -9.016  -4.368  1.00  0.00     0.293 C 
HETATM   31  O   UNL     1      38.719  -9.081  -5.279  1.00  0.00    -0.259 OA
BRANCH  30  32
HETATM   32  O   UNL     1      40.308  -7.955  -4.054  1.00  0.00    -0.318 OA
BRANCH  32  33
HETATM   33  C   UNL     1      41.142  -7.446  -5.107  1.00  0.00     0.174 C 
HETATM   34  C   UNL     1      42.505  -7.096  -4.538  1.00  0.00     0.034 C 
ENDBRANCH  32  33
ENDBRANCH  30  32
ENDBRANCH  27  30
ENDBRANCH   1  24
TORSDOF 7
ENDMDL
MODEL 5
REMARK VINA RESULT:      -7.7      2.036      2.890
REMARK  7 active torsions:
REMARK  status: ('A' for Active; 'I' for Inactive)
REMARK    1  A    between atoms: C_2  and  O_3 
REMARK    2  A    between atoms: O_3  and  C_4 
REMARK    3  A    between atoms: C_4  and  C_5 
REMARK    4  A    between atoms: C_8  and  N_9 
REMARK    5  A    between atoms: C_12  and  N_13 
REMARK    6  A    between atoms: C_17  and  O_18 
REMARK    7  A    between atoms: C_17  and  C_19 
ROOT
HETATM    1  N   UNL     1      42.972 -10.300   7.547  1.00  0.00    -0.251 N 
HETATM    2  C   UNL     1      42.160 -10.683   6.504  1.00  0.00     0.262 C 
HETATM    3  O   UNL     1      41.305 -10.071   5.881  1.00  0.00    -0.270 OA
HETATM    4  C   UNL     1      42.502 -12.115   6.166  1.00  0.00     0.289 C 
HETATM    5  C   UNL     1      43.916 -12.267   6.666  1.00  0.00     0.146 C 
HETATM    6  C   UNL     1      43.971 -11.232   7.750  1.00  0.00     0.233 C 
HETATM    7  O   UNL     1      44.816 -11.296   8.630  1.00  0.00    -0.273 OA
ENDROOT
BRANCH   4   8
HETATM    8  N   UNL     1      42.296 -12.516   4.692  1.00  0.00    -0.058 N 
HETATM    9  H   UNL     1      41.943 -11.649   4.249  1.00  0.00     0.281 HD
HETATM   10  C   UNL     1      43.563 -12.841   3.927  1.00  0.00     0.239 C 
HETATM   11  C   UNL     1      43.239 -13.238   2.495  1.00  0.00     0.071 C 
HETATM   12  C   UNL     1      42.249 -14.419   2.431  1.00  0.00     0.088 C 
HETATM   13  C   UNL     1      40.964 -13.911   3.112  1.00  0.00     0.071 C 
HETATM   14  C   UNL     1      41.205 -13.554   4.566  1.00  0.00     0.239 C 
BRANCH  12  15
HETATM   15  O   UNL     1      41.931 -14.617   1.054  1.00  0.00    -0.385 OA
HETATM   16  H   UNL     1      41.984 -13.768   0.577  1.00  0.00     0.211 HD
ENDBRANCH  12  15
BRANCH  12  17
HETATM   17  C   UNL     1      42.783 -15.743   2.995  1.00  0.00    -0.024 A 
HETATM   18  C   UNL     1      43.126 -16.816   2.148  1.00  0.00     0.011 A 
HETATM   19  C   UNL     1      43.563 -18.043   2.662  1.00  0.00     0.020 A 
HETATM   20  C   UNL     1      43.697 -18.209   4.033  1.00  0.00     0.011 A 
HETATM   21 BR   UNL     1      44.263 -19.870   4.730  1.00  0.00    -0.051 Br
HETATM   22  C   UNL     1      43.431 -17.151   4.892  1.00  0.00     0.020 A 
HETATM   23  C   UNL     1      42.993 -15.925   4.375  1.00  0.00     0.011 A 
ENDBRANCH  12  17
ENDBRANCH   4   8
BRANCH   1  24
HETATM   24  C   UNL     1      42.771  -9.142   8.358  1.00  0.00     0.045 A 
HETATM   25  C   UNL     1      41.771  -9.105   9.344  1.00  0.00     0.031 A 
HETATM   26  C   UNL     1      41.661  -8.021  10.229  1.00  0.00     0.020 A 
HETATM   27  C   UNL     1      42.539  -6.937  10.142  1.00  0.00     0.039 A 
HETATM   28  C   UNL     1      43.494  -6.929   9.125  1.00  0.00     0.020 A 
HETATM   29  C   UNL     1      43.605  -8.018   8.248  1.00  0.00     0.031 A 
BRANCH  27  30
HETATM   30  C   UNL     1      42.456  -5.866  11.171  1.00  0.00     0.293 C 
HETATM   31  O   UNL     1      42.129  -6.076  12.327  1.00  0.00    -0.259 OA
BRANCH  30  32
HETATM   32  O   UNL     1      42.860  -4.683  10.647  1.00  0.00    -0.318 OA
BRANCH  32  33
HETATM   33  C   UNL     1      42.277  -3.503  11.220  1.00  0.00     0.174 C 
HETATM   34  C   UNL     1      43.369  -2.480  11.471  1.00  0.00     0.034 C 
ENDBRANCH  32  33
ENDBRANCH  30  32
ENDBRANCH  27  30
ENDBRANCH   1  24
TORSDOF 7
ENDMDL
MODEL 6
REMARK VINA RESULT:      -7.7      6.141      8.938
REMARK  7 active torsions:
REMARK  status: ('A' for Active; 'I' for Inactive)
REMARK    1  A    between atoms: C_2  and  O_3 
REMARK    2  A    between atoms: O_3  and  C_4 
REMARK    3  A    between atoms: C_4  and  C_5 
REMARK    4  A    between atoms: C_8  and  N_9 
REMARK    5  A    between atoms: C_12  and  N_13 
REMARK    6  A    between atoms: C_17  and  O_18 
REMARK    7  A    between atoms: C_17  and  C_19 
ROOT
HETATM    1  N   UNL     1      41.687 -14.533   3.587  1.00  0.00    -0.251 N 
HETATM    2  C   UNL     1      41.871 -13.407   2.817  1.00  0.00     0.262 C 
HETATM    3  O   UNL     1      42.329 -13.265   1.693  1.00  0.00    -0.270 OA
HETATM    4  C   UNL     1      41.363 -12.227   3.610  1.00  0.00     0.289 C 
HETATM    5  C   UNL     1      40.372 -12.843   4.564  1.00  0.00     0.146 C 
HETATM    6  C   UNL     1      40.888 -14.248   4.677  1.00  0.00     0.233 C 
HETATM    7  O   UNL     1      40.582 -14.949   5.629  1.00  0.00    -0.273 OA
ENDROOT
BRANCH   4   8
HETATM    8  N   UNL     1      40.807 -11.056   2.776  1.00  0.00    -0.058 N 
HETATM    9  H   UNL     1      40.964 -10.228   3.378  1.00  0.00     0.281 HD
HETATM   10  C   UNL     1      41.569 -10.747   1.505  1.00  0.00     0.239 C 
HETATM   11  C   UNL     1      40.924  -9.591   0.757  1.00  0.00     0.071 C 
HETATM   12  C   UNL     1      39.437  -9.860   0.446  1.00  0.00     0.088 C 
HETATM   13  C   UNL     1      38.754 -10.013   1.818  1.00  0.00     0.071 C 
HETATM   14  C   UNL     1      39.313 -11.191   2.593  1.00  0.00     0.239 C 
BRANCH  12  15
HETATM   15  O   UNL     1      38.915  -8.668  -0.140  1.00  0.00    -0.385 OA
HETATM   16  H   UNL     1      38.243  -8.895  -0.808  1.00  0.00     0.211 HD
ENDBRANCH  12  15
BRANCH  12  17
HETATM   17  C   UNL     1      39.179 -11.022  -0.523  1.00  0.00    -0.024 A 
HETATM   18  C   UNL     1      37.870 -11.440  -0.836  1.00  0.00     0.011 A 
HETATM   19  C   UNL     1      37.632 -12.534  -1.677  1.00  0.00     0.020 A 
HETATM   20  C   UNL     1      38.701 -13.211  -2.249  1.00  0.00     0.011 A 
HETATM   21 BR   UNL     1      38.384 -14.701  -3.364  1.00  0.00    -0.051 Br
HETATM   22  C   UNL     1      40.001 -12.784  -2.013  1.00  0.00     0.020 A 
HETATM   23  C   UNL     1      40.235 -11.691  -1.170  1.00  0.00     0.011 A 
ENDBRANCH  12  17
ENDBRANCH   4   8
BRANCH   1  24
HETATM   24  C   UNL     1      42.296 -15.800   3.342  1.00  0.00     0.045 A 
HETATM   25  C   UNL     1      43.382 -16.251   4.110  1.00  0.00     0.031 A 
HETATM   26  C   UNL     1      43.893 -17.549   3.958  1.00  0.00     0.020 A 
HETATM   27  C   UNL     1      43.341 -18.427   3.021  1.00  0.00     0.039 A 
HETATM   28  C   UNL     1      42.307 -17.971   2.204  1.00  0.00     0.020 A 
HETATM   29  C   UNL     1      41.794 -16.676   2.365  1.00  0.00     0.031 A 
BRANCH  27  30
HETATM   30  C   UNL     1      43.841 -19.828   2.974  1.00  0.00     0.293 C 
HETATM   31  O   UNL     1      43.697 -20.555   2.005  1.00  0.00    -0.259 OA
BRANCH  30  32
HETATM   32  O   UNL     1      44.516 -20.121   4.112  1.00  0.00    -0.318 OA
BRANCH  32  33
HETATM   33  C   UNL     1      43.853 -20.999   5.035  1.00  0.00     0.174 C 
HETATM   34  C   UNL     1      43.499 -20.226   6.292  1.00  0.00     0.034 C 
ENDBRANCH  32  33
ENDBRANCH  30  32
ENDBRANCH  27  30
ENDBRANCH   1  24
TORSDOF 7
ENDMDL
MODEL 7
REMARK VINA RESULT:      -7.7      7.426      9.625
REMARK  7 active torsions:
REMARK  status: ('A' for Active; 'I' for Inactive)
REMARK    1  A    between atoms: C_2  and  O_3 
REMARK    2  A    between atoms: O_3  and  C_4 
REMARK    3  A    between atoms: C_4  and  C_5 
REMARK    4  A    between atoms: C_8  and  N_9 
REMARK    5  A    between atoms: C_12  and  N_13 
REMARK    6  A    between atoms: C_17  and  O_18 
REMARK    7  A    between atoms: C_17  and  C_19 
ROOT
HETATM    1  N   UNL     1      41.313 -14.762   1.883  1.00  0.00    -0.251 N 
HETATM    2  C   UNL     1      41.549 -13.423   1.673  1.00  0.00     0.262 C 
HETATM    3  O   UNL     1      42.471 -12.701   2.025  1.00  0.00    -0.270 OA
HETATM    4  C   UNL     1      40.408 -12.886   0.841  1.00  0.00     0.289 C 
HETATM    5  C   UNL     1      39.885 -14.108   0.130  1.00  0.00     0.146 C 
HETATM    6  C   UNL     1      40.288 -15.206   1.070  1.00  0.00     0.233 C 
HETATM    7  O   UNL     1      39.731 -16.292   1.035  1.00  0.00    -0.273 OA
ENDROOT
BRANCH   4   8
HETATM    8  N   UNL     1      40.760 -11.707  -0.086  1.00  0.00    -0.058 N 
HETATM    9  H   UNL     1      41.788 -11.623   0.002  1.00  0.00     0.281 HD
HETATM   10  C   UNL     1      40.527 -11.952  -1.562  1.00  0.00     0.239 C 
HETATM   11  C   UNL     1      40.891 -10.720  -2.377  1.00  0.00     0.071 C 
HETATM   12  C   UNL     1      40.122  -9.468  -1.908  1.00  0.00     0.088 C 
HETATM   13  C   UNL     1      40.555  -9.247  -0.445  1.00  0.00     0.071 C 
HETATM   14  C   UNL     1      40.166 -10.419   0.436  1.00  0.00     0.239 C 
BRANCH  12  15
HETATM   15  O   UNL     1      40.633  -8.366  -2.656  1.00  0.00    -0.385 OA
HETATM   16  H   UNL     1      41.576  -8.511  -2.857  1.00  0.00     0.211 HD
ENDBRANCH  12  15
BRANCH  12  17
HETATM   17  C   UNL     1      38.602  -9.526  -2.116  1.00  0.00    -0.024 A 
HETATM   18  C   UNL     1      37.732  -8.666  -1.416  1.00  0.00     0.011 A 
HETATM   19  C   UNL     1      36.343  -8.752  -1.564  1.00  0.00     0.020 A 
HETATM   20  C   UNL     1      35.797  -9.678  -2.442  1.00  0.00     0.011 A 
HETATM   21 BR   UNL     1      33.923  -9.813  -2.625  1.00  0.00    -0.051 Br
HETATM   22  C   UNL     1      36.629 -10.496  -3.196  1.00  0.00     0.020 A 
HETATM   23  C   UNL     1      38.019 -10.408  -3.044  1.00  0.00     0.011 A 
ENDBRANCH  12  17
ENDBRANCH   4   8
BRANCH   1  24
HETATM   24  C   UNL     1      41.979 -15.568   2.856  1.00  0.00     0.045 A 
HETATM   25  C   UNL     1      41.527 -15.632   4.184  1.00  0.00     0.031 A 
HETATM   26  C   UNL     1      42.098 -16.524   5.105  1.00  0.00     0.020 A 
HETATM   27  C   UNL     1      43.148 -17.366   4.726  1.00  0.00     0.039 A 
HETATM   28  C   UNL     1      43.652 -17.265   3.429  1.00  0.00     0.020 A 
HETATM   29  C   UNL     1      43.073 -16.378   2.511  1.00  0.00     0.031 A 
BRANCH  27  30
HETATM   30  C   UNL     1      43.645 -18.373   5.702  1.00  0.00     0.293 C 
HETATM   31  O   UNL     1      43.294 -18.399   6.870  1.00  0.00    -0.259 OA
BRANCH  30  32
HETATM   32  O   UNL     1      44.460 -19.260   5.083  1.00  0.00    -0.318 OA
BRANCH  32  33
HETATM   33  C   UNL     1      43.995 -20.618   5.028  1.00  0.00     0.174 C 
HETATM   34  C   UNL     1      43.875 -21.045   3.576  1.00  0.00     0.034 C 
ENDBRANCH  32  33
ENDBRANCH  30  32
ENDBRANCH  27  30
ENDBRANCH   1  24
TORSDOF 7
ENDMDL
MODEL 8
REMARK VINA RESULT:      -7.5     19.419     20.958
REMARK  7 active torsions:
REMARK  status: ('A' for Active; 'I' for Inactive)
REMARK    1  A    between atoms: C_2  and  O_3 
REMARK    2  A    between atoms: O_3  and  C_4 
REMARK    3  A    between atoms: C_4  and  C_5 
REMARK    4  A    between atoms: C_8  and  N_9 
REMARK    5  A    between atoms: C_12  and  N_13 
REMARK    6  A    between atoms: C_17  and  O_18 
REMARK    7  A    between atoms: C_17  and  C_19 
ROOT
HETATM    1  N   UNL     1      42.606 -31.599   2.744  1.00  0.00    -0.251 N 
HETATM    2  C   UNL     1      43.150 -30.458   2.199  1.00  0.00     0.262 C 
HETATM    3  O   UNL     1      43.409 -29.371   2.695  1.00  0.00    -0.270 OA
HETATM    4  C   UNL     1      43.443 -30.745   0.745  1.00  0.00     0.289 C 
HETATM    5  C   UNL     1      43.585 -32.244   0.703  1.00  0.00     0.146 C 
HETATM    6  C   UNL     1      42.750 -32.665   1.877  1.00  0.00     0.233 C 
HETATM    7  O   UNL     1      42.317 -33.804   1.958  1.00  0.00    -0.273 OA
ENDROOT
BRANCH   4   8
HETATM    8  N   UNL     1      44.631 -29.971   0.142  1.00  0.00    -0.058 N 
HETATM    9  H   UNL     1      45.049 -29.487   0.957  1.00  0.00     0.281 HD
HETATM   10  C   UNL     1      45.754 -30.830  -0.401  1.00  0.00     0.239 C 
HETATM   11  C   UNL     1      46.861 -29.965  -0.984  1.00  0.00     0.071 C 
HETATM   12  C   UNL     1      46.334 -29.008  -2.074  1.00  0.00     0.088 C 
HETATM   13  C   UNL     1      45.312 -28.102  -1.362  1.00  0.00     0.071 C 
HETATM   14  C   UNL     1      44.147 -28.900  -0.808  1.00  0.00     0.239 C 
BRANCH  12  15
HETATM   15  O   UNL     1      47.427 -28.173  -2.453  1.00  0.00    -0.385 OA
HETATM   16  H   UNL     1      48.003 -28.646  -3.082  1.00  0.00     0.211 HD
ENDBRANCH  12  15
BRANCH  12  17
HETATM   17  C   UNL     1      45.798 -29.698  -3.336  1.00  0.00    -0.024 A 
HETATM   18  C   UNL     1      46.373 -30.888  -3.824  1.00  0.00     0.011 A 
HETATM   19  C   UNL     1      45.922 -31.489  -5.004  1.00  0.00     0.020 A 
HETATM   20  C   UNL     1      44.860 -30.929  -5.703  1.00  0.00     0.011 A 
HETATM   21 BR   UNL     1      44.264 -31.725  -7.308  1.00  0.00    -0.051 Br
HETATM   22  C   UNL     1      44.228 -29.793  -5.214  1.00  0.00     0.020 A 
HETATM   23  C   UNL     1      44.684 -29.194  -4.034  1.00  0.00     0.011 A 
ENDBRANCH  12  17
ENDBRANCH   4   8
BRANCH   1  24
HETATM   24  C   UNL     1      41.920 -31.661   3.994  1.00  0.00     0.045 A 
HETATM   25  C   UNL     1      40.537 -31.431   4.082  1.00  0.00     0.031 A 
HETATM   26  C   UNL     1      39.841 -31.623   5.286  1.00  0.00     0.020 A 
HETATM   27  C   UNL     1      40.514 -32.037   6.439  1.00  0.00     0.039 A 
HETATM   28  C   UNL     1      41.897 -32.205   6.384  1.00  0.00     0.020 A 
HETATM   29  C   UNL     1      42.587 -32.019   5.177  1.00  0.00     0.031 A 
BRANCH  27  30
HETATM   30  C   UNL     1      39.719 -32.338   7.660  1.00  0.00     0.293 C 
HETATM   31  O   UNL     1      40.211 -32.417   8.774  1.00  0.00    -0.259 OA
BRANCH  30  32
HETATM   32  O   UNL     1      38.403 -32.431   7.349  1.00  0.00    -0.318 OA
BRANCH  32  33
HETATM   33  C   UNL     1      37.819 -33.739   7.450  1.00  0.00     0.174 C 
HETATM   34  C   UNL     1      37.126 -34.076   6.142  1.00  0.00     0.034 C 
ENDBRANCH  32  33
ENDBRANCH  30  32
ENDBRANCH  27  30
ENDBRANCH   1  24
TORSDOF 7
ENDMDL
MODEL 9
REMARK VINA RESULT:      -7.5      7.713     10.062
REMARK  7 active torsions:
REMARK  status: ('A' for Active; 'I' for Inactive)
REMARK    1  A    between atoms: C_2  and  O_3 
REMARK    2  A    between atoms: O_3  and  C_4 
REMARK    3  A    between atoms: C_4  and  C_5 
REMARK    4  A    between atoms: C_8  and  N_9 
REMARK    5  A    between atoms: C_12  and  N_13 
REMARK    6  A    between atoms: C_17  and  O_18 
REMARK    7  A    between atoms: C_17  and  C_19 
ROOT
HETATM    1  N   UNL     1      41.263 -13.932   1.201  1.00  0.00    -0.251 N 
HETATM    2  C   UNL     1      41.552 -12.617   1.488  1.00  0.00     0.262 C 
HETATM    3  O   UNL     1      42.434 -12.115   2.169  1.00  0.00    -0.270 OA
HETATM    4  C   UNL     1      40.542 -11.762   0.761  1.00  0.00     0.289 C 
HETATM    5  C   UNL     1      40.092 -12.639  -0.379  1.00  0.00     0.146 C 
HETATM    6  C   UNL     1      40.344 -14.012   0.172  1.00  0.00     0.233 C 
HETATM    7  O   UNL     1      39.774 -14.985  -0.295  1.00  0.00    -0.273 OA
ENDROOT
BRANCH   4   8
HETATM    8  N   UNL     1      41.037 -10.365   0.337  1.00  0.00    -0.058 N 
HETATM    9  H   UNL     1      41.807 -10.166   1.000  1.00  0.00     0.281 HD
HETATM   10  C   UNL     1      41.689 -10.296  -1.029  1.00  0.00     0.239 C 
HETATM   11  C   UNL     1      42.121  -8.873  -1.347  1.00  0.00     0.071 C 
HETATM   12  C   UNL     1      40.947  -7.877  -1.256  1.00  0.00     0.088 C 
HETATM   13  C   UNL     1      40.472  -7.939   0.209  1.00  0.00     0.071 C 
HETATM   14  C   UNL     1      39.969  -9.323   0.574  1.00  0.00     0.239 C 
BRANCH  12  15
HETATM   15  O   UNL     1      41.495  -6.574  -1.452  1.00  0.00    -0.385 OA
HETATM   16  H   UNL     1      41.237  -6.235  -2.329  1.00  0.00     0.211 HD
ENDBRANCH  12  15
BRANCH  12  17
HETATM   17  C   UNL     1      39.835  -8.089  -2.292  1.00  0.00    -0.024 A 
HETATM   18  C   UNL     1      38.516  -7.658  -2.052  1.00  0.00     0.011 A 
HETATM   19  C   UNL     1      37.488  -7.898  -2.971  1.00  0.00     0.020 A 
HETATM   20  C   UNL     1      37.768  -8.545  -4.167  1.00  0.00     0.011 A 
HETATM   21 BR   UNL     1      36.380  -8.892  -5.399  1.00  0.00    -0.051 Br
HETATM   22  C   UNL     1      39.070  -8.925  -4.464  1.00  0.00     0.020 A 
HETATM   23  C   UNL     1      40.096  -8.685  -3.541  1.00  0.00     0.011 A 
ENDBRANCH  12  17
ENDBRANCH   4   8
BRANCH   1  24
HETATM   24  C   UNL     1      41.778 -15.057   1.913  1.00  0.00     0.045 A 
HETATM   25  C   UNL     1      42.939 -15.723   1.488  1.00  0.00     0.031 A 
HETATM   26  C   UNL     1      43.519 -16.741   2.260  1.00  0.00     0.020 A 
HETATM   27  C   UNL     1      42.944 -17.131   3.472  1.00  0.00     0.039 A 
HETATM   28  C   UNL     1      41.754 -16.526   3.875  1.00  0.00     0.020 A 
HETATM   29  C   UNL     1      41.182 -15.504   3.104  1.00  0.00     0.031 A 
BRANCH  27  30
HETATM   30  C   UNL     1      43.655 -18.134   4.311  1.00  0.00     0.293 C 
HETATM   31  O   UNL     1      43.517 -18.211   5.520  1.00  0.00    -0.259 OA
BRANCH  30  32
HETATM   32  O   UNL     1      44.392 -18.958   3.527  1.00  0.00    -0.318 OA
BRANCH  32  33
HETATM   33  C   UNL     1      43.856 -20.272   3.306  1.00  0.00     0.174 C 
HETATM   34  C   UNL     1      43.434 -20.400   1.854  1.00  0.00     0.034 C 
ENDBRANCH  32  33
ENDBRANCH  30  32
ENDBRANCH  27  30
ENDBRANCH   1  24
TORSDOF 7
ENDMDL
MODEL 10
REMARK VINA RESULT:      -7.5      6.250     11.234
REMARK  7 active torsions:
REMARK  status: ('A' for Active; 'I' for Inactive)
REMARK    1  A    between atoms: C_2  and  O_3 
REMARK    2  A    between atoms: O_3  and  C_4 
REMARK    3  A    between atoms: C_4  and  C_5 
REMARK    4  A    between atoms: C_8  and  N_9 
REMARK    5  A    between atoms: C_12  and  N_13 
REMARK    6  A    between atoms: C_17  and  O_18 
REMARK    7  A    between atoms: C_17  and  C_19 
ROOT
HETATM    1  N   UNL     1      39.364 -12.514  -0.914  1.00  0.00    -0.251 N 
HETATM    2  C   UNL     1      40.082 -12.200   0.218  1.00  0.00     0.262 C 
HETATM    3  O   UNL     1      40.107 -11.189   0.903  1.00  0.00    -0.270 OA
HETATM    4  C   UNL     1      40.926 -13.404   0.567  1.00  0.00     0.289 C 
HETATM    5  C   UNL     1      40.183 -14.551  -0.067  1.00  0.00     0.146 C 
HETATM    6  C   UNL     1      39.454 -13.865  -1.186  1.00  0.00     0.233 C 
HETATM    7  O   UNL     1      39.042 -14.501  -2.143  1.00  0.00    -0.273 OA
ENDROOT
BRANCH   4   8
HETATM    8  N   UNL     1      41.231 -13.588   2.066  1.00  0.00    -0.058 N 
HETATM    9  H   UNL     1      40.923 -12.696   2.491  1.00  0.00     0.281 HD
HETATM   10  C   UNL     1      40.405 -14.645   2.770  1.00  0.00     0.239 C 
HETATM   11  C   UNL     1      40.801 -14.751   4.234  1.00  0.00     0.071 C 
HETATM   12  C   UNL     1      42.307 -15.037   4.407  1.00  0.00     0.088 C 
HETATM   13  C   UNL     1      43.027 -13.827   3.780  1.00  0.00     0.071 C 
HETATM   14  C   UNL     1      42.720 -13.700   2.300  1.00  0.00     0.239 C 
BRANCH  12  15
HETATM   15  O   UNL     1      42.578 -14.993   5.807  1.00  0.00    -0.385 OA
HETATM   16  H   UNL     1      41.864 -15.442   6.296  1.00  0.00     0.211 HD
ENDBRANCH  12  15
BRANCH  12  17
HETATM   17  C   UNL     1      42.774 -16.398   3.871  1.00  0.00    -0.024 A 
HETATM   18  C   UNL     1      42.293 -16.911   2.651  1.00  0.00     0.011 A 
HETATM   19  C   UNL     1      42.675 -18.175   2.186  1.00  0.00     0.020 A 
HETATM   20  C   UNL     1      43.575 -18.937   2.919  1.00  0.00     0.011 A 
HETATM   21 BR   UNL     1      44.074 -20.652   2.307  1.00  0.00    -0.051 Br
HETATM   22  C   UNL     1      44.118 -18.434   4.093  1.00  0.00     0.020 A 
HETATM   23  C   UNL     1      43.733 -17.169   4.555  1.00  0.00     0.011 A 
ENDBRANCH  12  17
ENDBRANCH   4   8
BRANCH   1  24
HETATM   24  C   UNL     1      38.682 -11.568  -1.738  1.00  0.00     0.045 A 
HETATM   25  C   UNL     1      39.364 -10.822  -2.713  1.00  0.00     0.031 A 
HETATM   26  C   UNL     1      38.674  -9.993  -3.611  1.00  0.00     0.020 A 
HETATM   27  C   UNL     1      37.283  -9.876  -3.548  1.00  0.00     0.039 A 
HETATM   28  C   UNL     1      36.599 -10.559  -2.542  1.00  0.00     0.020 A 
HETATM   29  C   UNL     1      37.292 -11.391  -1.652  1.00  0.00     0.031 A 
BRANCH  27  30
HETATM   30  C   UNL     1      36.585  -9.076  -4.590  1.00  0.00     0.293 C 
HETATM   31  O   UNL     1      37.119  -8.165  -5.200  1.00  0.00    -0.259 OA
BRANCH  30  32
HETATM   32  O   UNL     1      35.335  -9.559  -4.790  1.00  0.00    -0.318 OA
BRANCH  32  33
HETATM   33  C   UNL     1      34.929  -9.724  -6.157  1.00  0.00     0.174 C 
HETATM   34  C   UNL     1      34.017 -10.933  -6.263  1.00  0.00     0.034 C 
ENDBRANCH  32  33
ENDBRANCH  30  32
ENDBRANCH  27  30
ENDBRANCH   1  24
TORSDOF 7
ENDMDL
