MODEL 1
REMARK VINA RESULT:      -8.4      0.000      0.000
REMARK  5 active torsions:
REMARK  status: ('A' for Active; 'I' for Inactive)
REMARK    1  A    between atoms: C_3  and  O_4 
REMARK    2  A    between atoms: O_4  and  C_5 
REMARK    3  A    between atoms: C_14  and  N_15 
REMARK       I    between atoms: N_15  and  C_16 
REMARK    4  A    between atoms: C_16  and  C_17 
REMARK    5  A    between atoms: C_17  and  C_18 
ROOT
HETATM    1  C   UNL     1      42.199 -15.969   4.055  1.00  0.00     0.076 A 
HETATM    2  C   UNL     1      43.143 -16.745   4.736  1.00  0.00     0.039 A 
HETATM    3  C   UNL     1      43.617 -17.926   4.161  1.00  0.00     0.025 A 
HETATM    4  C   UNL     1      43.131 -18.346   2.917  1.00  0.00     0.044 A 
HETATM    5  C   UNL     1      43.621 -19.558   2.326  1.00  0.00     0.099 C 
HETATM    6  N   UNL     1      44.016 -20.539   1.848  1.00  0.00    -0.191 NA
HETATM    7  C   UNL     1      42.162 -17.584   2.256  1.00  0.00     0.025 A 
HETATM    8  C   UNL     1      41.691 -16.399   2.829  1.00  0.00     0.039 A 
ENDROOT
BRANCH   1   9
HETATM    9  O   UNL     1      41.680 -14.802   4.570  1.00  0.00    -0.311 OA
BRANCH   9  10
HETATM   10  C   UNL     1      42.537 -13.731   4.710  1.00  0.00     0.078 A 
HETATM   11  C   UNL     1      42.874 -13.044   3.546  1.00  0.00     0.037 A 
HETATM   12  C   UNL     1      43.739 -11.955   3.614  1.00  0.00     0.005 A 
HETATM   13  C   UNL     1      44.268 -11.561   4.846  1.00  0.00     0.029 A 
HETATM   14  C   UNL     1      43.956 -12.262   6.020  1.00  0.00     0.037 A 
HETATM   15  C   UNL     1      43.102 -13.364   5.938  1.00  0.00     0.066 A 
BRANCH  14  16
HETATM   16  N   UNL     1      44.513 -11.784   7.225  1.00  0.00    -0.327 N 
HETATM   17  C   UNL     1      44.029 -10.766   8.030  1.00  0.00     0.227 C 
HETATM   18  O   UNL     1      42.973 -10.155   7.868  1.00  0.00    -0.273 OA
HETATM   19  H   UNL     1      45.375 -12.228   7.516  1.00  0.00     0.169 HD
BRANCH  17  20
HETATM   20  C   UNL     1      44.950 -10.428   9.203  1.00  0.00     0.159 C 
BRANCH  20  21
HETATM   21  C   UNL     1      44.167 -10.015  10.411  1.00  0.00     0.017 A 
HETATM   22  N   UNL     1      43.265 -10.860  11.022  1.00  0.00    -0.369 N 
HETATM   23  H   UNL     1      43.038 -11.794  10.691  1.00  0.00     0.165 HD
HETATM   24  C   UNL     1      42.704 -10.234  12.101  1.00  0.00     0.088 A 
HETATM   25  C   UNL     1      43.256  -8.978  12.199  1.00  0.00     0.019 A 
HETATM   26  C   UNL     1      44.181  -8.839  11.137  1.00  0.00     0.027 A 
ENDBRANCH  20  21
ENDBRANCH  17  20
ENDBRANCH  14  16
ENDBRANCH   9  10
ENDBRANCH   1   9
TORSDOF 5
ENDMDL
MODEL 2
REMARK VINA RESULT:      -7.9      1.234      1.567
REMARK  5 active torsions:
REMARK  status: ('A' for Active; 'I' for Inactive)
REMARK    1  A    between atoms: C_3  and  O_4 
REMARK    2  A    between atoms: O_4  and  C_5 
REMARK    3  A    between atoms: C_14  and  N_15 
REMARK       I    between atoms: N_15  and  C_16 
REMARK    4  A    between atoms: C_16  and  C_17 
REMARK    5  A    between atoms: C_17  and  C_18 
ROOT
HETATM    1  C   UNL     1      43.172 -15.977   3.090  1.00  0.00     0.076 A 
HETATM    2  C   UNL     1      43.615 -16.586   4.268  1.00  0.00     0.039 A 
HETATM    3  C   UNL     1      43.829 -17.967   4.299  1.00  0.00     0.025 A 
HETATM    4  C   UNL     1      43.577 -18.742   3.161  1.00  0.00     0.044 A 
HETATM    5  C   UNL     1      43.800 -20.158   3.193  1.00  0.00     0.099 C 
HETATM    6  N   UNL     1      43.978 -21.305   3.218  1.00  0.00    -0.191 NA
HETATM    7  C   UNL     1      43.102 -18.131   1.995  1.00  0.00     0.025 A 
HETATM    8  C   UNL     1      42.893 -16.750   1.963  1.00  0.00     0.039 A 
ENDROOT
BRANCH   1   9
HETATM    9  O   UNL     1      42.929 -14.625   2.994  1.00  0.00    -0.311 OA
BRANCH   9  10
HETATM   10  C   UNL     1      42.411 -13.989   4.102  1.00  0.00     0.078 A 
HETATM   11  C   UNL     1      41.022 -13.904   4.180  1.00  0.00     0.037 A 
HETATM   12  C   UNL     1      40.431 -13.269   5.269  1.00  0.00     0.005 A 
HETATM   13  C   UNL     1      41.231 -12.719   6.274  1.00  0.00     0.029 A 
HETATM   14  C   UNL     1      42.630 -12.776   6.191  1.00  0.00     0.037 A 
HETATM   15  C   UNL     1      43.213 -13.397   5.085  1.00  0.00     0.066 A 
BRANCH  14  16
HETATM   16  N   UNL     1      43.363 -12.216   7.259  1.00  0.00    -0.327 N 
HETATM   17  C   UNL     1      43.576 -10.872   7.520  1.00  0.00     0.227 C 
HETATM   18  O   UNL     1      43.087  -9.928   6.901  1.00  0.00    -0.273 OA
HETATM   19  H   UNL     1      43.796 -12.880   7.889  1.00  0.00     0.169 HD
BRANCH  17  20
HETATM   20  C   UNL     1      44.521 -10.624   8.697  1.00  0.00     0.159 C 
BRANCH  20  21
HETATM   21  C   UNL     1      43.800  -9.998   9.852  1.00  0.00     0.017 A 
HETATM   22  N   UNL     1      42.427 -10.036   9.965  1.00  0.00    -0.369 N 
HETATM   23  H   UNL     1      41.805 -10.450   9.276  1.00  0.00     0.165 HD
HETATM   24  C   UNL     1      42.041  -9.402  11.114  1.00  0.00     0.088 A 
HETATM   25  C   UNL     1      43.173  -8.961  11.758  1.00  0.00     0.019 A 
HETATM   26  C   UNL     1      44.284  -9.338  10.965  1.00  0.00     0.027 A 
ENDBRANCH  20  21
ENDBRANCH  17  20
ENDBRANCH  14  16
ENDBRANCH   9  10
ENDBRANCH   1   9
TORSDOF 5
ENDMDL
MODEL 3
REMARK VINA RESULT:      -7.9      1.908      2.992
REMARK  5 active torsions:
REMARK  status: ('A' for Active; 'I' for Inactive)
REMARK    1  A    between atoms: C_3  and  O_4 
REMARK    2  A    between atoms: O_4  and  C_5 
REMARK    3  A    between atoms: C_14  and  N_15 
REMARK       I    between atoms: N_15  and  C_16 
REMARK    4  A    between atoms: C_16  and  C_17 
REMARK    5  A    between atoms: C_17  and  C_18 
ROOT
HETATM    1  C   UNL     1      43.184 -14.126   5.759  1.00  0.00     0.076 A 
HETATM    2  C   UNL     1      43.723 -14.974   6.732  1.00  0.00     0.039 A 
HETATM    3  C   UNL     1      44.049 -16.292   6.402  1.00  0.00     0.025 A 
HETATM    4  C   UNL     1      43.813 -16.771   5.109  1.00  0.00     0.044 A 
HETATM    5  C   UNL     1      44.151 -18.123   4.770  1.00  0.00     0.099 C 
HETATM    6  N   UNL     1      44.422 -19.218   4.496  1.00  0.00    -0.191 NA
HETATM    7  C   UNL     1      43.242 -15.929   4.149  1.00  0.00     0.025 A 
HETATM    8  C   UNL     1      42.921 -14.609   4.477  1.00  0.00     0.039 A 
ENDROOT
BRANCH   1   9
HETATM    9  O   UNL     1      42.829 -12.822   6.019  1.00  0.00    -0.311 OA
BRANCH   9  10
HETATM   10  C   UNL     1      43.764 -12.016   6.634  1.00  0.00     0.078 A 
HETATM   11  C   UNL     1      45.039 -12.000   6.072  1.00  0.00     0.037 A 
HETATM   12  C   UNL     1      46.034 -11.213   6.646  1.00  0.00     0.005 A 
HETATM   13  C   UNL     1      45.751 -10.449   7.782  1.00  0.00     0.029 A 
HETATM   14  C   UNL     1      44.479 -10.480   8.370  1.00  0.00     0.037 A 
HETATM   15  C   UNL     1      43.493 -11.287   7.798  1.00  0.00     0.066 A 
BRANCH  14  16
HETATM   16  N   UNL     1      44.270  -9.661   9.500  1.00  0.00    -0.327 N 
HETATM   17  C   UNL     1      44.125 -10.068  10.817  1.00  0.00     0.227 C 
HETATM   18  O   UNL     1      44.238 -11.219  11.236  1.00  0.00    -0.273 OA
HETATM   19  H   UNL     1      44.198  -8.669   9.316  1.00  0.00     0.169 HD
BRANCH  17  20
HETATM   20  C   UNL     1      43.793  -8.921  11.774  1.00  0.00     0.159 C 
BRANCH  20  21
HETATM   21  C   UNL     1      42.525  -9.189  12.526  1.00  0.00     0.017 A 
HETATM   22  N   UNL     1      41.580 -10.083  12.072  1.00  0.00    -0.369 N 
HETATM   23  H   UNL     1      41.647 -10.595  11.197  1.00  0.00     0.165 HD
HETATM   24  C   UNL     1      40.536 -10.138  12.955  1.00  0.00     0.088 A 
HETATM   25  C   UNL     1      40.813  -9.284  13.996  1.00  0.00     0.019 A 
HETATM   26  C   UNL     1      42.068  -8.685  13.729  1.00  0.00     0.027 A 
ENDBRANCH  20  21
ENDBRANCH  17  20
ENDBRANCH  14  16
ENDBRANCH   9  10
ENDBRANCH   1   9
TORSDOF 5
ENDMDL
MODEL 4
REMARK VINA RESULT:      -7.7      2.577      3.732
REMARK  5 active torsions:
REMARK  status: ('A' for Active; 'I' for Inactive)
REMARK    1  A    between atoms: C_3  and  O_4 
REMARK    2  A    between atoms: O_4  and  C_5 
REMARK    3  A    between atoms: C_14  and  N_15 
REMARK       I    between atoms: N_15  and  C_16 
REMARK    4  A    between atoms: C_16  and  C_17 
REMARK    5  A    between atoms: C_17  and  C_18 
ROOT
HETATM    1  C   UNL     1      42.145 -16.370   2.934  1.00  0.00     0.076 A 
HETATM    2  C   UNL     1      40.747 -16.425   2.933  1.00  0.00     0.039 A 
HETATM    3  C   UNL     1      40.028 -15.793   1.915  1.00  0.00     0.025 A 
HETATM    4  C   UNL     1      40.702 -15.085   0.914  1.00  0.00     0.044 A 
HETATM    5  C   UNL     1      39.963 -14.439  -0.132  1.00  0.00     0.099 C 
HETATM    6  N   UNL     1      39.365 -13.914  -0.977  1.00  0.00    -0.191 NA
HETATM    7  C   UNL     1      42.098 -15.005   0.939  1.00  0.00     0.025 A 
HETATM    8  C   UNL     1      42.819 -15.642   1.954  1.00  0.00     0.039 A 
ENDROOT
BRANCH   1   9
HETATM    9  O   UNL     1      42.914 -16.959   3.913  1.00  0.00    -0.311 OA
BRANCH   9  10
HETATM   10  C   UNL     1      42.970 -16.337   5.142  1.00  0.00     0.078 A 
HETATM   11  C   UNL     1      43.115 -17.164   6.254  1.00  0.00     0.037 A 
HETATM   12  C   UNL     1      43.173 -16.603   7.527  1.00  0.00     0.005 A 
HETATM   13  C   UNL     1      43.080 -15.217   7.683  1.00  0.00     0.029 A 
HETATM   14  C   UNL     1      42.906 -14.379   6.572  1.00  0.00     0.037 A 
HETATM   15  C   UNL     1      42.830 -14.953   5.302  1.00  0.00     0.066 A 
BRANCH  14  16
HETATM   16  N   UNL     1      42.844 -12.990   6.815  1.00  0.00    -0.327 N 
HETATM   17  C   UNL     1      43.907 -12.107   6.922  1.00  0.00     0.227 C 
HETATM   18  O   UNL     1      45.093 -12.376   6.740  1.00  0.00    -0.273 OA
HETATM   19  H   UNL     1      41.916 -12.608   6.945  1.00  0.00     0.169 HD
BRANCH  17  20
HETATM   20  C   UNL     1      43.482 -10.689   7.309  1.00  0.00     0.159 C 
BRANCH  20  21
HETATM   21  C   UNL     1      43.966 -10.330   8.680  1.00  0.00     0.017 A 
HETATM   22  N   UNL     1      43.354 -10.806   9.820  1.00  0.00    -0.369 N 
HETATM   23  H   UNL     1      42.527 -11.396   9.824  1.00  0.00     0.165 HD
HETATM   24  C   UNL     1      44.005 -10.331  10.926  1.00  0.00     0.088 A 
HETATM   25  C   UNL     1      45.055  -9.551  10.499  1.00  0.00     0.019 A 
HETATM   26  C   UNL     1      45.033  -9.551   9.084  1.00  0.00     0.027 A 
ENDBRANCH  20  21
ENDBRANCH  17  20
ENDBRANCH  14  16
ENDBRANCH   9  10
ENDBRANCH   1   9
TORSDOF 5
ENDMDL
MODEL 5
REMARK VINA RESULT:      -7.7      4.656      7.877
REMARK  5 active torsions:
REMARK  status: ('A' for Active; 'I' for Inactive)
REMARK    1  A    between atoms: C_3  and  O_4 
REMARK    2  A    between atoms: O_4  and  C_5 
REMARK    3  A    between atoms: C_14  and  N_15 
REMARK       I    between atoms: N_15  and  C_16 
REMARK    4  A    between atoms: C_16  and  C_17 
REMARK    5  A    between atoms: C_17  and  C_18 
ROOT
HETATM    1  C   UNL     1      43.235 -15.994   4.046  1.00  0.00     0.076 A 
HETATM    2  C   UNL     1      43.022 -16.226   2.684  1.00  0.00     0.039 A 
HETATM    3  C   UNL     1      43.180 -17.514   2.165  1.00  0.00     0.025 A 
HETATM    4  C   UNL     1      43.574 -18.564   3.002  1.00  0.00     0.044 A 
HETATM    5  C   UNL     1      43.733 -19.887   2.470  1.00  0.00     0.099 C 
HETATM    6  N   UNL     1      43.863 -20.956   2.039  1.00  0.00    -0.191 NA
HETATM    7  C   UNL     1      43.819 -18.319   4.358  1.00  0.00     0.025 A 
HETATM    8  C   UNL     1      43.656 -17.032   4.878  1.00  0.00     0.039 A 
ENDROOT
BRANCH   1   9
HETATM    9  O   UNL     1      43.110 -14.748   4.620  1.00  0.00    -0.311 OA
BRANCH   9  10
HETATM   10  C   UNL     1      41.902 -14.099   4.479  1.00  0.00     0.078 A 
HETATM   11  C   UNL     1      41.305 -13.630   5.647  1.00  0.00     0.037 A 
HETATM   12  C   UNL     1      40.081 -12.970   5.579  1.00  0.00     0.005 A 
HETATM   13  C   UNL     1      39.456 -12.786   4.342  1.00  0.00     0.029 A 
HETATM   14  C   UNL     1      40.035 -13.279   3.164  1.00  0.00     0.037 A 
HETATM   15  C   UNL     1      41.254 -13.956   3.246  1.00  0.00     0.066 A 
BRANCH  14  16
HETATM   16  N   UNL     1      39.351 -13.031   1.955  1.00  0.00    -0.327 N 
HETATM   17  C   UNL     1      39.410 -11.888   1.175  1.00  0.00     0.227 C 
HETATM   18  O   UNL     1      40.141 -10.917   1.365  1.00  0.00    -0.273 OA
HETATM   19  H   UNL     1      38.733 -13.769   1.641  1.00  0.00     0.169 HD
BRANCH  17  20
HETATM   20  C   UNL     1      38.444 -11.911  -0.012  1.00  0.00     0.159 C 
BRANCH  20  21
HETATM   21  C   UNL     1      38.911 -12.854  -1.078  1.00  0.00     0.017 A 
HETATM   22  N   UNL     1      38.065 -13.765  -1.671  1.00  0.00    -0.369 N 
HETATM   23  H   UNL     1      37.089 -13.893  -1.418  1.00  0.00     0.165 HD
HETATM   24  C   UNL     1      38.749 -14.486  -2.612  1.00  0.00     0.088 A 
HETATM   25  C   UNL     1      40.046 -14.029  -2.638  1.00  0.00     0.019 A 
HETATM   26  C   UNL     1      40.150 -12.998  -1.673  1.00  0.00     0.027 A 
ENDBRANCH  20  21
ENDBRANCH  17  20
ENDBRANCH  14  16
ENDBRANCH   9  10
ENDBRANCH   1   9
TORSDOF 5
ENDMDL
MODEL 6
REMARK VINA RESULT:      -7.4      1.988      2.480
REMARK  5 active torsions:
REMARK  status: ('A' for Active; 'I' for Inactive)
REMARK    1  A    between atoms: C_3  and  O_4 
REMARK    2  A    between atoms: O_4  and  C_5 
REMARK    3  A    between atoms: C_14  and  N_15 
REMARK       I    between atoms: N_15  and  C_16 
REMARK    4  A    between atoms: C_16  and  C_17 
REMARK    5  A    between atoms: C_17  and  C_18 
ROOT
HETATM    1  C   UNL     1      43.185 -14.923   3.104  1.00  0.00     0.076 A 
HETATM    2  C   UNL     1      43.139 -15.826   4.170  1.00  0.00     0.039 A 
HETATM    3  C   UNL     1      43.140 -17.200   3.918  1.00  0.00     0.025 A 
HETATM    4  C   UNL     1      43.162 -17.672   2.601  1.00  0.00     0.044 A 
HETATM    5  C   UNL     1      43.166 -19.083   2.343  1.00  0.00     0.099 C 
HETATM    6  N   UNL     1      43.167 -20.225   2.134  1.00  0.00    -0.191 NA
HETATM    7  C   UNL     1      43.173 -16.764   1.537  1.00  0.00     0.025 A 
HETATM    8  C   UNL     1      43.177 -15.389   1.789  1.00  0.00     0.039 A 
ENDROOT
BRANCH   1   9
HETATM    9  O   UNL     1      43.173 -13.557   3.280  1.00  0.00    -0.311 OA
BRANCH   9  10
HETATM   10  C   UNL     1      42.161 -13.021   4.047  1.00  0.00     0.078 A 
HETATM   11  C   UNL     1      40.858 -13.243   3.604  1.00  0.00     0.037 A 
HETATM   12  C   UNL     1      39.787 -12.724   4.327  1.00  0.00     0.005 A 
HETATM   13  C   UNL     1      40.023 -11.982   5.487  1.00  0.00     0.029 A 
HETATM   14  C   UNL     1      41.331 -11.731   5.926  1.00  0.00     0.037 A 
HETATM   15  C   UNL     1      42.399 -12.238   5.183  1.00  0.00     0.066 A 
BRANCH  14  16
HETATM   16  N   UNL     1      41.481 -10.992   7.119  1.00  0.00    -0.327 N 
HETATM   17  C   UNL     1      41.770  -9.643   7.242  1.00  0.00     0.227 C 
HETATM   18  O   UNL     1      41.864  -8.835   6.319  1.00  0.00    -0.273 OA
HETATM   19  H   UNL     1      41.385 -11.521   7.977  1.00  0.00     0.169 HD
BRANCH  17  20
HETATM   20  C   UNL     1      41.979  -9.195   8.690  1.00  0.00     0.159 C 
BRANCH  20  21
HETATM   21  C   UNL     1      43.415  -9.327   9.099  1.00  0.00     0.017 A 
HETATM   22  N   UNL     1      44.450  -9.022   8.243  1.00  0.00    -0.369 N 
HETATM   23  H   UNL     1      44.330  -8.725   7.279  1.00  0.00     0.165 HD
HETATM   24  C   UNL     1      45.647  -9.222   8.876  1.00  0.00     0.088 A 
HETATM   25  C   UNL     1      45.384  -9.645  10.158  1.00  0.00     0.019 A 
HETATM   26  C   UNL     1      43.977  -9.710  10.302  1.00  0.00     0.027 A 
ENDBRANCH  20  21
ENDBRANCH  17  20
ENDBRANCH  14  16
ENDBRANCH   9  10
ENDBRANCH   1   9
TORSDOF 5
ENDMDL
MODEL 7
REMARK VINA RESULT:      -7.4      2.243      9.059
REMARK  5 active torsions:
REMARK  status: ('A' for Active; 'I' for Inactive)
REMARK    1  A    between atoms: C_3  and  O_4 
REMARK    2  A    between atoms: O_4  and  C_5 
REMARK    3  A    between atoms: C_14  and  N_15 
REMARK       I    between atoms: N_15  and  C_16 
REMARK    4  A    between atoms: C_16  and  C_17 
REMARK    5  A    between atoms: C_17  and  C_18 
ROOT
HETATM    1  C   UNL     1      44.789 -10.143   8.219  1.00  0.00     0.076 A 
HETATM    2  C   UNL     1      45.378 -10.556   9.418  1.00  0.00     0.039 A 
HETATM    3  C   UNL     1      44.941 -10.017  10.630  1.00  0.00     0.025 A 
HETATM    4  C   UNL     1      43.932  -9.047  10.644  1.00  0.00     0.044 A 
HETATM    5  C   UNL     1      43.480  -8.496  11.889  1.00  0.00     0.099 C 
HETATM    6  N   UNL     1      43.116  -8.049  12.896  1.00  0.00    -0.191 NA
HETATM    7  C   UNL     1      43.369  -8.613   9.439  1.00  0.00     0.025 A 
HETATM    8  C   UNL     1      43.803  -9.156   8.227  1.00  0.00     0.039 A 
ENDROOT
BRANCH   1   9
HETATM    9  O   UNL     1      45.180 -10.623   6.990  1.00  0.00    -0.311 OA
BRANCH   9  10
HETATM   10  C   UNL     1      44.372 -11.561   6.384  1.00  0.00     0.078 A 
HETATM   11  C   UNL     1      43.727 -11.167   5.213  1.00  0.00     0.037 A 
HETATM   12  C   UNL     1      42.890 -12.062   4.552  1.00  0.00     0.005 A 
HETATM   13  C   UNL     1      42.697 -13.347   5.068  1.00  0.00     0.029 A 
HETATM   14  C   UNL     1      43.320 -13.744   6.260  1.00  0.00     0.037 A 
HETATM   15  C   UNL     1      44.142 -12.832   6.925  1.00  0.00     0.066 A 
BRANCH  14  16
HETATM   16  N   UNL     1      43.090 -15.065   6.699  1.00  0.00    -0.327 N 
HETATM   17  C   UNL     1      43.948 -16.148   6.591  1.00  0.00     0.227 C 
HETATM   18  O   UNL     1      45.100 -16.119   6.162  1.00  0.00    -0.273 OA
HETATM   19  H   UNL     1      42.186 -15.236   7.121  1.00  0.00     0.169 HD
BRANCH  17  20
HETATM   20  C   UNL     1      43.328 -17.463   7.067  1.00  0.00     0.159 C 
BRANCH  20  21
HETATM   21  C   UNL     1      43.601 -18.576   6.102  1.00  0.00     0.017 A 
HETATM   22  N   UNL     1      43.890 -18.339   4.775  1.00  0.00    -0.369 N 
HETATM   23  H   UNL     1      43.906 -17.418   4.346  1.00  0.00     0.165 HD
HETATM   24  C   UNL     1      44.105 -19.526   4.130  1.00  0.00     0.088 A 
HETATM   25  C   UNL     1      43.969 -20.540   5.049  1.00  0.00     0.019 A 
HETATM   26  C   UNL     1      43.654 -19.943   6.294  1.00  0.00     0.027 A 
ENDBRANCH  20  21
ENDBRANCH  17  20
ENDBRANCH  14  16
ENDBRANCH   9  10
ENDBRANCH   1   9
TORSDOF 5
ENDMDL
MODEL 8
REMARK VINA RESULT:      -7.4      1.851      2.268
REMARK  5 active torsions:
REMARK  status: ('A' for Active; 'I' for Inactive)
REMARK    1  A    between atoms: C_3  and  O_4 
REMARK    2  A    between atoms: O_4  and  C_5 
REMARK    3  A    between atoms: C_14  and  N_15 
REMARK       I    between atoms: N_15  and  C_16 
REMARK    4  A    between atoms: C_16  and  C_17 
REMARK    5  A    between atoms: C_17  and  C_18 
ROOT
HETATM    1  C   UNL     1      41.563 -15.075   3.079  1.00  0.00     0.076 A 
HETATM    2  C   UNL     1      42.508 -15.466   2.125  1.00  0.00     0.039 A 
HETATM    3  C   UNL     1      43.245 -16.637   2.315  1.00  0.00     0.025 A 
HETATM    4  C   UNL     1      43.057 -17.406   3.470  1.00  0.00     0.044 A 
HETATM    5  C   UNL     1      43.811 -18.611   3.663  1.00  0.00     0.099 C 
HETATM    6  N   UNL     1      44.423 -19.584   3.820  1.00  0.00    -0.191 NA
HETATM    7  C   UNL     1      42.134 -16.993   4.437  1.00  0.00     0.025 A 
HETATM    8  C   UNL     1      41.393 -15.823   4.244  1.00  0.00     0.039 A 
ENDROOT
BRANCH   1   9
HETATM    9  O   UNL     1      40.813 -13.927   2.960  1.00  0.00    -0.311 OA
BRANCH   9  10
HETATM   10  C   UNL     1      40.824 -13.045   4.020  1.00  0.00     0.078 A 
HETATM   11  C   UNL     1      39.584 -12.625   4.496  1.00  0.00     0.037 A 
HETATM   12  C   UNL     1      39.522 -11.729   5.560  1.00  0.00     0.005 A 
HETATM   13  C   UNL     1      40.701 -11.253   6.141  1.00  0.00     0.029 A 
HETATM   14  C   UNL     1      41.954 -11.649   5.651  1.00  0.00     0.037 A 
HETATM   15  C   UNL     1      42.005 -12.532   4.571  1.00  0.00     0.066 A 
BRANCH  14  16
HETATM   16  N   UNL     1      43.094 -11.139   6.308  1.00  0.00    -0.327 N 
HETATM   17  C   UNL     1      43.925 -11.810   7.191  1.00  0.00     0.227 C 
HETATM   18  O   UNL     1      43.853 -13.001   7.490  1.00  0.00    -0.273 OA
HETATM   19  H   UNL     1      43.309 -10.168   6.124  1.00  0.00     0.169 HD
BRANCH  17  20
HETATM   20  C   UNL     1      45.001 -10.917   7.810  1.00  0.00     0.159 C 
BRANCH  20  21
HETATM   21  C   UNL     1      44.566 -10.379   9.139  1.00  0.00     0.017 A 
HETATM   22  N   UNL     1      43.422 -10.820   9.768  1.00  0.00    -0.369 N 
HETATM   23  H   UNL     1      42.779 -11.503   9.377  1.00  0.00     0.165 HD
HETATM   24  C   UNL     1      43.273 -10.172  10.964  1.00  0.00     0.088 A 
HETATM   25  C   UNL     1      44.337  -9.313  11.118  1.00  0.00     0.019 A 
HETATM   26  C   UNL     1      45.155  -9.444   9.970  1.00  0.00     0.027 A 
ENDBRANCH  20  21
ENDBRANCH  17  20
ENDBRANCH  14  16
ENDBRANCH   9  10
ENDBRANCH   1   9
TORSDOF 5
ENDMDL
MODEL 9
REMARK VINA RESULT:      -7.3      2.156      8.919
REMARK  5 active torsions:
REMARK  status: ('A' for Active; 'I' for Inactive)
REMARK    1  A    between atoms: C_3  and  O_4 
REMARK    2  A    between atoms: O_4  and  C_5 
REMARK    3  A    between atoms: C_14  and  N_15 
REMARK       I    between atoms: N_15  and  C_16 
REMARK    4  A    between atoms: C_16  and  C_17 
REMARK    5  A    between atoms: C_17  and  C_18 
ROOT
HETATM    1  C   UNL     1      42.992  -8.993   9.841  1.00  0.00     0.076 A 
HETATM    2  C   UNL     1      41.619  -8.846   9.624  1.00  0.00     0.039 A 
HETATM    3  C   UNL     1      40.711  -9.277  10.596  1.00  0.00     0.025 A 
HETATM    4  C   UNL     1      41.175  -9.877  11.772  1.00  0.00     0.044 A 
HETATM    5  C   UNL     1      40.243 -10.316  12.770  1.00  0.00     0.099 C 
HETATM    6  N   UNL     1      39.489 -10.674  13.577  1.00  0.00    -0.191 NA
HETATM    7  C   UNL     1      42.549 -10.052  11.969  1.00  0.00     0.025 A 
HETATM    8  C   UNL     1      43.456  -9.616  11.000  1.00  0.00     0.039 A 
ENDROOT
BRANCH   1   9
HETATM    9  O   UNL     1      43.940  -8.602   8.922  1.00  0.00    -0.311 OA
BRANCH   9  10
HETATM   10  C   UNL     1      44.487  -9.577   8.115  1.00  0.00     0.078 A 
HETATM   11  C   UNL     1      45.874  -9.705   8.145  1.00  0.00     0.037 A 
HETATM   12  C   UNL     1      46.494 -10.666   7.351  1.00  0.00     0.005 A 
HETATM   13  C   UNL     1      45.725 -11.492   6.526  1.00  0.00     0.029 A 
HETATM   14  C   UNL     1      44.331 -11.351   6.469  1.00  0.00     0.037 A 
HETATM   15  C   UNL     1      43.720 -10.372   7.255  1.00  0.00     0.066 A 
BRANCH  14  16
HETATM   16  N   UNL     1      43.627 -12.240   5.628  1.00  0.00    -0.327 N 
HETATM   17  C   UNL     1      43.071 -13.461   5.972  1.00  0.00     0.227 C 
HETATM   18  O   UNL     1      43.028 -13.944   7.103  1.00  0.00    -0.273 OA
HETATM   19  H   UNL     1      43.541 -11.953   4.661  1.00  0.00     0.169 HD
BRANCH  17  20
HETATM   20  C   UNL     1      42.482 -14.218   4.781  1.00  0.00     0.159 C 
BRANCH  20  21
HETATM   21  C   UNL     1      43.120 -15.564   4.619  1.00  0.00     0.017 A 
HETATM   22  N   UNL     1      43.828 -16.164   5.638  1.00  0.00    -0.369 N 
HETATM   23  H   UNL     1      44.001 -15.741   6.545  1.00  0.00     0.165 HD
HETATM   24  C   UNL     1      44.289 -17.384   5.222  1.00  0.00     0.088 A 
HETATM   25  C   UNL     1      43.864 -17.582   3.929  1.00  0.00     0.019 A 
HETATM   26  C   UNL     1      43.124 -16.437   3.548  1.00  0.00     0.027 A 
ENDBRANCH  20  21
ENDBRANCH  17  20
ENDBRANCH  14  16
ENDBRANCH   9  10
ENDBRANCH   1   9
TORSDOF 5
ENDMDL
MODEL 10
REMARK VINA RESULT:      -7.2      2.181      9.475
REMARK  5 active torsions:
REMARK  status: ('A' for Active; 'I' for Inactive)
REMARK    1  A    between atoms: C_3  and  O_4 
REMARK    2  A    between atoms: O_4  and  C_5 
REMARK    3  A    between atoms: C_14  and  N_15 
REMARK       I    between atoms: N_15  and  C_16 
REMARK    4  A    between atoms: C_16  and  C_17 
REMARK    5  A    between atoms: C_17  and  C_18 
ROOT
HETATM    1  C   UNL     1      44.050  -9.579  10.284  1.00  0.00     0.076 A 
HETATM    2  C   UNL     1      43.692  -8.278  10.654  1.00  0.00     0.039 A 
HETATM    3  C   UNL     1      43.032  -8.057  11.865  1.00  0.00     0.025 A 
HETATM    4  C   UNL     1      42.706  -9.136  12.695  1.00  0.00     0.044 A 
HETATM    5  C   UNL     1      42.031  -8.907  13.940  1.00  0.00     0.099 C 
HETATM    6  N   UNL     1      41.483  -8.723  14.946  1.00  0.00    -0.191 NA
HETATM    7  C   UNL     1      43.037 -10.438  12.304  1.00  0.00     0.025 A 
HETATM    8  C   UNL     1      43.702 -10.659  11.095  1.00  0.00     0.039 A 
ENDROOT
BRANCH   1   9
HETATM    9  O   UNL     1      44.690  -9.869   9.100  1.00  0.00    -0.311 OA
BRANCH   9  10
HETATM   10  C   UNL     1      43.967 -10.527   8.128  1.00  0.00     0.078 A 
HETATM   11  C   UNL     1      42.849  -9.865   7.625  1.00  0.00     0.037 A 
HETATM   12  C   UNL     1      42.069 -10.475   6.646  1.00  0.00     0.005 A 
HETATM   13  C   UNL     1      42.408 -11.747   6.177  1.00  0.00     0.029 A 
HETATM   14  C   UNL     1      43.515 -12.433   6.696  1.00  0.00     0.037 A 
HETATM   15  C   UNL     1      44.279 -11.821   7.692  1.00  0.00     0.066 A 
BRANCH  14  16
HETATM   16  N   UNL     1      43.801 -13.703   6.152  1.00  0.00    -0.327 N 
HETATM   17  C   UNL     1      43.158 -14.900   6.427  1.00  0.00     0.227 C 
HETATM   18  O   UNL     1      42.165 -15.042   7.138  1.00  0.00    -0.273 OA
HETATM   19  H   UNL     1      44.578 -13.738   5.505  1.00  0.00     0.169 HD
BRANCH  17  20
HETATM   20  C   UNL     1      43.806 -16.108   5.747  1.00  0.00     0.159 C 
BRANCH  20  21
HETATM   21  C   UNL     1      43.070 -16.493   4.501  1.00  0.00     0.017 A 
HETATM   22  N   UNL     1      41.830 -15.977   4.195  1.00  0.00    -0.369 N 
HETATM   23  H   UNL     1      41.310 -15.337   4.790  1.00  0.00     0.165 HD
HETATM   24  C   UNL     1      41.398 -16.488   3.002  1.00  0.00     0.088 A 
HETATM   25  C   UNL     1      42.374 -17.332   2.523  1.00  0.00     0.019 A 
HETATM   26  C   UNL     1      43.430 -17.334   3.465  1.00  0.00     0.027 A 
ENDBRANCH  20  21
ENDBRANCH  17  20
ENDBRANCH  14  16
ENDBRANCH   9  10
ENDBRANCH   1   9
TORSDOF 5
ENDMDL
