MODEL 1
REMARK VINA RESULT:      -8.6      0.000      0.000
REMARK  3 active torsions:
REMARK  status: ('A' for Active; 'I' for Inactive)
REMARK    1  A    between atoms: C_2  and  N_3 
REMARK       I    between atoms: N_3  and  C_4 
REMARK    2  A    between atoms: C_4  and  C_5 
REMARK    3  A    between atoms: C_5  and  C_6 
ROOT
HETATM    1  C   UNL     1      41.787 -14.373   5.993  1.00  0.00     0.286 C 
HETATM    2  N   UNL     1      42.680 -14.330   4.756  1.00  0.00    -0.056 N 
HETATM    3  H   UNL     1      43.089 -13.387   4.718  1.00  0.00     0.278 HD
HETATM    4  H   UNL     1      43.503 -14.944   4.933  1.00  0.00     0.278 HD
HETATM    5  C   UNL     1      42.053 -14.620   3.424  1.00  0.00     0.209 C 
HETATM    6  C   UNL     1      40.755 -13.794   3.279  1.00  0.00     0.115 C 
HETATM    7  N   UNL     1      39.886 -13.903   4.447  1.00  0.00    -0.353 N 
HETATM    8  C   UNL     1      40.352 -13.886   5.737  1.00  0.00     0.249 C 
HETATM    9  O   UNL     1      39.598 -13.586   6.657  1.00  0.00    -0.271 OA
HETATM   10  C   UNL     1      41.851 -16.123   3.233  1.00  0.00     0.035 C 
HETATM   11  C   UNL     1      41.135 -16.418   1.918  1.00  0.00     0.002 C 
HETATM   12  C   UNL     1      39.808 -15.670   1.835  1.00  0.00     0.002 C 
HETATM   13  C   UNL     1      40.001 -14.163   1.996  1.00  0.00     0.027 C 
HETATM   14  H   UNL     1      38.942 -13.525   4.375  1.00  0.00     0.163 HD
ENDROOT
BRANCH   1  15
HETATM   15  C   UNL     1      41.706 -15.756   6.663  1.00  0.00     0.146 C 
BRANCH  15  16
HETATM   16  C   UNL     1      42.894 -16.077   7.523  1.00  0.00     0.224 C 
HETATM   17  N   UNL     1      43.746 -17.097   7.245  1.00  0.00    -0.327 N 
HETATM   18  H   UNL     1      44.469 -17.171   7.958  1.00  0.00     0.169 HD
HETATM   19  O   UNL     1      43.135 -15.355   8.501  1.00  0.00    -0.273 OA
BRANCH  17  20
HETATM   20  C   UNL     1      43.856 -18.037   6.201  1.00  0.00     0.034 A 
HETATM   21  C   UNL     1      44.288 -17.776   4.898  1.00  0.00     0.032 A 
HETATM   22  C   UNL     1      44.371 -18.809   3.955  1.00  0.00     0.044 A 
HETATM   23  C   UNL     1      44.024 -20.104   4.308  1.00  0.00     0.116 A 
HETATM   24  C   UNL     1      43.593 -20.390   5.592  1.00  0.00     0.044 A 
HETATM   25  F   UNL     1      44.110 -21.084   3.402  1.00  0.00    -0.206 F 
HETATM   26  C   UNL     1      43.510 -19.360   6.534  1.00  0.00     0.032 A 
ENDBRANCH  17  20
ENDBRANCH  15  16
ENDBRANCH   1  15
TORSDOF 3
ENDMDL
MODEL 2
REMARK VINA RESULT:      -8.4      1.656      2.051
REMARK  3 active torsions:
REMARK  status: ('A' for Active; 'I' for Inactive)
REMARK    1  A    between atoms: C_2  and  N_3 
REMARK       I    between atoms: N_3  and  C_4 
REMARK    2  A    between atoms: C_4  and  C_5 
REMARK    3  A    between atoms: C_5  and  C_6 
ROOT
HETATM    1  C   UNL     1      41.853 -15.467   6.927  1.00  0.00     0.286 C 
HETATM    2  N   UNL     1      42.775 -14.341   6.466  1.00  0.00    -0.056 N 
HETATM    3  H   UNL     1      42.778 -13.636   7.215  1.00  0.00     0.278 HD
HETATM    4  H   UNL     1      43.752 -14.705   6.472  1.00  0.00     0.278 HD
HETATM    5  C   UNL     1      42.452 -13.651   5.174  1.00  0.00     0.209 C 
HETATM    6  C   UNL     1      40.955 -13.269   5.159  1.00  0.00     0.115 C 
HETATM    7  N   UNL     1      40.088 -14.380   5.539  1.00  0.00    -0.353 N 
HETATM    8  C   UNL     1      40.376 -15.244   6.565  1.00  0.00     0.249 C 
HETATM    9  O   UNL     1      39.476 -15.888   7.095  1.00  0.00    -0.271 OA
HETATM   10  C   UNL     1      42.883 -14.500   3.980  1.00  0.00     0.035 C 
HETATM   11  C   UNL     1      42.480 -13.841   2.663  1.00  0.00     0.002 C 
HETATM   12  C   UNL     1      40.980 -13.562   2.626  1.00  0.00     0.002 C 
HETATM   13  C   UNL     1      40.542 -12.689   3.800  1.00  0.00     0.027 C 
HETATM   14  H   UNL     1      39.083 -14.269   5.402  1.00  0.00     0.163 HD
ENDROOT
BRANCH   1  15
HETATM   15  C   UNL     1      42.260 -16.862   6.420  1.00  0.00     0.146 C 
BRANCH  15  16
HETATM   16  C   UNL     1      43.736 -17.126   6.511  1.00  0.00     0.224 C 
HETATM   17  N   UNL     1      44.399 -17.899   5.613  1.00  0.00    -0.327 N 
HETATM   18  H   UNL     1      45.382 -17.980   5.860  1.00  0.00     0.169 HD
HETATM   19  O   UNL     1      44.385 -16.580   7.415  1.00  0.00    -0.273 OA
BRANCH  17  20
HETATM   20  C   UNL     1      44.035 -18.577   4.432  1.00  0.00     0.034 A 
HETATM   21  C   UNL     1      43.634 -17.986   3.231  1.00  0.00     0.032 A 
HETATM   22  C   UNL     1      43.316 -18.777   2.120  1.00  0.00     0.044 A 
HETATM   23  C   UNL     1      43.396 -20.159   2.202  1.00  0.00     0.116 A 
HETATM   24  C   UNL     1      43.790 -20.770   3.381  1.00  0.00     0.044 A 
HETATM   25  F   UNL     1      43.094 -20.906   1.135  1.00  0.00    -0.206 F 
HETATM   26  C   UNL     1      44.108 -19.982   4.490  1.00  0.00     0.032 A 
ENDBRANCH  17  20
ENDBRANCH  15  16
ENDBRANCH   1  15
TORSDOF 3
ENDMDL
MODEL 3
REMARK VINA RESULT:      -7.7      2.325      4.248
REMARK  3 active torsions:
REMARK  status: ('A' for Active; 'I' for Inactive)
REMARK    1  A    between atoms: C_2  and  N_3 
REMARK       I    between atoms: N_3  and  C_4 
REMARK    2  A    between atoms: C_4  and  C_5 
REMARK    3  A    between atoms: C_5  and  C_6 
ROOT
HETATM    1  C   UNL     1      40.507 -14.152   3.633  1.00  0.00     0.286 C 
HETATM    2  N   UNL     1      40.011 -14.010   5.070  1.00  0.00    -0.056 N 
HETATM    3  H   UNL     1      39.629 -13.060   5.158  1.00  0.00     0.278 HD
HETATM    4  H   UNL     1      39.173 -14.620   5.181  1.00  0.00     0.278 HD
HETATM    5  C   UNL     1      40.997 -14.223   6.180  1.00  0.00     0.209 C 
HETATM    6  C   UNL     1      42.281 -13.414   5.886  1.00  0.00     0.115 C 
HETATM    7  N   UNL     1      42.774 -13.616   4.527  1.00  0.00    -0.353 N 
HETATM    8  C   UNL     1      41.954 -13.677   3.429  1.00  0.00     0.249 C 
HETATM    9  O   UNL     1      42.409 -13.453   2.311  1.00  0.00    -0.271 OA
HETATM   10  C   UNL     1      41.248 -15.713   6.408  1.00  0.00     0.035 C 
HETATM   11  C   UNL     1      42.314 -15.933   7.477  1.00  0.00     0.002 C 
HETATM   12  C   UNL     1      43.608 -15.207   7.121  1.00  0.00     0.002 C 
HETATM   13  C   UNL     1      43.375 -13.710   6.919  1.00  0.00     0.027 C 
HETATM   14  H   UNL     1      43.698 -13.252   4.296  1.00  0.00     0.163 HD
ENDROOT
BRANCH   1  15
HETATM   15  C   UNL     1      40.393 -15.579   3.066  1.00  0.00     0.146 C 
BRANCH  15  16
HETATM   16  C   UNL     1      41.142 -15.775   1.779  1.00  0.00     0.224 C 
HETATM   17  N   UNL     1      42.242 -16.565   1.685  1.00  0.00    -0.327 N 
HETATM   18  H   UNL     1      42.623 -16.547   0.742  1.00  0.00     0.169 HD
HETATM   19  O   UNL     1      40.715 -15.230   0.751  1.00  0.00    -0.273 OA
BRANCH  17  20
HETATM   20  C   UNL     1      42.940 -17.400   2.581  1.00  0.00     0.034 A 
HETATM   21  C   UNL     1      43.496 -17.016   3.804  1.00  0.00     0.032 A 
HETATM   22  C   UNL     1      44.151 -17.954   4.614  1.00  0.00     0.044 A 
HETATM   23  C   UNL     1      44.253 -19.276   4.206  1.00  0.00     0.116 A 
HETATM   24  C   UNL     1      43.711 -19.682   2.999  1.00  0.00     0.044 A 
HETATM   25  F   UNL     1      44.877 -20.163   4.988  1.00  0.00    -0.206 F 
HETATM   26  C   UNL     1      43.056 -18.748   2.191  1.00  0.00     0.032 A 
ENDBRANCH  17  20
ENDBRANCH  15  16
ENDBRANCH   1  15
TORSDOF 3
ENDMDL
MODEL 4
REMARK VINA RESULT:      -7.5      2.917      4.725
REMARK  3 active torsions:
REMARK  status: ('A' for Active; 'I' for Inactive)
REMARK    1  A    between atoms: C_2  and  N_3 
REMARK       I    between atoms: N_3  and  C_4 
REMARK    2  A    between atoms: C_4  and  C_5 
REMARK    3  A    between atoms: C_5  and  C_6 
ROOT
HETATM    1  C   UNL     1      41.349 -12.592   3.136  1.00  0.00     0.286 C 
HETATM    2  N   UNL     1      40.949 -12.865   4.584  1.00  0.00    -0.056 N 
HETATM    3  H   UNL     1      40.095 -12.320   4.763  1.00  0.00     0.278 HD
HETATM    4  H   UNL     1      40.622 -13.853   4.645  1.00  0.00     0.278 HD
HETATM    5  C   UNL     1      41.942 -12.546   5.662  1.00  0.00     0.209 C 
HETATM    6  C   UNL     1      42.505 -11.125   5.434  1.00  0.00     0.115 C 
HETATM    7  N   UNL     1      42.943 -10.908   4.059  1.00  0.00    -0.353 N 
HETATM    8  C   UNL     1      42.243 -11.354   2.966  1.00  0.00     0.249 C 
HETATM    9  O   UNL     1      42.419 -10.829   1.870  1.00  0.00    -0.271 OA
HETATM   10  C   UNL     1      43.018 -13.628   5.750  1.00  0.00     0.035 C 
HETATM   11  C   UNL     1      44.078 -13.265   6.786  1.00  0.00     0.002 C 
HETATM   12  C   UNL     1      44.694 -11.902   6.488  1.00  0.00     0.002 C 
HETATM   13  C   UNL     1      43.630 -10.806   6.427  1.00  0.00     0.027 C 
HETATM   14  H   UNL     1      43.473 -10.061   3.855  1.00  0.00     0.163 HD
ENDROOT
BRANCH   1  15
HETATM   15  C   UNL     1      42.043 -13.777   2.441  1.00  0.00     0.146 C 
BRANCH  15  16
HETATM   16  C   UNL     1      41.086 -14.813   1.925  1.00  0.00     0.224 C 
HETATM   17  N   UNL     1      41.248 -16.141   2.160  1.00  0.00    -0.327 N 
HETATM   18  H   UNL     1      40.515 -16.682   1.706  1.00  0.00     0.169 HD
HETATM   19  O   UNL     1      40.083 -14.441   1.299  1.00  0.00    -0.273 OA
BRANCH  17  20
HETATM   20  C   UNL     1      42.173 -16.911   2.894  1.00  0.00     0.034 A 
HETATM   21  C   UNL     1      42.471 -16.769   4.251  1.00  0.00     0.032 A 
HETATM   22  C   UNL     1      43.401 -17.616   4.868  1.00  0.00     0.044 A 
HETATM   23  C   UNL     1      44.037 -18.605   4.133  1.00  0.00     0.116 A 
HETATM   24  C   UNL     1      43.760 -18.766   2.786  1.00  0.00     0.044 A 
HETATM   25  F   UNL     1      44.920 -19.411   4.732  1.00  0.00    -0.206 F 
HETATM   26  C   UNL     1      42.831 -17.923   2.170  1.00  0.00     0.032 A 
ENDBRANCH  17  20
ENDBRANCH  15  16
ENDBRANCH   1  15
TORSDOF 3
ENDMDL
MODEL 5
REMARK VINA RESULT:      -7.4      3.570      6.757
REMARK  3 active torsions:
REMARK  status: ('A' for Active; 'I' for Inactive)
REMARK    1  A    between atoms: C_2  and  N_3 
REMARK       I    between atoms: N_3  and  C_4 
REMARK    2  A    between atoms: C_4  and  C_5 
REMARK    3  A    between atoms: C_5  and  C_6 
ROOT
HETATM    1  C   UNL     1      41.712 -14.071   3.532  1.00  0.00     0.286 C 
HETATM    2  N   UNL     1      40.943 -15.367   3.288  1.00  0.00    -0.056 N 
HETATM    3  H   UNL     1      40.128 -15.349   3.915  1.00  0.00     0.278 HD
HETATM    4  H   UNL     1      40.519 -15.313   2.337  1.00  0.00     0.278 HD
HETATM    5  C   UNL     1      41.665 -16.665   3.496  1.00  0.00     0.209 C 
HETATM    6  C   UNL     1      42.400 -16.629   4.855  1.00  0.00     0.115 C 
HETATM    7  N   UNL     1      43.182 -15.411   5.039  1.00  0.00    -0.353 N 
HETATM    8  C   UNL     1      42.735 -14.166   4.675  1.00  0.00     0.249 C 
HETATM    9  O   UNL     1      43.225 -13.164   5.189  1.00  0.00    -0.271 OA
HETATM   10  C   UNL     1      42.577 -16.978   2.311  1.00  0.00     0.035 C 
HETATM   11  C   UNL     1      43.378 -18.253   2.556  1.00  0.00     0.002 C 
HETATM   12  C   UNL     1      44.176 -18.160   3.853  1.00  0.00     0.002 C 
HETATM   13  C   UNL     1      43.270 -17.877   5.051  1.00  0.00     0.027 C 
HETATM   14  H   UNL     1      43.825 -15.372   5.829  1.00  0.00     0.163 HD
ENDROOT
BRANCH   1  15
HETATM   15  C   UNL     1      42.440 -13.528   2.289  1.00  0.00     0.146 C 
BRANCH  15  16
HETATM   16  C   UNL     1      41.975 -12.162   1.871  1.00  0.00     0.224 C 
HETATM   17  N   UNL     1      41.235 -11.950   0.753  1.00  0.00    -0.327 N 
HETATM   18  H   UNL     1      41.044 -10.959   0.626  1.00  0.00     0.169 HD
HETATM   19  O   UNL     1      42.239 -11.194   2.599  1.00  0.00    -0.273 OA
BRANCH  17  20
HETATM   20  C   UNL     1      40.670 -12.785  -0.232  1.00  0.00     0.034 A 
HETATM   21  C   UNL     1      39.956 -13.964  -0.005  1.00  0.00     0.032 A 
HETATM   22  C   UNL     1      39.427 -14.694  -1.077  1.00  0.00     0.044 A 
HETATM   23  C   UNL     1      39.609 -14.252  -2.379  1.00  0.00     0.116 A 
HETATM   24  C   UNL     1      40.314 -13.087  -2.631  1.00  0.00     0.044 A 
HETATM   25  F   UNL     1      39.098 -14.954  -3.395  1.00  0.00    -0.206 F 
HETATM   26  C   UNL     1      40.841 -12.357  -1.563  1.00  0.00     0.032 A 
ENDBRANCH  17  20
ENDBRANCH  15  16
ENDBRANCH   1  15
TORSDOF 3
ENDMDL
MODEL 6
REMARK VINA RESULT:      -7.3     13.912     15.918
REMARK  3 active torsions:
REMARK  status: ('A' for Active; 'I' for Inactive)
REMARK    1  A    between atoms: C_2  and  N_3 
REMARK       I    between atoms: N_3  and  C_4 
REMARK    2  A    between atoms: C_4  and  C_5 
REMARK    3  A    between atoms: C_5  and  C_6 
ROOT
HETATM    1  C   UNL     1      48.077 -28.932   1.173  1.00  0.00     0.286 C 
HETATM    2  N   UNL     1      48.203 -28.424   2.608  1.00  0.00    -0.056 N 
HETATM    3  H   UNL     1      48.641 -27.495   2.555  1.00  0.00     0.278 HD
HETATM    4  H   UNL     1      47.243 -28.220   2.960  1.00  0.00     0.278 HD
HETATM    5  C   UNL     1      48.983 -29.254   3.583  1.00  0.00     0.209 C 
HETATM    6  C   UNL     1      50.334 -29.655   2.948  1.00  0.00     0.115 C 
HETATM    7  N   UNL     1      50.183 -30.200   1.602  1.00  0.00    -0.353 N 
HETATM    8  C   UNL     1      49.324 -29.676   0.669  1.00  0.00     0.249 C 
HETATM    9  O   UNL     1      49.508 -29.895  -0.524  1.00  0.00    -0.271 OA
HETATM   10  C   UNL     1      48.156 -30.443   4.071  1.00  0.00     0.035 C 
HETATM   11  C   UNL     1      48.974 -31.338   4.997  1.00  0.00     0.002 C 
HETATM   12  C   UNL     1      50.258 -31.805   4.317  1.00  0.00     0.002 C 
HETATM   13  C   UNL     1      51.108 -30.624   3.850  1.00  0.00     0.027 C 
HETATM   14  H   UNL     1      50.997 -30.637   1.171  1.00  0.00     0.163 HD
ENDROOT
BRANCH   1  15
HETATM   15  C   UNL     1      46.855 -29.836   0.931  1.00  0.00     0.146 C 
BRANCH  15  16
HETATM   16  C   UNL     1      45.545 -29.168   1.237  1.00  0.00     0.224 C 
HETATM   17  N   UNL     1      44.694 -28.746   0.267  1.00  0.00    -0.327 N 
HETATM   18  H   UNL     1      43.877 -28.295   0.672  1.00  0.00     0.169 HD
HETATM   19  O   UNL     1      45.205 -29.037   2.421  1.00  0.00    -0.273 OA
BRANCH  17  20
HETATM   20  C   UNL     1      44.686 -28.815  -1.141  1.00  0.00     0.034 A 
HETATM   21  C   UNL     1      45.212 -27.861  -2.016  1.00  0.00     0.032 A 
HETATM   22  C   UNL     1      45.157 -28.059  -3.402  1.00  0.00     0.044 A 
HETATM   23  C   UNL     1      44.577 -29.209  -3.919  1.00  0.00     0.116 A 
HETATM   24  C   UNL     1      44.048 -30.169  -3.073  1.00  0.00     0.044 A 
HETATM   25  F   UNL     1      44.533 -29.390  -5.243  1.00  0.00    -0.206 F 
HETATM   26  C   UNL     1      44.103 -29.972  -1.691  1.00  0.00     0.032 A 
ENDBRANCH  17  20
ENDBRANCH  15  16
ENDBRANCH   1  15
TORSDOF 3
ENDMDL
MODEL 7
REMARK VINA RESULT:      -7.2      4.957      6.894
REMARK  3 active torsions:
REMARK  status: ('A' for Active; 'I' for Inactive)
REMARK    1  A    between atoms: C_2  and  N_3 
REMARK       I    between atoms: N_3  and  C_4 
REMARK    2  A    between atoms: C_4  and  C_5 
REMARK    3  A    between atoms: C_5  and  C_6 
ROOT
HETATM    1  C   UNL     1      42.637 -13.311   6.384  1.00  0.00     0.286 C 
HETATM    2  N   UNL     1      41.876 -12.990   5.100  1.00  0.00    -0.056 N 
HETATM    3  H   UNL     1      40.901 -12.810   5.371  1.00  0.00     0.278 HD
HETATM    4  H   UNL     1      42.207 -12.063   4.755  1.00  0.00     0.278 HD
HETATM    5  C   UNL     1      41.876 -14.016   4.006  1.00  0.00     0.209 C 
HETATM    6  C   UNL     1      41.527 -15.399   4.602  1.00  0.00     0.115 C 
HETATM    7  N   UNL     1      42.314 -15.713   5.791  1.00  0.00    -0.353 N 
HETATM    8  C   UNL     1      42.593 -14.797   6.773  1.00  0.00     0.249 C 
HETATM    9  O   UNL     1      42.897 -15.179   7.899  1.00  0.00    -0.271 OA
HETATM   10  C   UNL     1      43.196 -13.993   3.236  1.00  0.00     0.035 C 
HETATM   11  C   UNL     1      43.234 -15.092   2.178  1.00  0.00     0.002 C 
HETATM   12  C   UNL     1      42.986 -16.463   2.801  1.00  0.00     0.002 C 
HETATM   13  C   UNL     1      41.654 -16.507   3.549  1.00  0.00     0.027 C 
HETATM   14  H   UNL     1      42.268 -16.664   6.155  1.00  0.00     0.163 HD
ENDROOT
BRANCH   1  15
HETATM   15  C   UNL     1      44.111 -12.868   6.369  1.00  0.00     0.146 C 
BRANCH  15  16
HETATM   16  C   UNL     1      44.314 -11.475   5.845  1.00  0.00     0.224 C 
HETATM   17  N   UNL     1      44.359 -10.387   6.655  1.00  0.00    -0.327 N 
HETATM   18  H   UNL     1      44.475  -9.534   6.112  1.00  0.00     0.169 HD
HETATM   19  O   UNL     1      44.492 -11.316   4.628  1.00  0.00    -0.273 OA
BRANCH  17  20
HETATM   20  C   UNL     1      44.304 -10.189   8.050  1.00  0.00     0.034 A 
HETATM   21  C   UNL     1      45.373 -10.304   8.942  1.00  0.00     0.032 A 
HETATM   22  C   UNL     1      45.189 -10.060  10.309  1.00  0.00     0.044 A 
HETATM   23  C   UNL     1      43.938  -9.701  10.790  1.00  0.00     0.116 A 
HETATM   24  C   UNL     1      42.862  -9.581   9.927  1.00  0.00     0.044 A 
HETATM   25  F   UNL     1      43.773  -9.467  12.097  1.00  0.00    -0.206 F 
HETATM   26  C   UNL     1      43.046  -9.823   8.563  1.00  0.00     0.032 A 
ENDBRANCH  17  20
ENDBRANCH  15  16
ENDBRANCH   1  15
TORSDOF 3
ENDMDL
MODEL 8
REMARK VINA RESULT:      -7.2      6.212      8.223
REMARK  3 active torsions:
REMARK  status: ('A' for Active; 'I' for Inactive)
REMARK    1  A    between atoms: C_2  and  N_3 
REMARK       I    between atoms: N_3  and  C_4 
REMARK    2  A    between atoms: C_4  and  C_5 
REMARK    3  A    between atoms: C_5  and  C_6 
ROOT
HETATM    1  C   UNL     1      43.540  -9.606   8.506  1.00  0.00     0.286 C 
HETATM    2  N   UNL     1      42.171  -9.812   9.150  1.00  0.00    -0.056 N 
HETATM    3  H   UNL     1      41.481  -9.378   8.522  1.00  0.00     0.278 HD
HETATM    4  H   UNL     1      41.942 -10.827   9.097  1.00  0.00     0.278 HD
HETATM    5  C   UNL     1      41.953  -9.269  10.531  1.00  0.00     0.209 C 
HETATM    6  C   UNL     1      42.450  -7.807  10.591  1.00  0.00     0.115 C 
HETATM    7  N   UNL     1      43.788  -7.646  10.031  1.00  0.00    -0.353 N 
HETATM    8  C   UNL     1      44.206  -8.273   8.884  1.00  0.00     0.249 C 
HETATM    9  O   UNL     1      45.154  -7.822   8.249  1.00  0.00    -0.271 OA
HETATM   10  C   UNL     1      42.589 -10.179  11.581  1.00  0.00     0.035 C 
HETATM   11  C   UNL     1      42.444  -9.588  12.981  1.00  0.00     0.002 C 
HETATM   12  C   UNL     1      43.031  -8.181  13.046  1.00  0.00     0.002 C 
HETATM   13  C   UNL     1      42.381  -7.254  12.020  1.00  0.00     0.027 C 
HETATM   14  H   UNL     1      44.260  -6.753  10.173  1.00  0.00     0.163 HD
ENDROOT
BRANCH   1  15
HETATM   15  C   UNL     1      44.546 -10.736   8.791  1.00  0.00     0.146 C 
BRANCH  15  16
HETATM   16  C   UNL     1      45.290 -11.198   7.572  1.00  0.00     0.224 C 
HETATM   17  N   UNL     1      44.760 -12.072   6.678  1.00  0.00    -0.327 N 
HETATM   18  H   UNL     1      45.426 -12.284   5.938  1.00  0.00     0.169 HD
HETATM   19  O   UNL     1      46.415 -10.730   7.346  1.00  0.00    -0.273 OA
BRANCH  17  20
HETATM   20  C   UNL     1      43.514 -12.717   6.544  1.00  0.00     0.034 A 
HETATM   21  C   UNL     1      42.346 -12.155   6.022  1.00  0.00     0.032 A 
HETATM   22  C   UNL     1      41.172 -12.914   5.926  1.00  0.00     0.044 A 
HETATM   23  C   UNL     1      41.159 -14.235   6.350  1.00  0.00     0.116 A 
HETATM   24  C   UNL     1      42.303 -14.815   6.872  1.00  0.00     0.044 A 
HETATM   25  F   UNL     1      40.035 -14.952   6.250  1.00  0.00    -0.206 F 
HETATM   26  C   UNL     1      43.475 -14.059   6.968  1.00  0.00     0.032 A 
ENDBRANCH  17  20
ENDBRANCH  15  16
ENDBRANCH   1  15
TORSDOF 3
ENDMDL
MODEL 9
REMARK VINA RESULT:      -7.1      4.041      6.096
REMARK  3 active torsions:
REMARK  status: ('A' for Active; 'I' for Inactive)
REMARK    1  A    between atoms: C_2  and  N_3 
REMARK       I    between atoms: N_3  and  C_4 
REMARK    2  A    between atoms: C_4  and  C_5 
REMARK    3  A    between atoms: C_5  and  C_6 
ROOT
HETATM    1  C   UNL     1      41.093 -14.986   5.842  1.00  0.00     0.286 C 
HETATM    2  N   UNL     1      40.395 -14.750   4.505  1.00  0.00    -0.056 N 
HETATM    3  H   UNL     1      39.483 -15.222   4.561  1.00  0.00     0.278 HD
HETATM    4  H   UNL     1      40.141 -13.740   4.450  1.00  0.00     0.278 HD
HETATM    5  C   UNL     1      41.086 -15.213   3.257  1.00  0.00     0.209 C 
HETATM    6  C   UNL     1      41.574 -16.666   3.452  1.00  0.00     0.115 C 
HETATM    7  N   UNL     1      42.297 -16.853   4.706  1.00  0.00    -0.353 N 
HETATM    8  C   UNL     1      41.903 -16.291   5.894  1.00  0.00     0.249 C 
HETATM    9  O   UNL     1      42.284 -16.773   6.956  1.00  0.00    -0.271 OA
HETATM   10  C   UNL     1      42.194 -14.240   2.855  1.00  0.00     0.035 C 
HETATM   11  C   UNL     1      42.957 -14.751   1.636  1.00  0.00     0.002 C 
HETATM   12  C   UNL     1      43.516 -16.149   1.883  1.00  0.00     0.002 C 
HETATM   13  C   UNL     1      42.413 -17.137   2.257  1.00  0.00     0.027 C 
HETATM   14  H   UNL     1      42.792 -17.734   4.844  1.00  0.00     0.163 HD
ENDROOT
BRANCH   1  15
HETATM   15  C   UNL     1      42.018 -13.836   6.280  1.00  0.00     0.146 C 
BRANCH  15  16
HETATM   16  C   UNL     1      41.337 -12.498   6.313  1.00  0.00     0.224 C 
HETATM   17  N   UNL     1      41.997 -11.348   6.605  1.00  0.00    -0.327 N 
HETATM   18  H   UNL     1      41.360 -10.554   6.605  1.00  0.00     0.169 HD
HETATM   19  O   UNL     1      40.135 -12.433   6.019  1.00  0.00    -0.273 OA
BRANCH  17  20
HETATM   20  C   UNL     1      43.340 -11.019   6.879  1.00  0.00     0.034 A 
HETATM   21  C   UNL     1      44.462 -11.497   6.198  1.00  0.00     0.032 A 
HETATM   22  C   UNL     1      45.748 -11.075   6.559  1.00  0.00     0.044 A 
HETATM   23  C   UNL     1      45.919 -10.175   7.601  1.00  0.00     0.116 A 
HETATM   24  C   UNL     1      44.823  -9.687   8.293  1.00  0.00     0.044 A 
HETATM   25  F   UNL     1      47.150  -9.776   7.936  1.00  0.00    -0.206 F 
HETATM   26  C   UNL     1      43.540 -10.107   7.933  1.00  0.00     0.032 A 
ENDBRANCH  17  20
ENDBRANCH  15  16
ENDBRANCH   1  15
TORSDOF 3
ENDMDL
MODEL 10
REMARK VINA RESULT:      -7.1      2.593      3.803
REMARK  3 active torsions:
REMARK  status: ('A' for Active; 'I' for Inactive)
REMARK    1  A    between atoms: C_2  and  N_3 
REMARK       I    between atoms: N_3  and  C_4 
REMARK    2  A    between atoms: C_4  and  C_5 
REMARK    3  A    between atoms: C_5  and  C_6 
ROOT
HETATM    1  C   UNL     1      40.654 -14.436   2.857  1.00  0.00     0.286 C 
HETATM    2  N   UNL     1      39.868 -13.688   3.932  1.00  0.00    -0.056 N 
HETATM    3  H   UNL     1      39.073 -14.289   4.188  1.00  0.00     0.278 HD
HETATM    4  H   UNL     1      40.447 -13.670   4.798  1.00  0.00     0.278 HD
HETATM    5  C   UNL     1      39.336 -12.326   3.596  1.00  0.00     0.209 C 
HETATM    6  C   UNL     1      38.617 -12.380   2.229  1.00  0.00     0.115 C 
HETATM    7  N   UNL     1      39.415 -13.040   1.201  1.00  0.00    -0.353 N 
HETATM    8  C   UNL     1      40.148 -14.178   1.429  1.00  0.00     0.249 C 
HETATM    9  O   UNL     1      40.466 -14.901   0.490  1.00  0.00    -0.271 OA
HETATM   10  C   UNL     1      40.443 -11.276   3.668  1.00  0.00     0.035 C 
HETATM   11  C   UNL     1      39.927  -9.904   3.245  1.00  0.00     0.002 C 
HETATM   12  C   UNL     1      39.309  -9.955   1.851  1.00  0.00     0.002 C 
HETATM   13  C   UNL     1      38.180 -10.982   1.774  1.00  0.00     0.027 C 
HETATM   14  H   UNL     1      39.092 -12.980   0.235  1.00  0.00     0.163 HD
ENDROOT
BRANCH   1  15
HETATM   15  C   UNL     1      42.168 -14.161   2.880  1.00  0.00     0.146 C 
BRANCH  15  16
HETATM   16  C   UNL     1      42.803 -14.411   4.218  1.00  0.00     0.224 C 
HETATM   17  N   UNL     1      43.275 -15.629   4.588  1.00  0.00    -0.327 N 
HETATM   18  H   UNL     1      43.641 -15.604   5.538  1.00  0.00     0.169 HD
HETATM   19  O   UNL     1      42.943 -13.459   5.000  1.00  0.00    -0.273 OA
BRANCH  17  20
HETATM   20  C   UNL     1      43.386 -16.882   3.953  1.00  0.00     0.034 A 
HETATM   21  C   UNL     1      42.829 -17.235   2.722  1.00  0.00     0.032 A 
HETATM   22  C   UNL     1      43.031 -18.515   2.189  1.00  0.00     0.044 A 
HETATM   23  C   UNL     1      43.789 -19.446   2.883  1.00  0.00     0.116 A 
HETATM   24  C   UNL     1      44.352 -19.122   4.105  1.00  0.00     0.044 A 
HETATM   25  F   UNL     1      43.980 -20.664   2.364  1.00  0.00    -0.206 F 
HETATM   26  C   UNL     1      44.152 -17.845   4.637  1.00  0.00     0.032 A 
ENDBRANCH  17  20
ENDBRANCH  15  16
ENDBRANCH   1  15
TORSDOF 3
ENDMDL
