MODEL 1
REMARK VINA RESULT:     -10.3      0.000      0.000
REMARK  6 active torsions:
REMARK  status: ('A' for Active; 'I' for Inactive)
REMARK    1  A    between atoms: N_9  and  C_10 
REMARK    2  A    between atoms: C_10  and  C_11 
REMARK       I    between atoms: C_11  and  N_12 
REMARK    3  A    between atoms: N_12  and  C_13 
REMARK    4  A    between atoms: C_14  and  C_15 
REMARK       I    between atoms: C_15  and  N_16 
REMARK    5  A    between atoms: N_16  and  C_17 
REMARK    6  A    between atoms: C_17  and  C_18 
ROOT
HETATM    1  C   UNL     1      41.966 -10.967   5.583  1.00  0.00     0.240 C 
HETATM    2  N   UNL     1      42.685 -11.425   6.675  1.00  0.00    -0.325 N 
HETATM    3  O   UNL     1      42.197  -9.919   4.982  1.00  0.00    -0.271 OA
HETATM    4  H   UNL     1      42.708 -12.435   6.764  1.00  0.00     0.169 HD
ENDROOT
BRANCH   1   5
HETATM    5  C   UNL     1      40.881 -11.952   5.137  1.00  0.00     0.240 C 
BRANCH   5   6
HETATM    6  N   UNL     1      41.355 -13.293   5.354  1.00  0.00    -0.259 N 
HETATM    7  C   UNL     1      40.680 -14.193   6.114  1.00  0.00     0.326 C 
HETATM    8  N   UNL     1      41.328 -15.396   6.041  1.00  0.00    -0.320 N 
HETATM    9  O   UNL     1      39.677 -13.972   6.771  1.00  0.00    -0.247 OA
HETATM   10  C   UNL     1      42.602 -15.300   5.361  1.00  0.00     0.144 C 
HETATM   11  H   UNL     1      40.948 -16.226   6.473  1.00  0.00     0.165 HD
HETATM   12  C   UNL     1      42.737 -16.360   4.284  1.00  0.00    -0.014 A 
HETATM   13  C   UNL     1      42.496 -13.846   4.841  1.00  0.00     0.261 C 
HETATM   14  C   UNL     1      43.741 -15.356   6.396  1.00  0.00     0.047 C 
HETATM   15  C   UNL     1      43.533 -17.507   4.501  1.00  0.00    -0.049 A 
HETATM   16  C   UNL     1      42.053 -16.236   3.060  1.00  0.00     0.011 A 
HETATM   17  C   UNL     1      43.659 -18.468   3.485  1.00  0.00     0.007 A 
HETATM   18  C   UNL     1      44.325 -17.710   5.771  1.00  0.00     0.039 C 
HETATM   19  C   UNL     1      42.994 -18.314   2.271  1.00  0.00     0.001 A 
HETATM   20  C   UNL     1      42.189 -17.201   2.060  1.00  0.00     0.001 A 
HETATM   21  C   UNL     1      43.921 -16.780   6.909  1.00  0.00     0.008 C 
HETATM   22  O   UNL     1      43.324 -13.257   4.157  1.00  0.00    -0.270 OA
ENDBRANCH   5   6
ENDBRANCH   1   5
BRANCH   2  23
HETATM   23  C   UNL     1      43.775 -10.747   7.268  1.00  0.00     0.050 A 
HETATM   24  C   UNL     1      43.728  -9.842   8.345  1.00  0.00     0.058 A 
HETATM   25  C   UNL     1      44.938  -9.306   8.840  1.00  0.00     0.019 A 
HETATM   26  C   UNL     1      46.171  -9.654   8.292  1.00  0.00     0.001 A 
HETATM   27  C   UNL     1      46.220 -10.569   7.252  1.00  0.00     0.002 A 
HETATM   28  C   UNL     1      45.035 -11.120   6.757  1.00  0.00     0.030 A 
BRANCH  24  29
HETATM   29  C   UNL     1      42.560  -9.509   9.208  1.00  0.00     0.254 C 
HETATM   30  N   UNL     1      42.725  -9.579  10.565  1.00  0.00    -0.351 N 
HETATM   31  H   UNL     1      43.657  -9.739  10.941  1.00  0.00     0.163 HD
HETATM   32  O   UNL     1      41.468  -9.329   8.672  1.00  0.00    -0.268 OA
BRANCH  30  33
HETATM   33  C   UNL     1      41.603  -9.705  11.469  1.00  0.00     0.187 C 
BRANCH  33  34
HETATM   34  C   UNL     1      41.860  -9.071  12.787  1.00  0.00     0.070 A 
HETATM   35  O   UNL     1      40.932  -9.309  13.762  1.00  0.00    -0.325 OA
HETATM   36  C   UNL     1      41.292  -8.575  14.846  1.00  0.00     0.142 A 
HETATM   37  C   UNL     1      42.448  -7.877  14.592  1.00  0.00     0.027 A 
HETATM   38  C   UNL     1      42.813  -8.194  13.262  1.00  0.00     0.036 A 
ENDBRANCH  33  34
ENDBRANCH  30  33
ENDBRANCH  24  29
ENDBRANCH   2  23
TORSDOF 6
ENDMDL
MODEL 2
REMARK VINA RESULT:     -10.1      3.566      5.814
REMARK  6 active torsions:
REMARK  status: ('A' for Active; 'I' for Inactive)
REMARK    1  A    between atoms: N_9  and  C_10 
REMARK    2  A    between atoms: C_10  and  C_11 
REMARK       I    between atoms: C_11  and  N_12 
REMARK    3  A    between atoms: N_12  and  C_13 
REMARK    4  A    between atoms: C_14  and  C_15 
REMARK       I    between atoms: C_15  and  N_16 
REMARK    5  A    between atoms: N_16  and  C_17 
REMARK    6  A    between atoms: C_17  and  C_18 
ROOT
HETATM    1  C   UNL     1      40.762 -13.175   1.113  1.00  0.00     0.240 C 
HETATM    2  N   UNL     1      39.443 -12.912   1.447  1.00  0.00    -0.325 N 
HETATM    3  O   UNL     1      41.688 -12.374   1.234  1.00  0.00    -0.271 OA
HETATM    4  H   UNL     1      38.917 -13.730   1.736  1.00  0.00     0.169 HD
ENDROOT
BRANCH   1   5
HETATM    5  C   UNL     1      40.975 -14.617   0.641  1.00  0.00     0.240 C 
BRANCH   5   6
HETATM    6  N   UNL     1      41.390 -15.415   1.764  1.00  0.00    -0.259 N 
HETATM    7  C   UNL     1      40.534 -15.797   2.747  1.00  0.00     0.326 C 
HETATM    8  N   UNL     1      41.201 -16.626   3.606  1.00  0.00    -0.320 N 
HETATM    9  O   UNL     1      39.371 -15.450   2.863  1.00  0.00    -0.247 OA
HETATM   10  C   UNL     1      42.620 -16.684   3.332  1.00  0.00     0.144 C 
HETATM   11  H   UNL     1      40.725 -17.087   4.369  1.00  0.00     0.165 HD
HETATM   12  C   UNL     1      43.110 -18.118   3.246  1.00  0.00    -0.014 A 
HETATM   13  C   UNL     1      42.647 -15.901   1.997  1.00  0.00     0.261 C 
HETATM   14  C   UNL     1      43.381 -15.858   4.386  1.00  0.00     0.047 C 
HETATM   15  C   UNL     1      43.826 -18.697   4.317  1.00  0.00    -0.049 A 
HETATM   16  C   UNL     1      42.839 -18.907   2.112  1.00  0.00     0.011 A 
HETATM   17  C   UNL     1      44.286 -20.020   4.212  1.00  0.00     0.007 A 
HETATM   18  C   UNL     1      44.188 -17.918   5.560  1.00  0.00     0.039 C 
HETATM   19  C   UNL     1      44.029 -20.775   3.070  1.00  0.00     0.001 A 
HETATM   20  C   UNL     1      43.303 -20.220   2.023  1.00  0.00     0.001 A 
HETATM   21  C   UNL     1      43.426 -16.607   5.713  1.00  0.00     0.008 C 
HETATM   22  O   UNL     1      43.632 -15.680   1.304  1.00  0.00    -0.270 OA
ENDBRANCH   5   6
ENDBRANCH   1   5
BRANCH   2  23
HETATM   23  C   UNL     1      38.968 -11.683   1.958  1.00  0.00     0.050 A 
HETATM   24  C   UNL     1      39.008 -11.246   3.296  1.00  0.00     0.058 A 
HETATM   25  C   UNL     1      38.532  -9.953   3.607  1.00  0.00     0.019 A 
HETATM   26  C   UNL     1      38.031  -9.101   2.624  1.00  0.00     0.001 A 
HETATM   27  C   UNL     1      38.020  -9.519   1.303  1.00  0.00     0.002 A 
HETATM   28  C   UNL     1      38.498 -10.790   0.973  1.00  0.00     0.030 A 
BRANCH  24  29
HETATM   29  C   UNL     1      39.694 -11.896   4.448  1.00  0.00     0.254 C 
HETATM   30  N   UNL     1      41.049 -12.076   4.368  1.00  0.00    -0.351 N 
HETATM   31  H   UNL     1      41.556 -11.661   3.589  1.00  0.00     0.163 HD
HETATM   32  O   UNL     1      39.005 -12.370   5.348  1.00  0.00    -0.268 OA
BRANCH  30  33
HETATM   33  C   UNL     1      41.744 -13.045   5.185  1.00  0.00     0.187 C 
BRANCH  33  34
HETATM   34  C   UNL     1      42.767 -12.423   6.062  1.00  0.00     0.070 A 
HETATM   35  O   UNL     1      42.547 -11.120   6.415  1.00  0.00    -0.325 OA
HETATM   36  C   UNL     1      43.627 -10.710   7.128  1.00  0.00     0.142 A 
HETATM   37  C   UNL     1      44.537 -11.733   7.254  1.00  0.00     0.027 A 
HETATM   38  C   UNL     1      43.984 -12.837   6.562  1.00  0.00     0.036 A 
ENDBRANCH  33  34
ENDBRANCH  30  33
ENDBRANCH  24  29
ENDBRANCH   2  23
TORSDOF 6
ENDMDL
MODEL 3
REMARK VINA RESULT:      -9.8      4.391      8.210
REMARK  6 active torsions:
REMARK  status: ('A' for Active; 'I' for Inactive)
REMARK    1  A    between atoms: N_9  and  C_10 
REMARK    2  A    between atoms: C_10  and  C_11 
REMARK       I    between atoms: C_11  and  N_12 
REMARK    3  A    between atoms: N_12  and  C_13 
REMARK    4  A    between atoms: C_14  and  C_15 
REMARK       I    between atoms: C_15  and  N_16 
REMARK    5  A    between atoms: N_16  and  C_17 
REMARK    6  A    between atoms: C_17  and  C_18 
ROOT
HETATM    1  C   UNL     1      42.856 -14.854   2.355  1.00  0.00     0.240 C 
HETATM    2  N   UNL     1      42.456 -15.844   3.239  1.00  0.00    -0.325 N 
HETATM    3  O   UNL     1      43.802 -14.953   1.575  1.00  0.00    -0.271 OA
HETATM    4  H   UNL     1      41.465 -15.833   3.456  1.00  0.00     0.169 HD
ENDROOT
BRANCH   1   5
HETATM    5  C   UNL     1      41.938 -13.628   2.390  1.00  0.00     0.240 C 
BRANCH   5   6
HETATM    6  N   UNL     1      40.982 -13.735   1.320  1.00  0.00    -0.259 N 
HETATM    7  C   UNL     1      40.034 -14.707   1.281  1.00  0.00     0.326 C 
HETATM    8  N   UNL     1      39.221 -14.478   0.205  1.00  0.00    -0.320 N 
HETATM    9  O   UNL     1      39.927 -15.640   2.058  1.00  0.00    -0.247 OA
HETATM   10  C   UNL     1      39.719 -13.424  -0.652  1.00  0.00     0.144 C 
HETATM   11  H   UNL     1      38.400 -15.042   0.035  1.00  0.00     0.165 HD
HETATM   12  C   UNL     1      38.640 -12.402  -0.960  1.00  0.00    -0.014 A 
HETATM   13  C   UNL     1      40.876 -12.908   0.237  1.00  0.00     0.261 C 
HETATM   14  C   UNL     1      40.331 -14.042  -1.923  1.00  0.00     0.047 C 
HETATM   15  C   UNL     1      37.990 -12.400  -2.215  1.00  0.00    -0.049 A 
HETATM   16  C   UNL     1      38.244 -11.458   0.006  1.00  0.00     0.011 A 
HETATM   17  C   UNL     1      37.006 -11.436  -2.486  1.00  0.00     0.007 A 
HETATM   18  C   UNL     1      38.368 -13.357  -3.321  1.00  0.00     0.039 C 
HETATM   19  C   UNL     1      36.648 -10.493  -1.526  1.00  0.00     0.001 A 
HETATM   20  C   UNL     1      37.264 -10.506  -0.280  1.00  0.00     0.001 A 
HETATM   21  C   UNL     1      39.230 -14.527  -2.860  1.00  0.00     0.008 C 
HETATM   22  O   UNL     1      41.625 -11.972  -0.017  1.00  0.00    -0.270 OA
ENDBRANCH   5   6
ENDBRANCH   1   5
BRANCH   2  23
HETATM   23  C   UNL     1      43.087 -17.101   3.385  1.00  0.00     0.050 A 
HETATM   24  C   UNL     1      43.847 -17.548   4.481  1.00  0.00     0.058 A 
HETATM   25  C   UNL     1      44.353 -18.867   4.469  1.00  0.00     0.019 A 
HETATM   26  C   UNL     1      44.113 -19.734   3.405  1.00  0.00     0.001 A 
HETATM   27  C   UNL     1      43.337 -19.304   2.339  1.00  0.00     0.002 A 
HETATM   28  C   UNL     1      42.818 -18.007   2.338  1.00  0.00     0.030 A 
BRANCH  24  29
HETATM   29  C   UNL     1      44.035 -16.875   5.798  1.00  0.00     0.254 C 
HETATM   30  N   UNL     1      42.919 -16.597   6.539  1.00  0.00    -0.351 N 
HETATM   31  H   UNL     1      42.018 -16.957   6.229  1.00  0.00     0.163 HD
HETATM   32  O   UNL     1      45.157 -16.472   6.094  1.00  0.00    -0.268 OA
BRANCH  30  33
HETATM   33  C   UNL     1      42.921 -15.598   7.584  1.00  0.00     0.187 C 
BRANCH  33  34
HETATM   34  C   UNL     1      42.941 -14.213   7.049  1.00  0.00     0.070 A 
HETATM   35  O   UNL     1      43.882 -13.375   7.580  1.00  0.00    -0.325 OA
HETATM   36  C   UNL     1      43.677 -12.147   7.037  1.00  0.00     0.142 A 
HETATM   37  C   UNL     1      42.627 -12.183   6.150  1.00  0.00     0.027 A 
HETATM   38  C   UNL     1      42.149 -13.515   6.161  1.00  0.00     0.036 A 
ENDBRANCH  33  34
ENDBRANCH  30  33
ENDBRANCH  24  29
ENDBRANCH   2  23
TORSDOF 6
ENDMDL
MODEL 4
REMARK VINA RESULT:      -9.7      6.064      8.889
REMARK  6 active torsions:
REMARK  status: ('A' for Active; 'I' for Inactive)
REMARK    1  A    between atoms: N_9  and  C_10 
REMARK    2  A    between atoms: C_10  and  C_11 
REMARK       I    between atoms: C_11  and  N_12 
REMARK    3  A    between atoms: N_12  and  C_13 
REMARK    4  A    between atoms: C_14  and  C_15 
REMARK       I    between atoms: C_15  and  N_16 
REMARK    5  A    between atoms: N_16  and  C_17 
REMARK    6  A    between atoms: C_17  and  C_18 
ROOT
HETATM    1  C   UNL     1      41.046 -12.901   1.284  1.00  0.00     0.240 C 
HETATM    2  N   UNL     1      39.704 -12.598   1.447  1.00  0.00    -0.325 N 
HETATM    3  O   UNL     1      41.974 -12.150   1.582  1.00  0.00    -0.271 OA
HETATM    4  H   UNL     1      39.112 -13.405   1.609  1.00  0.00     0.169 HD
ENDROOT
BRANCH   1   5
HETATM    5  C   UNL     1      41.270 -14.322   0.758  1.00  0.00     0.240 C 
BRANCH   5   6
HETATM    6  N   UNL     1      41.569 -15.185   1.869  1.00  0.00    -0.259 N 
HETATM    7  C   UNL     1      40.620 -15.604   2.747  1.00  0.00     0.326 C 
HETATM    8  N   UNL     1      41.195 -16.488   3.618  1.00  0.00    -0.320 N 
HETATM    9  O   UNL     1      39.456 -15.244   2.773  1.00  0.00    -0.247 OA
HETATM   10  C   UNL     1      42.632 -16.556   3.474  1.00  0.00     0.144 C 
HETATM   11  H   UNL     1      40.644 -16.981   4.308  1.00  0.00     0.165 HD
HETATM   12  C   UNL     1      43.111 -17.991   3.356  1.00  0.00    -0.014 A 
HETATM   13  C   UNL     1      42.793 -15.704   2.191  1.00  0.00     0.261 C 
HETATM   14  C   UNL     1      43.301 -15.800   4.637  1.00  0.00     0.047 C 
HETATM   15  C   UNL     1      43.717 -18.638   4.456  1.00  0.00    -0.049 A 
HETATM   16  C   UNL     1      42.938 -18.714   2.161  1.00  0.00     0.011 A 
HETATM   17  C   UNL     1      44.169 -19.961   4.323  1.00  0.00     0.007 A 
HETATM   18  C   UNL     1      43.970 -17.932   5.768  1.00  0.00     0.039 C 
HETATM   19  C   UNL     1      44.011 -20.650   3.123  1.00  0.00     0.001 A 
HETATM   20  C   UNL     1      43.392 -20.029   2.044  1.00  0.00     0.001 A 
HETATM   21  C   UNL     1      43.213 -16.618   5.921  1.00  0.00     0.008 C 
HETATM   22  O   UNL     1      43.841 -15.463   1.606  1.00  0.00    -0.270 OA
ENDBRANCH   5   6
ENDBRANCH   1   5
BRANCH   2  23
HETATM   23  C   UNL     1      39.206 -11.378   1.962  1.00  0.00     0.050 A 
HETATM   24  C   UNL     1      38.640 -10.316   1.232  1.00  0.00     0.058 A 
HETATM   25  C   UNL     1      38.143  -9.195   1.933  1.00  0.00     0.019 A 
HETATM   26  C   UNL     1      38.194  -9.118   3.323  1.00  0.00     0.001 A 
HETATM   27  C   UNL     1      38.723 -10.178   4.044  1.00  0.00     0.002 A 
HETATM   28  C   UNL     1      39.208 -11.301   3.370  1.00  0.00     0.030 A 
BRANCH  24  29
HETATM   29  C   UNL     1      38.290 -10.288  -0.216  1.00  0.00     0.254 C 
HETATM   30  N   UNL     1      37.386 -11.208  -0.675  1.00  0.00    -0.351 N 
HETATM   31  H   UNL     1      36.899 -11.798  -0.003  1.00  0.00     0.163 HD
HETATM   32  O   UNL     1      38.928  -9.544  -0.958  1.00  0.00    -0.268 OA
BRANCH  30  33
HETATM   33  C   UNL     1      37.293 -11.561  -2.074  1.00  0.00     0.187 C 
BRANCH  33  34
HETATM   34  C   UNL     1      37.768 -12.941  -2.345  1.00  0.00     0.070 A 
HETATM   35  O   UNL     1      38.675 -13.452  -1.459  1.00  0.00    -0.325 OA
HETATM   36  C   UNL     1      39.053 -14.668  -1.929  1.00  0.00     0.142 A 
HETATM   37  C   UNL     1      38.393 -14.959  -3.099  1.00  0.00     0.027 A 
HETATM   38  C   UNL     1      37.566 -13.842  -3.370  1.00  0.00     0.036 A 
ENDBRANCH  33  34
ENDBRANCH  30  33
ENDBRANCH  24  29
ENDBRANCH   2  23
TORSDOF 6
ENDMDL
MODEL 5
REMARK VINA RESULT:      -9.7      1.028      2.332
REMARK  6 active torsions:
REMARK  status: ('A' for Active; 'I' for Inactive)
REMARK    1  A    between atoms: N_9  and  C_10 
REMARK    2  A    between atoms: C_10  and  C_11 
REMARK       I    between atoms: C_11  and  N_12 
REMARK    3  A    between atoms: N_12  and  C_13 
REMARK    4  A    between atoms: C_14  and  C_15 
REMARK       I    between atoms: C_15  and  N_16 
REMARK    5  A    between atoms: N_16  and  C_17 
REMARK    6  A    between atoms: C_17  and  C_18 
ROOT
HETATM    1  C   UNL     1      41.565 -10.572   6.079  1.00  0.00     0.240 C 
HETATM    2  N   UNL     1      42.483 -11.255   6.861  1.00  0.00    -0.325 N 
HETATM    3  O   UNL     1      41.688  -9.403   5.715  1.00  0.00    -0.271 OA
HETATM    4  H   UNL     1      42.506 -12.256   6.698  1.00  0.00     0.169 HD
ENDROOT
BRANCH   1   5
HETATM    5  C   UNL     1      40.394 -11.456   5.637  1.00  0.00     0.240 C 
BRANCH   5   6
HETATM    6  N   UNL     1      40.906 -12.537   4.839  1.00  0.00    -0.259 N 
HETATM    7  C   UNL     1      41.609 -12.334   3.694  1.00  0.00     0.326 C 
HETATM    8  N   UNL     1      42.042 -13.546   3.230  1.00  0.00    -0.320 N 
HETATM    9  O   UNL     1      41.808 -11.259   3.154  1.00  0.00    -0.247 OA
HETATM   10  C   UNL     1      41.473 -14.657   3.960  1.00  0.00     0.144 C 
HETATM   11  H   UNL     1      42.651 -13.614   2.427  1.00  0.00     0.165 HD
HETATM   12  C   UNL     1      42.544 -15.635   4.406  1.00  0.00    -0.014 A 
HETATM   13  C   UNL     1      40.783 -13.874   5.104  1.00  0.00     0.261 C 
HETATM   14  C   UNL     1      40.377 -15.323   3.109  1.00  0.00     0.047 C 
HETATM   15  C   UNL     1      42.728 -16.858   3.723  1.00  0.00    -0.049 A 
HETATM   16  C   UNL     1      43.393 -15.332   5.488  1.00  0.00     0.011 A 
HETATM   17  C   UNL     1      43.714 -17.757   4.161  1.00  0.00     0.007 A 
HETATM   18  C   UNL     1      41.847 -17.279   2.571  1.00  0.00     0.039 C 
HETATM   19  C   UNL     1      44.526 -17.450   5.250  1.00  0.00     0.001 A 
HETATM   20  C   UNL     1      44.368 -16.237   5.910  1.00  0.00     0.001 A 
HETATM   21  C   UNL     1      41.003 -16.149   1.991  1.00  0.00     0.008 C 
HETATM   22  O   UNL     1      40.163 -14.356   6.043  1.00  0.00    -0.270 OA
ENDBRANCH   5   6
ENDBRANCH   1   5
BRANCH   2  23
HETATM   23  C   UNL     1      43.683 -10.704   7.367  1.00  0.00     0.050 A 
HETATM   24  C   UNL     1      43.815  -9.783   8.423  1.00  0.00     0.058 A 
HETATM   25  C   UNL     1      45.111  -9.389   8.827  1.00  0.00     0.019 A 
HETATM   26  C   UNL     1      46.255  -9.892   8.211  1.00  0.00     0.001 A 
HETATM   27  C   UNL     1      46.125 -10.824   7.193  1.00  0.00     0.002 A 
HETATM   28  C   UNL     1      44.853 -11.235   6.787  1.00  0.00     0.030 A 
BRANCH  24  29
HETATM   29  C   UNL     1      42.755  -9.297   9.349  1.00  0.00     0.254 C 
HETATM   30  N   UNL     1      42.618  -9.930  10.555  1.00  0.00    -0.351 N 
HETATM   31  H   UNL     1      43.309 -10.626  10.828  1.00  0.00     0.163 HD
HETATM   32  O   UNL     1      41.960  -8.453   8.939  1.00  0.00    -0.268 OA
BRANCH  30  33
HETATM   33  C   UNL     1      41.399  -9.852  11.330  1.00  0.00     0.187 C 
BRANCH  33  34
HETATM   34  C   UNL     1      41.614  -9.258  12.673  1.00  0.00     0.070 A 
HETATM   35  O   UNL     1      40.538  -9.269  13.516  1.00  0.00    -0.325 OA
HETATM   36  C   UNL     1      40.905  -8.604  14.642  1.00  0.00     0.142 A 
HETATM   37  C   UNL     1      42.208  -8.177  14.546  1.00  0.00     0.027 A 
HETATM   38  C   UNL     1      42.665  -8.596  13.273  1.00  0.00     0.036 A 
ENDBRANCH  33  34
ENDBRANCH  30  33
ENDBRANCH  24  29
ENDBRANCH   2  23
TORSDOF 6
ENDMDL
MODEL 6
REMARK VINA RESULT:      -9.6      4.975      8.954
REMARK  6 active torsions:
REMARK  status: ('A' for Active; 'I' for Inactive)
REMARK    1  A    between atoms: N_9  and  C_10 
REMARK    2  A    between atoms: C_10  and  C_11 
REMARK       I    between atoms: C_11  and  N_12 
REMARK    3  A    between atoms: N_12  and  C_13 
REMARK    4  A    between atoms: C_14  and  C_15 
REMARK       I    between atoms: C_15  and  N_16 
REMARK    5  A    between atoms: N_16  and  C_17 
REMARK    6  A    between atoms: C_17  and  C_18 
ROOT
HETATM    1  C   UNL     1      40.071 -11.929   3.178  1.00  0.00     0.240 C 
HETATM    2  N   UNL     1      40.935 -12.465   2.237  1.00  0.00    -0.325 N 
HETATM    3  O   UNL     1      38.889 -11.659   2.970  1.00  0.00    -0.271 OA
HETATM    4  H   UNL     1      41.671 -13.042   2.628  1.00  0.00     0.169 HD
ENDROOT
BRANCH   1   5
HETATM    5  C   UNL     1      40.723 -11.773   4.555  1.00  0.00     0.240 C 
BRANCH   5   6
HETATM    6  N   UNL     1      41.228 -13.052   4.975  1.00  0.00    -0.259 N 
HETATM    7  C   UNL     1      40.521 -13.893   5.774  1.00  0.00     0.326 C 
HETATM    8  N   UNL     1      41.222 -15.060   5.906  1.00  0.00    -0.320 N 
HETATM    9  O   UNL     1      39.450 -13.650   6.304  1.00  0.00    -0.247 OA
HETATM   10  C   UNL     1      42.551 -14.977   5.341  1.00  0.00     0.144 C 
HETATM   11  H   UNL     1      40.836 -15.853   6.400  1.00  0.00     0.165 HD
HETATM   12  C   UNL     1      42.834 -16.146   4.416  1.00  0.00    -0.014 A 
HETATM   13  C   UNL     1      42.436 -13.600   4.641  1.00  0.00     0.261 C 
HETATM   14  C   UNL     1      43.584 -14.851   6.475  1.00  0.00     0.047 C 
HETATM   15  C   UNL     1      43.652 -17.217   4.843  1.00  0.00    -0.049 A 
HETATM   16  C   UNL     1      42.268 -16.202   3.129  1.00  0.00     0.011 A 
HETATM   17  C   UNL     1      43.916 -18.282   3.967  1.00  0.00     0.007 A 
HETATM   18  C   UNL     1      44.324 -17.228   6.196  1.00  0.00     0.039 C 
HETATM   19  C   UNL     1      43.367 -18.305   2.687  1.00  0.00     0.001 A 
HETATM   20  C   UNL     1      42.541 -17.268   2.270  1.00  0.00     0.001 A 
HETATM   21  C   UNL     1      43.772 -16.195   7.172  1.00  0.00     0.008 C 
HETATM   22  O   UNL     1      43.302 -13.053   3.970  1.00  0.00    -0.270 OA
ENDBRANCH   5   6
ENDBRANCH   1   5
BRANCH   2  23
HETATM   23  C   UNL     1      40.590 -12.763   0.898  1.00  0.00     0.050 A 
HETATM   24  C   UNL     1      40.688 -11.908  -0.215  1.00  0.00     0.058 A 
HETATM   25  C   UNL     1      40.347 -12.408  -1.492  1.00  0.00     0.019 A 
HETATM   26  C   UNL     1      39.922 -13.722  -1.675  1.00  0.00     0.001 A 
HETATM   27  C   UNL     1      39.855 -14.573  -0.583  1.00  0.00     0.002 A 
HETATM   28  C   UNL     1      40.200 -14.102   0.686  1.00  0.00     0.030 A 
BRANCH  24  29
HETATM   29  C   UNL     1      41.319 -10.560  -0.278  1.00  0.00     0.254 C 
HETATM   30  N   UNL     1      41.186  -9.844  -1.437  1.00  0.00    -0.351 N 
HETATM   31  H   UNL     1      40.570 -10.197  -2.167  1.00  0.00     0.163 HD
HETATM   32  O   UNL     1      42.047 -10.210   0.648  1.00  0.00    -0.268 OA
BRANCH  30  33
HETATM   33  C   UNL     1      42.079  -8.758  -1.776  1.00  0.00     0.187 C 
BRANCH  33  34
HETATM   34  C   UNL     1      41.819  -8.208  -3.130  1.00  0.00     0.070 A 
HETATM   35  O   UNL     1      42.817  -7.449  -3.674  1.00  0.00    -0.325 OA
HETATM   36  C   UNL     1      42.354  -6.966  -4.856  1.00  0.00     0.142 A 
HETATM   37  C   UNL     1      41.076  -7.413  -5.091  1.00  0.00     0.027 A 
HETATM   38  C   UNL     1      40.729  -8.212  -3.975  1.00  0.00     0.036 A 
ENDBRANCH  33  34
ENDBRANCH  30  33
ENDBRANCH  24  29
ENDBRANCH   2  23
TORSDOF 6
ENDMDL
MODEL 7
REMARK VINA RESULT:      -9.6      3.160      9.408
REMARK  6 active torsions:
REMARK  status: ('A' for Active; 'I' for Inactive)
REMARK    1  A    between atoms: N_9  and  C_10 
REMARK    2  A    between atoms: C_10  and  C_11 
REMARK       I    between atoms: C_11  and  N_12 
REMARK    3  A    between atoms: N_12  and  C_13 
REMARK    4  A    between atoms: C_14  and  C_15 
REMARK       I    between atoms: C_15  and  N_16 
REMARK    5  A    between atoms: N_16  and  C_17 
REMARK    6  A    between atoms: C_17  and  C_18 
ROOT
HETATM    1  C   UNL     1      41.120 -12.771   3.211  1.00  0.00     0.240 C 
HETATM    2  N   UNL     1      40.964 -13.984   3.863  1.00  0.00    -0.325 N 
HETATM    3  O   UNL     1      41.891 -12.574   2.273  1.00  0.00    -0.271 OA
HETATM    4  H   UNL     1      40.039 -14.132   4.252  1.00  0.00     0.169 HD
ENDROOT
BRANCH   1   5
HETATM    5  C   UNL     1      40.163 -11.695   3.733  1.00  0.00     0.240 C 
BRANCH   5   6
HETATM    6  N   UNL     1      40.689 -11.163   4.961  1.00  0.00    -0.259 N 
HETATM    7  C   UNL     1      40.267 -11.584   6.182  1.00  0.00     0.326 C 
HETATM    8  N   UNL     1      41.026 -10.969   7.139  1.00  0.00    -0.320 N 
HETATM    9  O   UNL     1      39.355 -12.363   6.398  1.00  0.00    -0.247 OA
HETATM   10  C   UNL     1      41.885  -9.941   6.593  1.00  0.00     0.144 C 
HETATM   11  H   UNL     1      40.929 -11.201   8.118  1.00  0.00     0.165 HD
HETATM   12  C   UNL     1      43.317 -10.103   7.067  1.00  0.00    -0.014 A 
HETATM   13  C   UNL     1      41.660 -10.207   5.084  1.00  0.00     0.261 C 
HETATM   14  C   UNL     1      41.302  -8.555   6.926  1.00  0.00     0.047 C 
HETATM   15  C   UNL     1      43.837  -9.264   8.078  1.00  0.00    -0.049 A 
HETATM   16  C   UNL     1      44.145 -11.107   6.532  1.00  0.00     0.011 A 
HETATM   17  C   UNL     1      45.170  -9.419   8.492  1.00  0.00     0.007 A 
HETATM   18  C   UNL     1      43.031  -8.142   8.690  1.00  0.00     0.039 C 
HETATM   19  C   UNL     1      45.981 -10.402   7.931  1.00  0.00     0.001 A 
HETATM   20  C   UNL     1      45.468 -11.248   6.954  1.00  0.00     0.001 A 
HETATM   21  C   UNL     1      41.538  -8.220   8.394  1.00  0.00     0.008 C 
HETATM   22  O   UNL     1      42.192  -9.613   4.155  1.00  0.00    -0.270 OA
ENDBRANCH   5   6
ENDBRANCH   1   5
BRANCH   2  23
HETATM   23  C   UNL     1      41.679 -15.165   3.555  1.00  0.00     0.050 A 
HETATM   24  C   UNL     1      41.466 -16.027   2.463  1.00  0.00     0.058 A 
HETATM   25  C   UNL     1      42.325 -17.135   2.291  1.00  0.00     0.019 A 
HETATM   26  C   UNL     1      43.377 -17.391   3.168  1.00  0.00     0.001 A 
HETATM   27  C   UNL     1      43.606 -16.524   4.225  1.00  0.00     0.002 A 
HETATM   28  C   UNL     1      42.775 -15.416   4.406  1.00  0.00     0.030 A 
BRANCH  24  29
HETATM   29  C   UNL     1      40.557 -15.821   1.301  1.00  0.00     0.254 C 
HETATM   30  N   UNL     1      40.860 -14.817   0.421  1.00  0.00    -0.351 N 
HETATM   31  H   UNL     1      41.747 -14.326   0.519  1.00  0.00     0.163 HD
HETATM   32  O   UNL     1      39.506 -16.456   1.260  1.00  0.00    -0.268 OA
BRANCH  30  33
HETATM   33  C   UNL     1      39.870 -14.248  -0.466  1.00  0.00     0.187 C 
BRANCH  33  34
HETATM   34  C   UNL     1      40.453 -13.275  -1.422  1.00  0.00     0.070 A 
HETATM   35  O   UNL     1      40.952 -12.122  -0.881  1.00  0.00    -0.325 OA
HETATM   36  C   UNL     1      41.347 -11.333  -1.913  1.00  0.00     0.142 A 
HETATM   37  C   UNL     1      41.125 -11.965  -3.114  1.00  0.00     0.027 A 
HETATM   38  C   UNL     1      40.544 -13.216  -2.797  1.00  0.00     0.036 A 
ENDBRANCH  33  34
ENDBRANCH  30  33
ENDBRANCH  24  29
ENDBRANCH   2  23
TORSDOF 6
ENDMDL
MODEL 8
REMARK VINA RESULT:      -9.4      2.438      3.891
REMARK  6 active torsions:
REMARK  status: ('A' for Active; 'I' for Inactive)
REMARK    1  A    between atoms: N_9  and  C_10 
REMARK    2  A    between atoms: C_10  and  C_11 
REMARK       I    between atoms: C_11  and  N_12 
REMARK    3  A    between atoms: N_12  and  C_13 
REMARK    4  A    between atoms: C_14  and  C_15 
REMARK       I    between atoms: C_15  and  N_16 
REMARK    5  A    between atoms: N_16  and  C_17 
REMARK    6  A    between atoms: C_17  and  C_18 
ROOT
HETATM    1  C   UNL     1      41.507 -11.473   2.100  1.00  0.00     0.240 C 
HETATM    2  N   UNL     1      40.659 -11.076   3.121  1.00  0.00    -0.325 N 
HETATM    3  O   UNL     1      42.468 -10.820   1.694  1.00  0.00    -0.271 OA
HETATM    4  H   UNL     1      40.247 -11.843   3.642  1.00  0.00     0.169 HD
ENDROOT
BRANCH   1   5
HETATM    5  C   UNL     1      41.172 -12.868   1.564  1.00  0.00     0.240 C 
BRANCH   5   6
HETATM    6  N   UNL     1      41.538 -13.844   2.555  1.00  0.00    -0.259 N 
HETATM    7  C   UNL     1      40.652 -14.338   3.458  1.00  0.00     0.326 C 
HETATM    8  N   UNL     1      41.273 -15.315   4.187  1.00  0.00    -0.320 N 
HETATM    9  O   UNL     1      39.501 -13.967   3.614  1.00  0.00    -0.247 OA
HETATM   10  C   UNL     1      42.693 -15.387   3.923  1.00  0.00     0.144 C 
HETATM   11  H   UNL     1      40.767 -15.868   4.865  1.00  0.00     0.165 HD
HETATM   12  C   UNL     1      43.131 -16.809   3.623  1.00  0.00    -0.014 A 
HETATM   13  C   UNL     1      42.772 -14.410   2.724  1.00  0.00     0.261 C 
HETATM   14  C   UNL     1      43.467 -14.763   5.099  1.00  0.00     0.047 C 
HETATM   15  C   UNL     1      43.806 -17.573   4.601  1.00  0.00    -0.049 A 
HETATM   16  C   UNL     1      42.849 -17.403   2.379  1.00  0.00     0.011 A 
HETATM   17  C   UNL     1      44.217 -18.882   4.298  1.00  0.00     0.007 A 
HETATM   18  C   UNL     1      44.176 -17.009   5.952  1.00  0.00     0.039 C 
HETATM   19  C   UNL     1      43.951 -19.442   3.051  1.00  0.00     0.001 A 
HETATM   20  C   UNL     1      43.264 -18.705   2.094  1.00  0.00     0.001 A 
HETATM   21  C   UNL     1      43.462 -15.707   6.297  1.00  0.00     0.008 C 
HETATM   22  O   UNL     1      43.776 -14.125   2.084  1.00  0.00    -0.270 OA
ENDBRANCH   5   6
ENDBRANCH   1   5
BRANCH   2  23
HETATM   23  C   UNL     1      40.764  -9.859   3.833  1.00  0.00     0.050 A 
HETATM   24  C   UNL     1      41.437  -9.642   5.050  1.00  0.00     0.058 A 
HETATM   25  C   UNL     1      41.480  -8.335   5.583  1.00  0.00     0.019 A 
HETATM   26  C   UNL     1      40.880  -7.258   4.933  1.00  0.00     0.001 A 
HETATM   27  C   UNL     1      40.244  -7.466   3.719  1.00  0.00     0.002 A 
HETATM   28  C   UNL     1      40.201  -8.750   3.169  1.00  0.00     0.030 A 
BRANCH  24  29
HETATM   29  C   UNL     1      42.320 -10.590   5.786  1.00  0.00     0.254 C 
HETATM   30  N   UNL     1      43.134 -10.081   6.762  1.00  0.00    -0.351 N 
HETATM   31  H   UNL     1      43.029  -9.105   7.032  1.00  0.00     0.163 HD
HETATM   32  O   UNL     1      42.387 -11.753   5.394  1.00  0.00    -0.268 OA
BRANCH  30  33
HETATM   33  C   UNL     1      44.307 -10.787   7.229  1.00  0.00     0.187 C 
BRANCH  33  34
HETATM   34  C   UNL     1      44.709 -10.379   8.599  1.00  0.00     0.070 A 
HETATM   35  O   UNL     1      44.013 -10.952   9.627  1.00  0.00    -0.325 OA
HETATM   36  C   UNL     1      44.459 -10.385  10.777  1.00  0.00     0.142 A 
HETATM   37  C   UNL     1      45.445  -9.465  10.510  1.00  0.00     0.027 A 
HETATM   38  C   UNL     1      45.603  -9.458   9.103  1.00  0.00     0.036 A 
ENDBRANCH  33  34
ENDBRANCH  30  33
ENDBRANCH  24  29
ENDBRANCH   2  23
TORSDOF 6
ENDMDL
MODEL 9
REMARK VINA RESULT:      -9.4      2.185      9.063
REMARK  6 active torsions:
REMARK  status: ('A' for Active; 'I' for Inactive)
REMARK    1  A    between atoms: N_9  and  C_10 
REMARK    2  A    between atoms: C_10  and  C_11 
REMARK       I    between atoms: C_11  and  N_12 
REMARK    3  A    between atoms: N_12  and  C_13 
REMARK    4  A    between atoms: C_14  and  C_15 
REMARK       I    between atoms: C_15  and  N_16 
REMARK    5  A    between atoms: N_16  and  C_17 
REMARK    6  A    between atoms: C_17  and  C_18 
ROOT
HETATM    1  C   UNL     1      41.229  -9.186   7.248  1.00  0.00     0.240 C 
HETATM    2  N   UNL     1      41.952 -10.069   8.034  1.00  0.00    -0.325 N 
HETATM    3  O   UNL     1      41.694  -8.543   6.309  1.00  0.00    -0.271 OA
HETATM    4  H   UNL     1      41.403 -10.830   8.420  1.00  0.00     0.169 HD
ENDROOT
BRANCH   1   5
HETATM    5  C   UNL     1      39.744  -9.145   7.622  1.00  0.00     0.240 C 
BRANCH   5   6
HETATM    6  N   UNL     1      39.630  -8.922   9.039  1.00  0.00    -0.259 N 
HETATM    7  C   UNL     1      39.103  -9.845   9.885  1.00  0.00     0.326 C 
HETATM    8  N   UNL     1      39.229  -9.382  11.166  1.00  0.00    -0.320 N 
HETATM    9  O   UNL     1      38.586 -10.902   9.565  1.00  0.00    -0.247 OA
HETATM   10  C   UNL     1      39.686  -8.010  11.218  1.00  0.00     0.144 C 
HETATM   11  H   UNL     1      38.969  -9.951  11.960  1.00  0.00     0.165 HD
HETATM   12  C   UNL     1      40.856  -7.851  12.171  1.00  0.00    -0.014 A 
HETATM   13  C   UNL     1      40.027  -7.806   9.722  1.00  0.00     0.261 C 
HETATM   14  C   UNL     1      38.504  -7.088  11.570  1.00  0.00     0.047 C 
HETATM   15  C   UNL     1      40.667  -7.286  13.452  1.00  0.00    -0.049 A 
HETATM   16  C   UNL     1      42.145  -8.288  11.811  1.00  0.00     0.011 A 
HETATM   17  C   UNL     1      41.766  -7.132  14.313  1.00  0.00     0.007 A 
HETATM   18  C   UNL     1      39.327  -6.764  13.914  1.00  0.00     0.039 C 
HETATM   19  C   UNL     1      43.038  -7.547  13.927  1.00  0.00     0.001 A 
HETATM   20  C   UNL     1      43.227  -8.128  12.679  1.00  0.00     0.001 A 
HETATM   21  C   UNL     1      38.155  -7.215  13.049  1.00  0.00     0.008 C 
HETATM   22  O   UNL     1      40.494  -6.794   9.215  1.00  0.00    -0.270 OA
ENDBRANCH   5   6
ENDBRANCH   1   5
BRANCH   2  23
HETATM   23  C   UNL     1      43.331 -10.346   7.880  1.00  0.00     0.050 A 
HETATM   24  C   UNL     1      43.914 -11.318   7.046  1.00  0.00     0.058 A 
HETATM   25  C   UNL     1      45.322 -11.409   6.984  1.00  0.00     0.019 A 
HETATM   26  C   UNL     1      46.144 -10.559   7.721  1.00  0.00     0.001 A 
HETATM   27  C   UNL     1      45.570  -9.581   8.519  1.00  0.00     0.002 A 
HETATM   28  C   UNL     1      44.179  -9.468   8.584  1.00  0.00     0.030 A 
BRANCH  24  29
HETATM   29  C   UNL     1      43.240 -12.166   6.022  1.00  0.00     0.254 C 
HETATM   30  N   UNL     1      42.372 -13.129   6.459  1.00  0.00    -0.351 N 
HETATM   31  H   UNL     1      42.125 -13.160   7.446  1.00  0.00     0.163 HD
HETATM   32  O   UNL     1      43.598 -12.064   4.850  1.00  0.00    -0.268 OA
BRANCH  30  33
HETATM   33  C   UNL     1      42.003 -14.260   5.637  1.00  0.00     0.187 C 
BRANCH  33  34
HETATM   34  C   UNL     1      42.674 -15.515   6.060  1.00  0.00     0.070 A 
HETATM   35  O   UNL     1      43.738 -15.916   5.300  1.00  0.00    -0.325 OA
HETATM   36  C   UNL     1      44.147 -17.116   5.785  1.00  0.00     0.142 A 
HETATM   37  C   UNL     1      43.373 -17.490   6.859  1.00  0.00     0.027 A 
HETATM   38  C   UNL     1      42.420 -16.459   7.033  1.00  0.00     0.036 A 
ENDBRANCH  33  34
ENDBRANCH  30  33
ENDBRANCH  24  29
ENDBRANCH   2  23
TORSDOF 6
ENDMDL
MODEL 10
REMARK VINA RESULT:      -9.2      4.929      7.408
REMARK  6 active torsions:
REMARK  status: ('A' for Active; 'I' for Inactive)
REMARK    1  A    between atoms: N_9  and  C_10 
REMARK    2  A    between atoms: C_10  and  C_11 
REMARK       I    between atoms: C_11  and  N_12 
REMARK    3  A    between atoms: N_12  and  C_13 
REMARK    4  A    between atoms: C_14  and  C_15 
REMARK       I    between atoms: C_15  and  N_16 
REMARK    5  A    between atoms: N_16  and  C_17 
REMARK    6  A    between atoms: C_17  and  C_18 
ROOT
HETATM    1  C   UNL     1      39.595 -12.294   2.767  1.00  0.00     0.240 C 
HETATM    2  N   UNL     1      40.282 -12.539   1.589  1.00  0.00    -0.325 N 
HETATM    3  O   UNL     1      38.383 -12.445   2.916  1.00  0.00    -0.271 OA
HETATM    4  H   UNL     1      41.247 -12.822   1.722  1.00  0.00     0.169 HD
ENDROOT
BRANCH   1   5
HETATM    5  C   UNL     1      40.521 -11.882   3.915  1.00  0.00     0.240 C 
BRANCH   5   6
HETATM    6  N   UNL     1      41.140 -13.062   4.458  1.00  0.00    -0.259 N 
HETATM    7  C   UNL     1      40.565 -13.803   5.441  1.00  0.00     0.326 C 
HETATM    8  N   UNL     1      41.342 -14.907   5.662  1.00  0.00    -0.320 N 
HETATM    9  O   UNL     1      39.541 -13.529   6.043  1.00  0.00    -0.247 OA
HETATM   10  C   UNL     1      42.600 -14.853   4.950  1.00  0.00     0.144 C 
HETATM   11  H   UNL     1      41.055 -15.633   6.303  1.00  0.00     0.165 HD
HETATM   12  C   UNL     1      42.857 -16.134   4.178  1.00  0.00    -0.014 A 
HETATM   13  C   UNL     1      42.337 -13.602   4.077  1.00  0.00     0.261 C 
HETATM   14  C   UNL     1      43.734 -14.517   5.937  1.00  0.00     0.047 C 
HETATM   15  C   UNL     1      43.773 -17.093   4.663  1.00  0.00    -0.049 A 
HETATM   16  C   UNL     1      42.168 -16.405   2.981  1.00  0.00     0.011 A 
HETATM   17  C   UNL     1      44.009 -18.265   3.926  1.00  0.00     0.007 A 
HETATM   18  C   UNL     1      44.578 -16.875   5.923  1.00  0.00     0.039 C 
HETATM   19  C   UNL     1      43.336 -18.501   2.729  1.00  0.00     0.001 A 
HETATM   20  C   UNL     1      42.414 -17.574   2.260  1.00  0.00     0.001 A 
HETATM   21  C   UNL     1      44.068 -15.732   6.794  1.00  0.00     0.008 C 
HETATM   22  O   UNL     1      43.097 -13.124   3.244  1.00  0.00    -0.270 OA
ENDBRANCH   5   6
ENDBRANCH   1   5
BRANCH   2  23
HETATM   23  C   UNL     1      39.689 -12.982   0.384  1.00  0.00     0.050 A 
HETATM   24  C   UNL     1      38.902 -12.224  -0.504  1.00  0.00     0.058 A 
HETATM   25  C   UNL     1      38.442 -12.828  -1.694  1.00  0.00     0.019 A 
HETATM   26  C   UNL     1      38.752 -14.149  -2.013  1.00  0.00     0.001 A 
HETATM   27  C   UNL     1      39.553 -14.886  -1.154  1.00  0.00     0.002 A 
HETATM   28  C   UNL     1      40.028 -14.302   0.023  1.00  0.00     0.030 A 
BRANCH  24  29
HETATM   29  C   UNL     1      38.642 -10.757  -0.469  1.00  0.00     0.254 C 
HETATM   30  N   UNL     1      39.650  -9.938  -0.037  1.00  0.00    -0.351 N 
HETATM   31  H   UNL     1      40.572 -10.337   0.133  1.00  0.00     0.163 HD
HETATM   32  O   UNL     1      37.500 -10.360  -0.688  1.00  0.00    -0.268 OA
BRANCH  30  33
HETATM   33  C   UNL     1      39.398  -8.597   0.443  1.00  0.00     0.187 C 
BRANCH  33  34
HETATM   34  C   UNL     1      39.113  -8.558   1.899  1.00  0.00     0.070 A 
HETATM   35  O   UNL     1      40.153  -8.189   2.707  1.00  0.00    -0.325 OA
HETATM   36  C   UNL     1      39.724  -8.307   3.991  1.00  0.00     0.142 A 
HETATM   37  C   UNL     1      38.417  -8.733   4.024  1.00  0.00     0.027 A 
HETATM   38  C   UNL     1      38.024  -8.899   2.675  1.00  0.00     0.036 A 
ENDBRANCH  33  34
ENDBRANCH  30  33
ENDBRANCH  24  29
ENDBRANCH   2  23
TORSDOF 6
ENDMDL
