MODEL 1
REMARK VINA RESULT:      -8.7      0.000      0.000
REMARK  4 active torsions:
REMARK  status: ('A' for Active; 'I' for Inactive)
REMARK    1  A    between atoms: C_8  and  N_9 
REMARK       I    between atoms: N_9  and  C_10 
REMARK       I    between atoms: C_10  and  N_11 
REMARK    2  A    between atoms: N_11  and  C_12 
REMARK    3  A    between atoms: C_15  and  C_16 
REMARK       I    between atoms: C_16  and  N_17 
REMARK    4  A    between atoms: N_17  and  C_18 
ROOT
HETATM    1  C   UNL     1      42.507  -9.182  12.182  1.00  0.00     0.036 A 
HETATM    2  C   UNL     1      43.322  -8.143  12.636  1.00  0.00     0.030 A 
HETATM    3  C   UNL     1      43.110  -7.566  13.895  1.00  0.00     0.019 A 
HETATM    4  C   UNL     1      42.062  -8.011  14.707  1.00  0.00     0.032 A 
HETATM    5  C   UNL     1      41.283  -9.092  14.281  1.00  0.00     0.019 A 
HETATM    6  C   UNL     1      41.506  -9.673  13.029  1.00  0.00     0.030 A 
ENDROOT
BRANCH   1   7
HETATM    7  N   UNL     1      42.584  -9.735  10.888  1.00  0.00    -0.309 N 
HETATM    8  C   UNL     1      43.694 -10.298  10.270  1.00  0.00     0.325 C 
HETATM    9  N   UNL     1      43.465 -10.415   8.908  1.00  0.00    -0.305 N 
HETATM   10  O   UNL     1      44.731 -10.601  10.839  1.00  0.00    -0.247 OA
HETATM   11  H   UNL     1      42.721  -9.848   8.534  1.00  0.00     0.171 HD
HETATM   12  H   UNL     1      41.725  -9.756  10.361  1.00  0.00     0.170 HD
BRANCH   9  13
HETATM   13  C   UNL     1      44.331 -10.947   7.967  1.00  0.00     0.086 A 
HETATM   14  C   UNL     1      45.509 -10.310   7.620  1.00  0.00     0.052 A 
HETATM   15  C   UNL     1      46.147  -9.055   8.082  1.00  0.00     0.072 C 
HETATM   16  N   UNL     1      46.112 -11.116   6.698  1.00  0.00    -0.280 N 
HETATM   17  H   UNL     1      47.004 -10.981   6.234  1.00  0.00     0.189 HD
HETATM   18  N   UNL     1      45.406 -12.206   6.389  1.00  0.00    -0.177 NA
HETATM   19  C   UNL     1      44.306 -12.119   7.155  1.00  0.00     0.079 A 
HETATM   20  C   UNL     1      43.276 -13.179   7.020  1.00  0.00     0.075 C 
ENDBRANCH   9  13
ENDBRANCH   1   7
BRANCH   4  21
HETATM   21  C   UNL     1      41.706  -7.345  15.995  1.00  0.00     0.252 C 
HETATM   22  N   UNL     1      41.045  -8.131  16.919  1.00  0.00    -0.352 N 
HETATM   23  H   UNL     1      40.985  -9.122  16.730  1.00  0.00     0.163 HD
HETATM   24  O   UNL     1      42.063  -6.191  16.203  1.00  0.00    -0.268 OA
BRANCH  22  25
HETATM   25  C   UNL     1      40.837  -7.752  18.302  1.00  0.00     0.084 C 
HETATM   26  C   UNL     1      39.563  -8.332  18.915  1.00  0.00     0.025 C 
HETATM   27  C   UNL     1      39.804  -8.161  20.405  1.00  0.00     0.002 C 
HETATM   28  C   UNL     1      41.268  -8.548  20.571  1.00  0.00     0.002 C 
HETATM   29  C   UNL     1      41.964  -8.103  19.282  1.00  0.00     0.025 C 
ENDBRANCH  22  25
ENDBRANCH   4  21
TORSDOF 4
ENDMDL
MODEL 2
REMARK VINA RESULT:      -7.9      1.849      2.353
REMARK  4 active torsions:
REMARK  status: ('A' for Active; 'I' for Inactive)
REMARK    1  A    between atoms: C_8  and  N_9 
REMARK       I    between atoms: N_9  and  C_10 
REMARK       I    between atoms: C_10  and  N_11 
REMARK    2  A    between atoms: N_11  and  C_12 
REMARK    3  A    between atoms: C_15  and  C_16 
REMARK       I    between atoms: C_16  and  N_17 
REMARK    4  A    between atoms: N_17  and  C_18 
ROOT
HETATM    1  C   UNL     1      42.473  -9.174  12.159  1.00  0.00     0.036 A 
HETATM    2  C   UNL     1      43.281  -8.136  12.631  1.00  0.00     0.030 A 
HETATM    3  C   UNL     1      43.052  -7.569  13.891  1.00  0.00     0.019 A 
HETATM    4  C   UNL     1      41.994  -8.021  14.687  1.00  0.00     0.032 A 
HETATM    5  C   UNL     1      41.223  -9.101  14.243  1.00  0.00     0.019 A 
HETATM    6  C   UNL     1      41.462  -9.672  12.989  1.00  0.00     0.030 A 
ENDROOT
BRANCH   1   7
HETATM    7  N   UNL     1      42.567  -9.716  10.862  1.00  0.00    -0.309 N 
HETATM    8  C   UNL     1      43.681 -10.289  10.260  1.00  0.00     0.325 C 
HETATM    9  N   UNL     1      43.477 -10.391   8.893  1.00  0.00    -0.305 N 
HETATM   10  O   UNL     1      44.704 -10.610  10.846  1.00  0.00    -0.247 OA
HETATM   11  H   UNL     1      42.748  -9.812   8.510  1.00  0.00     0.171 HD
HETATM   12  H   UNL     1      41.718  -9.722  10.318  1.00  0.00     0.170 HD
BRANCH   9  13
HETATM   13  C   UNL     1      44.354 -10.926   7.964  1.00  0.00     0.086 A 
HETATM   14  C   UNL     1      45.539 -10.294   7.634  1.00  0.00     0.052 A 
HETATM   15  C   UNL     1      46.176  -9.042   8.104  1.00  0.00     0.072 C 
HETATM   16  N   UNL     1      46.151 -11.103   6.719  1.00  0.00    -0.280 N 
HETATM   17  H   UNL     1      47.050 -10.972   6.268  1.00  0.00     0.189 HD
HETATM   18  N   UNL     1      45.445 -12.189   6.401  1.00  0.00    -0.177 NA
HETATM   19  C   UNL     1      44.336 -12.098   7.151  1.00  0.00     0.079 A 
HETATM   20  C   UNL     1      43.303 -13.153   7.001  1.00  0.00     0.075 C 
ENDBRANCH   9  13
ENDBRANCH   1   7
BRANCH   4  21
HETATM   21  C   UNL     1      41.621  -7.366  15.975  1.00  0.00     0.252 C 
HETATM   22  N   UNL     1      41.567  -5.986  15.958  1.00  0.00    -0.352 N 
HETATM   23  H   UNL     1      41.630  -5.529  15.059  1.00  0.00     0.163 HD
HETATM   24  O   UNL     1      41.319  -8.055  16.943  1.00  0.00    -0.268 OA
BRANCH  22  25
HETATM   25  C   UNL     1      40.991  -5.185  17.020  1.00  0.00     0.084 C 
HETATM   26  C   UNL     1      41.494  -3.743  17.046  1.00  0.00     0.025 C 
HETATM   27  C   UNL     1      40.462  -3.047  17.916  1.00  0.00     0.002 C 
HETATM   28  C   UNL     1      39.144  -3.645  17.445  1.00  0.00     0.002 C 
HETATM   29  C   UNL     1      39.461  -5.089  17.049  1.00  0.00     0.025 C 
ENDBRANCH  22  25
ENDBRANCH   4  21
TORSDOF 4
ENDMDL
MODEL 3
REMARK VINA RESULT:      -7.9      1.906      2.883
REMARK  4 active torsions:
REMARK  status: ('A' for Active; 'I' for Inactive)
REMARK    1  A    between atoms: C_8  and  N_9 
REMARK       I    between atoms: N_9  and  C_10 
REMARK       I    between atoms: C_10  and  N_11 
REMARK    2  A    between atoms: N_11  and  C_12 
REMARK    3  A    between atoms: C_15  and  C_16 
REMARK       I    between atoms: C_16  and  N_17 
REMARK    4  A    between atoms: N_17  and  C_18 
ROOT
HETATM    1  C   UNL     1      42.242  -9.554  12.068  1.00  0.00     0.036 A 
HETATM    2  C   UNL     1      43.067  -8.556  12.592  1.00  0.00     0.030 A 
HETATM    3  C   UNL     1      42.753  -7.934  13.807  1.00  0.00     0.019 A 
HETATM    4  C   UNL     1      41.593  -8.291  14.503  1.00  0.00     0.032 A 
HETATM    5  C   UNL     1      40.799  -9.332  14.012  1.00  0.00     0.019 A 
HETATM    6  C   UNL     1      41.122  -9.959  12.804  1.00  0.00     0.030 A 
ENDROOT
BRANCH   1   7
HETATM    7  N   UNL     1      42.428 -10.144  10.801  1.00  0.00    -0.309 N 
HETATM    8  C   UNL     1      43.630 -10.475  10.187  1.00  0.00     0.325 C 
HETATM    9  N   UNL     1      43.418 -10.713   8.838  1.00  0.00    -0.305 N 
HETATM   10  O   UNL     1      44.715 -10.505  10.747  1.00  0.00    -0.247 OA
HETATM   11  H   UNL     1      42.561 -10.350   8.453  1.00  0.00     0.171 HD
HETATM   12  H   UNL     1      41.590 -10.386  10.296  1.00  0.00     0.170 HD
BRANCH   9  13
HETATM   13  C   UNL     1      44.372 -11.086   7.906  1.00  0.00     0.086 A 
HETATM   14  C   UNL     1      44.243 -12.241   7.155  1.00  0.00     0.052 A 
HETATM   15  C   UNL     1      43.196 -13.288   7.093  1.00  0.00     0.072 C 
HETATM   16  N   UNL     1      45.336 -12.279   6.338  1.00  0.00    -0.280 N 
HETATM   17  H   UNL     1      45.569 -12.971   5.634  1.00  0.00     0.189 HD
HETATM   18  N   UNL     1      46.183 -11.264   6.520  1.00  0.00    -0.177 NA
HETATM   19  C   UNL     1      45.612 -10.522   7.482  1.00  0.00     0.079 A 
HETATM   20  C   UNL     1      46.335  -9.315   7.955  1.00  0.00     0.075 C 
ENDBRANCH   9  13
ENDBRANCH   1   7
BRANCH   4  21
HETATM   21  C   UNL     1      41.139  -7.570  15.729  1.00  0.00     0.252 C 
HETATM   22  N   UNL     1      40.437  -6.399  15.517  1.00  0.00    -0.352 N 
HETATM   23  H   UNL     1      40.151  -6.193  14.571  1.00  0.00     0.163 HD
HETATM   24  O   UNL     1      41.338  -8.064  16.834  1.00  0.00    -0.268 OA
BRANCH  22  25
HETATM   25  C   UNL     1      39.707  -5.696  16.552  1.00  0.00     0.084 C 
HETATM   26  C   UNL     1      40.528  -4.622  17.264  1.00  0.00     0.025 C 
HETATM   27  C   UNL     1      39.460  -3.785  17.947  1.00  0.00     0.002 C 
HETATM   28  C   UNL     1      38.367  -3.682  16.891  1.00  0.00     0.002 C 
HETATM   29  C   UNL     1      38.409  -5.003  16.120  1.00  0.00     0.025 C 
ENDBRANCH  22  25
ENDBRANCH   4  21
TORSDOF 4
ENDMDL
MODEL 4
REMARK VINA RESULT:      -7.9      4.346      7.707
REMARK  4 active torsions:
REMARK  status: ('A' for Active; 'I' for Inactive)
REMARK    1  A    between atoms: C_8  and  N_9 
REMARK       I    between atoms: N_9  and  C_10 
REMARK       I    between atoms: C_10  and  N_11 
REMARK    2  A    between atoms: N_11  and  C_12 
REMARK    3  A    between atoms: C_15  and  C_16 
REMARK       I    between atoms: C_16  and  N_17 
REMARK    4  A    between atoms: N_17  and  C_18 
ROOT
HETATM    1  C   UNL     1      43.301 -11.312   5.416  1.00  0.00     0.036 A 
HETATM    2  C   UNL     1      42.604 -10.308   6.092  1.00  0.00     0.030 A 
HETATM    3  C   UNL     1      42.978  -9.926   7.387  1.00  0.00     0.019 A 
HETATM    4  C   UNL     1      44.045 -10.562   8.030  1.00  0.00     0.032 A 
HETATM    5  C   UNL     1      44.783 -11.524   7.332  1.00  0.00     0.019 A 
HETATM    6  C   UNL     1      44.414 -11.895   6.035  1.00  0.00     0.030 A 
ENDROOT
BRANCH   1   7
HETATM    7  N   UNL     1      42.918 -11.830   4.163  1.00  0.00    -0.309 N 
HETATM    8  C   UNL     1      41.879 -12.713   3.891  1.00  0.00     0.325 C 
HETATM    9  N   UNL     1      42.031 -13.242   2.620  1.00  0.00    -0.305 N 
HETATM   10  O   UNL     1      40.991 -13.009   4.677  1.00  0.00    -0.247 OA
HETATM   11  H   UNL     1      42.950 -13.164   2.215  1.00  0.00     0.171 HD
HETATM   12  H   UNL     1      43.435 -11.496   3.365  1.00  0.00     0.170 HD
BRANCH   9  13
HETATM   13  C   UNL     1      41.184 -14.140   1.991  1.00  0.00     0.086 A 
HETATM   14  C   UNL     1      40.466 -13.793   0.861  1.00  0.00     0.052 A 
HETATM   15  C   UNL     1      40.392 -12.550   0.059  1.00  0.00     0.072 C 
HETATM   16  N   UNL     1      39.767 -14.911   0.506  1.00  0.00    -0.280 N 
HETATM   17  H   UNL     1      39.147 -15.038  -0.288  1.00  0.00     0.189 HD
HETATM   18  N   UNL     1      39.942 -15.943   1.333  1.00  0.00    -0.177 NA
HETATM   19  C   UNL     1      40.806 -15.490   2.255  1.00  0.00     0.079 A 
HETATM   20  C   UNL     1      41.185 -16.400   3.364  1.00  0.00     0.075 C 
ENDBRANCH   9  13
ENDBRANCH   1   7
BRANCH   4  21
HETATM   21  C   UNL     1      44.401 -10.291   9.454  1.00  0.00     0.252 C 
HETATM   22  N   UNL     1      43.540  -9.461  10.145  1.00  0.00    -0.352 N 
HETATM   23  H   UNL     1      42.665  -9.223   9.699  1.00  0.00     0.163 HD
HETATM   24  O   UNL     1      45.370 -10.850   9.956  1.00  0.00    -0.268 OA
BRANCH  22  25
HETATM   25  C   UNL     1      43.572  -9.278  11.582  1.00  0.00     0.084 C 
HETATM   26  C   UNL     1      43.209  -7.863  12.031  1.00  0.00     0.025 C 
HETATM   27  C   UNL     1      42.900  -8.052  13.506  1.00  0.00     0.002 C 
HETATM   28  C   UNL     1      42.108  -9.352  13.536  1.00  0.00     0.002 C 
HETATM   29  C   UNL     1      42.682 -10.214  12.409  1.00  0.00     0.025 C 
ENDBRANCH  22  25
ENDBRANCH   4  21
TORSDOF 4
ENDMDL
MODEL 5
REMARK VINA RESULT:      -7.8      3.703      7.203
REMARK  4 active torsions:
REMARK  status: ('A' for Active; 'I' for Inactive)
REMARK    1  A    between atoms: C_8  and  N_9 
REMARK       I    between atoms: N_9  and  C_10 
REMARK       I    between atoms: C_10  and  N_11 
REMARK    2  A    between atoms: N_11  and  C_12 
REMARK    3  A    between atoms: C_15  and  C_16 
REMARK       I    between atoms: C_16  and  N_17 
REMARK    4  A    between atoms: N_17  and  C_18 
ROOT
HETATM    1  C   UNL     1      43.600 -11.714   6.032  1.00  0.00     0.036 A 
HETATM    2  C   UNL     1      42.675 -10.804   6.547  1.00  0.00     0.030 A 
HETATM    3  C   UNL     1      42.943 -10.104   7.730  1.00  0.00     0.019 A 
HETATM    4  C   UNL     1      44.136 -10.325   8.426  1.00  0.00     0.032 A 
HETATM    5  C   UNL     1      45.091 -11.190   7.880  1.00  0.00     0.019 A 
HETATM    6  C   UNL     1      44.824 -11.878   6.692  1.00  0.00     0.030 A 
ENDROOT
BRANCH   1   7
HETATM    7  N   UNL     1      43.357 -12.538   4.914  1.00  0.00    -0.309 N 
HETATM    8  C   UNL     1      42.979 -13.876   4.912  1.00  0.00     0.325 C 
HETATM    9  N   UNL     1      43.167 -14.415   3.650  1.00  0.00    -0.305 N 
HETATM   10  O   UNL     1      42.585 -14.492   5.891  1.00  0.00    -0.247 OA
HETATM   11  H   UNL     1      43.783 -13.905   3.037  1.00  0.00     0.171 HD
HETATM   12  H   UNL     1      43.432 -12.097   4.011  1.00  0.00     0.170 HD
BRANCH   9  13
HETATM   13  C   UNL     1      42.886 -15.713   3.255  1.00  0.00     0.086 A 
HETATM   14  C   UNL     1      41.988 -15.986   2.239  1.00  0.00     0.052 A 
HETATM   15  C   UNL     1      41.171 -15.117   1.359  1.00  0.00     0.072 C 
HETATM   16  N   UNL     1      41.975 -17.344   2.107  1.00  0.00    -0.280 N 
HETATM   17  H   UNL     1      41.449 -17.906   1.446  1.00  0.00     0.189 HD
HETATM   18  N   UNL     1      42.764 -17.979   2.977  1.00  0.00    -0.177 NA
HETATM   19  C   UNL     1      43.329 -16.996   3.694  1.00  0.00     0.079 A 
HETATM   20  C   UNL     1      44.249 -17.375   4.795  1.00  0.00     0.075 C 
ENDBRANCH   9  13
ENDBRANCH   1   7
BRANCH   4  21
HETATM   21  C   UNL     1      44.415  -9.711   9.757  1.00  0.00     0.252 C 
HETATM   22  N   UNL     1      43.320  -9.523  10.578  1.00  0.00    -0.352 N 
HETATM   23  H   UNL     1      42.447  -9.944  10.293  1.00  0.00     0.163 HD
HETATM   24  O   UNL     1      45.572  -9.472  10.087  1.00  0.00    -0.268 OA
BRANCH  22  25
HETATM   25  C   UNL     1      43.411  -9.177  11.982  1.00  0.00     0.084 C 
HETATM   26  C   UNL     1      43.104  -7.710  12.277  1.00  0.00     0.025 C 
HETATM   27  C   UNL     1      42.846  -7.719  13.774  1.00  0.00     0.002 C 
HETATM   28  C   UNL     1      42.020  -8.981  13.980  1.00  0.00     0.002 C 
HETATM   29  C   UNL     1      42.528  -9.984  12.942  1.00  0.00     0.025 C 
ENDBRANCH  22  25
ENDBRANCH   4  21
TORSDOF 4
ENDMDL
MODEL 6
REMARK VINA RESULT:      -7.7      4.883      8.327
REMARK  4 active torsions:
REMARK  status: ('A' for Active; 'I' for Inactive)
REMARK    1  A    between atoms: C_8  and  N_9 
REMARK       I    between atoms: N_9  and  C_10 
REMARK       I    between atoms: C_10  and  N_11 
REMARK    2  A    between atoms: N_11  and  C_12 
REMARK    3  A    between atoms: C_15  and  C_16 
REMARK       I    between atoms: C_16  and  N_17 
REMARK    4  A    between atoms: N_17  and  C_18 
ROOT
HETATM    1  C   UNL     1      43.081 -11.905   5.073  1.00  0.00     0.036 A 
HETATM    2  C   UNL     1      43.782 -12.773   5.912  1.00  0.00     0.030 A 
HETATM    3  C   UNL     1      44.095 -12.400   7.226  1.00  0.00     0.019 A 
HETATM    4  C   UNL     1      43.726 -11.141   7.708  1.00  0.00     0.032 A 
HETATM    5  C   UNL     1      42.970 -10.294   6.891  1.00  0.00     0.019 A 
HETATM    6  C   UNL     1      42.649 -10.675   5.584  1.00  0.00     0.030 A 
ENDROOT
BRANCH   1   7
HETATM    7  N   UNL     1      42.829 -12.160   3.710  1.00  0.00    -0.309 N 
HETATM    8  C   UNL     1      41.660 -12.650   3.139  1.00  0.00     0.325 C 
HETATM    9  N   UNL     1      41.912 -13.078   1.846  1.00  0.00    -0.305 N 
HETATM   10  O   UNL     1      40.585 -12.732   3.712  1.00  0.00    -0.247 OA
HETATM   11  H   UNL     1      42.878 -13.248   1.615  1.00  0.00     0.171 HD
HETATM   12  H   UNL     1      43.571 -11.927   3.069  1.00  0.00     0.170 HD
BRANCH   9  13
HETATM   13  C   UNL     1      40.991 -13.608   0.956  1.00  0.00     0.086 A 
HETATM   14  C   UNL     1      40.605 -14.935   1.015  1.00  0.00     0.052 A 
HETATM   15  C   UNL     1      40.972 -16.051   1.918  1.00  0.00     0.072 C 
HETATM   16  N   UNL     1      39.685 -15.100   0.020  1.00  0.00    -0.280 N 
HETATM   17  H   UNL     1      39.168 -15.938  -0.225  1.00  0.00     0.189 HD
HETATM   18  N   UNL     1      39.469 -13.999  -0.704  1.00  0.00    -0.177 NA
HETATM   19  C   UNL     1      40.265 -13.072  -0.148  1.00  0.00     0.079 A 
HETATM   20  C   UNL     1      40.290 -11.719  -0.755  1.00  0.00     0.075 C 
ENDBRANCH   9  13
ENDBRANCH   1   7
BRANCH   4  21
HETATM   21  C   UNL     1      44.148 -10.639   9.049  1.00  0.00     0.252 C 
HETATM   22  N   UNL     1      43.147 -10.110   9.840  1.00  0.00    -0.352 N 
HETATM   23  H   UNL     1      42.193 -10.235   9.529  1.00  0.00     0.163 HD
HETATM   24  O   UNL     1      45.312 -10.775   9.411  1.00  0.00    -0.268 OA
BRANCH  22  25
HETATM   25  C   UNL     1      43.303  -9.803  11.247  1.00  0.00     0.084 C 
HETATM   26  C   UNL     1      43.553  -8.323  11.532  1.00  0.00     0.025 C 
HETATM   27  C   UNL     1      43.250  -8.214  13.016  1.00  0.00     0.002 C 
HETATM   28  C   UNL     1      42.007  -9.077  13.185  1.00  0.00     0.002 C 
HETATM   29  C   UNL     1      42.146 -10.211  12.167  1.00  0.00     0.025 C 
ENDBRANCH  22  25
ENDBRANCH   4  21
TORSDOF 4
ENDMDL
MODEL 7
REMARK VINA RESULT:      -7.6      7.015     11.423
REMARK  4 active torsions:
REMARK  status: ('A' for Active; 'I' for Inactive)
REMARK    1  A    between atoms: C_8  and  N_9 
REMARK       I    between atoms: N_9  and  C_10 
REMARK       I    between atoms: C_10  and  N_11 
REMARK    2  A    between atoms: N_11  and  C_12 
REMARK    3  A    between atoms: C_15  and  C_16 
REMARK       I    between atoms: C_16  and  N_17 
REMARK    4  A    between atoms: N_17  and  C_18 
ROOT
HETATM    1  C   UNL     1      40.868 -14.023   3.226  1.00  0.00     0.036 A 
HETATM    2  C   UNL     1      41.972 -14.845   3.466  1.00  0.00     0.030 A 
HETATM    3  C   UNL     1      42.784 -14.640   4.589  1.00  0.00     0.019 A 
HETATM    4  C   UNL     1      42.513 -13.593   5.475  1.00  0.00     0.032 A 
HETATM    5  C   UNL     1      41.373 -12.807   5.271  1.00  0.00     0.019 A 
HETATM    6  C   UNL     1      40.558 -13.022   4.155  1.00  0.00     0.030 A 
ENDROOT
BRANCH   1   7
HETATM    7  N   UNL     1      40.073 -14.092   2.064  1.00  0.00    -0.309 N 
HETATM    8  C   UNL     1      40.243 -13.389   0.877  1.00  0.00     0.325 C 
HETATM    9  N   UNL     1      39.089 -13.470   0.114  1.00  0.00    -0.305 N 
HETATM   10  O   UNL     1      41.245 -12.758   0.576  1.00  0.00    -0.247 OA
HETATM   11  H   UNL     1      38.251 -13.740   0.605  1.00  0.00     0.171 HD
HETATM   12  H   UNL     1      39.313 -14.753   2.083  1.00  0.00     0.170 HD
BRANCH   9  13
HETATM   13  C   UNL     1      38.885 -12.914  -1.138  1.00  0.00     0.086 A 
HETATM   14  C   UNL     1      38.794 -13.696  -2.275  1.00  0.00     0.052 A 
HETATM   15  C   UNL     1      38.854 -15.160  -2.497  1.00  0.00     0.072 C 
HETATM   16  N   UNL     1      38.574 -12.830  -3.307  1.00  0.00    -0.280 N 
HETATM   17  H   UNL     1      38.435 -13.045  -4.289  1.00  0.00     0.189 HD
HETATM   18  N   UNL     1      38.551 -11.547  -2.940  1.00  0.00    -0.177 NA
HETATM   19  C   UNL     1      38.744 -11.576  -1.612  1.00  0.00     0.079 A 
HETATM   20  C   UNL     1      38.813 -10.283  -0.888  1.00  0.00     0.075 C 
ENDBRANCH   9  13
ENDBRANCH   1   7
BRANCH   4  21
HETATM   21  C   UNL     1      43.419 -13.245   6.609  1.00  0.00     0.252 C 
HETATM   22  N   UNL     1      44.040 -12.014   6.531  1.00  0.00    -0.352 N 
HETATM   23  H   UNL     1      43.729 -11.381   5.808  1.00  0.00     0.163 HD
HETATM   24  O   UNL     1      43.518 -14.007   7.565  1.00  0.00    -0.268 OA
BRANCH  22  25
HETATM   25  C   UNL     1      44.750 -11.394   7.632  1.00  0.00     0.084 C 
HETATM   26  C   UNL     1      45.903 -10.492   7.192  1.00  0.00     0.025 C 
HETATM   27  C   UNL     1      46.174  -9.668   8.438  1.00  0.00     0.002 C 
HETATM   28  C   UNL     1      44.779  -9.341   8.953  1.00  0.00     0.002 C 
HETATM   29  C   UNL     1      43.910 -10.549   8.596  1.00  0.00     0.025 C 
ENDBRANCH  22  25
ENDBRANCH   4  21
TORSDOF 4
ENDMDL
MODEL 8
REMARK VINA RESULT:      -7.6      5.597     12.136
REMARK  4 active torsions:
REMARK  status: ('A' for Active; 'I' for Inactive)
REMARK    1  A    between atoms: C_8  and  N_9 
REMARK       I    between atoms: N_9  and  C_10 
REMARK       I    between atoms: C_10  and  N_11 
REMARK    2  A    between atoms: N_11  and  C_12 
REMARK    3  A    between atoms: C_15  and  C_16 
REMARK       I    between atoms: C_16  and  N_17 
REMARK    4  A    between atoms: N_17  and  C_18 
ROOT
HETATM    1  C   UNL     1      42.071 -12.790   5.609  1.00  0.00     0.036 A 
HETATM    2  C   UNL     1      42.387 -12.641   4.257  1.00  0.00     0.030 A 
HETATM    3  C   UNL     1      42.778 -13.745   3.489  1.00  0.00     0.019 A 
HETATM    4  C   UNL     1      42.879 -15.011   4.074  1.00  0.00     0.032 A 
HETATM    5  C   UNL     1      42.505 -15.174   5.412  1.00  0.00     0.019 A 
HETATM    6  C   UNL     1      42.103 -14.071   6.173  1.00  0.00     0.030 A 
ENDROOT
BRANCH   1   7
HETATM    7  N   UNL     1      41.781 -11.714   6.473  1.00  0.00    -0.309 N 
HETATM    8  C   UNL     1      42.684 -10.883   7.126  1.00  0.00     0.325 C 
HETATM    9  N   UNL     1      42.036 -10.182   8.130  1.00  0.00    -0.305 N 
HETATM   10  O   UNL     1      43.878 -10.819   6.879  1.00  0.00    -0.247 OA
HETATM   11  H   UNL     1      41.149 -10.555   8.431  1.00  0.00     0.171 HD
HETATM   12  H   UNL     1      40.805 -11.500   6.606  1.00  0.00     0.170 HD
BRANCH   9  13
HETATM   13  C   UNL     1      42.600  -9.246   8.981  1.00  0.00     0.086 A 
HETATM   14  C   UNL     1      42.658  -7.904   8.651  1.00  0.00     0.052 A 
HETATM   15  C   UNL     1      42.191  -7.137   7.471  1.00  0.00     0.072 C 
HETATM   16  N   UNL     1      43.248  -7.283   9.714  1.00  0.00    -0.280 N 
HETATM   17  H   UNL     1      43.438  -6.294   9.837  1.00  0.00     0.189 HD
HETATM   18  N   UNL     1      43.611  -8.115  10.692  1.00  0.00    -0.177 NA
HETATM   19  C   UNL     1      43.226  -9.326  10.260  1.00  0.00     0.079 A 
HETATM   20  C   UNL     1      43.526 -10.500  11.116  1.00  0.00     0.075 C 
ENDBRANCH   9  13
ENDBRANCH   1   7
BRANCH   4  21
HETATM   21  C   UNL     1      43.419 -16.194   3.341  1.00  0.00     0.252 C 
HETATM   22  N   UNL     1      43.872 -17.237   4.126  1.00  0.00    -0.352 N 
HETATM   23  H   UNL     1      43.671 -17.196   5.115  1.00  0.00     0.163 HD
HETATM   24  O   UNL     1      43.375 -16.223   2.116  1.00  0.00    -0.268 OA
BRANCH  22  25
HETATM   25  C   UNL     1      44.197 -18.553   3.614  1.00  0.00     0.084 C 
HETATM   26  C   UNL     1      43.935 -19.683   4.609  1.00  0.00     0.025 C 
HETATM   27  C   UNL     1      43.933 -20.915   3.720  1.00  0.00     0.002 C 
HETATM   28  C   UNL     1      43.162 -20.458   2.490  1.00  0.00     0.002 C 
HETATM   29  C   UNL     1      43.493 -18.974   2.318  1.00  0.00     0.025 C 
ENDBRANCH  22  25
ENDBRANCH   4  21
TORSDOF 4
ENDMDL
MODEL 9
REMARK VINA RESULT:      -7.5     11.368     15.744
REMARK  4 active torsions:
REMARK  status: ('A' for Active; 'I' for Inactive)
REMARK    1  A    between atoms: C_8  and  N_9 
REMARK       I    between atoms: N_9  and  C_10 
REMARK       I    between atoms: C_10  and  N_11 
REMARK    2  A    between atoms: N_11  and  C_12 
REMARK    3  A    between atoms: C_15  and  C_16 
REMARK       I    between atoms: C_16  and  N_17 
REMARK    4  A    between atoms: N_17  and  C_18 
ROOT
HETATM    1  C   UNL     1      40.004 -14.396   0.632  1.00  0.00     0.036 A 
HETATM    2  C   UNL     1      39.755 -14.936  -0.631  1.00  0.00     0.030 A 
HETATM    3  C   UNL     1      39.216 -14.144  -1.653  1.00  0.00     0.019 A 
HETATM    4  C   UNL     1      38.901 -12.802  -1.414  1.00  0.00     0.032 A 
HETATM    5  C   UNL     1      39.207 -12.243  -0.169  1.00  0.00     0.019 A 
HETATM    6  C   UNL     1      39.755 -13.034   0.845  1.00  0.00     0.030 A 
ENDROOT
BRANCH   1   7
HETATM    7  N   UNL     1      40.435 -15.152   1.741  1.00  0.00    -0.309 N 
HETATM    8  C   UNL     1      41.731 -15.554   2.042  1.00  0.00     0.325 C 
HETATM    9  N   UNL     1      41.703 -16.549   3.007  1.00  0.00    -0.305 N 
HETATM   10  O   UNL     1      42.739 -15.125   1.501  1.00  0.00    -0.247 OA
HETATM   11  H   UNL     1      40.822 -17.022   3.129  1.00  0.00     0.171 HD
HETATM   12  H   UNL     1      39.727 -15.402   2.413  1.00  0.00     0.170 HD
BRANCH   9  13
HETATM   13  C   UNL     1      42.797 -17.182   3.573  1.00  0.00     0.086 A 
HETATM   14  C   UNL     1      43.461 -16.651   4.663  1.00  0.00     0.052 A 
HETATM   15  C   UNL     1      43.246 -15.430   5.475  1.00  0.00     0.072 C 
HETATM   16  N   UNL     1      44.456 -17.537   4.962  1.00  0.00    -0.280 N 
HETATM   17  H   UNL     1      45.134 -17.489   5.716  1.00  0.00     0.189 HD
HETATM   18  N   UNL     1      44.516 -18.582   4.134  1.00  0.00    -0.177 NA
HETATM   19  C   UNL     1      43.508 -18.381   3.270  1.00  0.00     0.079 A 
HETATM   20  C   UNL     1      43.321 -19.364   2.175  1.00  0.00     0.075 C 
ENDBRANCH   9  13
ENDBRANCH   1   7
BRANCH   4  21
HETATM   21  C   UNL     1      38.203 -11.950  -2.421  1.00  0.00     0.252 C 
HETATM   22  N   UNL     1      36.846 -12.169  -2.563  1.00  0.00    -0.352 N 
HETATM   23  H   UNL     1      36.398 -12.768  -1.884  1.00  0.00     0.163 HD
HETATM   24  O   UNL     1      38.824 -11.072  -3.011  1.00  0.00    -0.268 OA
BRANCH  22  25
HETATM   25  C   UNL     1      35.957 -11.290  -3.295  1.00  0.00     0.084 C 
HETATM   26  C   UNL     1      34.752 -12.004  -3.907  1.00  0.00     0.025 C 
HETATM   27  C   UNL     1      33.807 -10.855  -4.215  1.00  0.00     0.002 C 
HETATM   28  C   UNL     1      33.932  -9.960  -2.989  1.00  0.00     0.002 C 
HETATM   29  C   UNL     1      35.381 -10.101  -2.517  1.00  0.00     0.025 C 
ENDBRANCH  22  25
ENDBRANCH   4  21
TORSDOF 4
ENDMDL
MODEL 10
REMARK VINA RESULT:      -7.4     12.872     14.990
REMARK  4 active torsions:
REMARK  status: ('A' for Active; 'I' for Inactive)
REMARK    1  A    between atoms: C_8  and  N_9 
REMARK       I    between atoms: N_9  and  C_10 
REMARK       I    between atoms: C_10  and  N_11 
REMARK    2  A    between atoms: N_11  and  C_12 
REMARK    3  A    between atoms: C_15  and  C_16 
REMARK       I    between atoms: C_16  and  N_17 
REMARK    4  A    between atoms: N_17  and  C_18 
ROOT
HETATM    1  C   UNL     1      40.744 -13.497   0.757  1.00  0.00     0.036 A 
HETATM    2  C   UNL     1      41.887 -13.068   1.435  1.00  0.00     0.030 A 
HETATM    3  C   UNL     1      42.673 -13.977   2.155  1.00  0.00     0.019 A 
HETATM    4  C   UNL     1      42.310 -15.325   2.224  1.00  0.00     0.032 A 
HETATM    5  C   UNL     1      41.201 -15.768   1.496  1.00  0.00     0.019 A 
HETATM    6  C   UNL     1      40.425 -14.861   0.767  1.00  0.00     0.030 A 
ENDROOT
BRANCH   1   7
HETATM    7  N   UNL     1      39.842 -12.630   0.108  1.00  0.00    -0.309 N 
HETATM    8  C   UNL     1      39.849 -12.243  -1.227  1.00  0.00     0.325 C 
HETATM    9  N   UNL     1      39.027 -11.140  -1.400  1.00  0.00    -0.305 N 
HETATM   10  O   UNL     1      40.516 -12.770  -2.104  1.00  0.00    -0.247 OA
HETATM   11  H   UNL     1      38.798 -10.623  -0.567  1.00  0.00     0.171 HD
HETATM   12  H   UNL     1      39.083 -12.276   0.668  1.00  0.00     0.170 HD
BRANCH   9  13
HETATM   13  C   UNL     1      38.766 -10.484  -2.592  1.00  0.00     0.086 A 
HETATM   14  C   UNL     1      37.517 -10.522  -3.184  1.00  0.00     0.052 A 
HETATM   15  C   UNL     1      36.238 -11.161  -2.794  1.00  0.00     0.072 C 
HETATM   16  N   UNL     1      37.615  -9.761  -4.313  1.00  0.00    -0.280 N 
HETATM   17  H   UNL     1      36.890  -9.543  -4.989  1.00  0.00     0.189 HD
HETATM   18  N   UNL     1      38.834  -9.260  -4.522  1.00  0.00    -0.177 NA
HETATM   19  C   UNL     1      39.558  -9.695  -3.479  1.00  0.00     0.079 A 
HETATM   20  C   UNL     1      40.997  -9.339  -3.429  1.00  0.00     0.075 C 
ENDBRANCH   9  13
ENDBRANCH   1   7
BRANCH   4  21
HETATM   21  C   UNL     1      43.032 -16.309   3.084  1.00  0.00     0.252 C 
HETATM   22  N   UNL     1      43.046 -17.614   2.629  1.00  0.00    -0.352 N 
HETATM   23  H   UNL     1      42.710 -17.783   1.692  1.00  0.00     0.163 HD
HETATM   24  O   UNL     1      43.621 -15.923   4.087  1.00  0.00    -0.268 OA
BRANCH  22  25
HETATM   25  C   UNL     1      43.890 -18.654   3.181  1.00  0.00     0.084 C 
HETATM   26  C   UNL     1      43.701 -18.870   4.682  1.00  0.00     0.025 C 
HETATM   27  C   UNL     1      44.335 -20.231   4.905  1.00  0.00     0.002 C 
HETATM   28  C   UNL     1      43.863 -21.039   3.704  1.00  0.00     0.002 C 
HETATM   29  C   UNL     1      43.764 -20.044   2.546  1.00  0.00     0.025 C 
ENDBRANCH  22  25
ENDBRANCH   4  21
TORSDOF 4
ENDMDL
