MODEL 1
REMARK VINA RESULT:     -10.1      0.000      0.000
REMARK  9 active torsions:
REMARK  status: ('A' for Active; 'I' for Inactive)
REMARK    1  A    between atoms: C_2  and  O_3 
REMARK    2  A    between atoms: O_3  and  C_4 
REMARK    3  A    between atoms: C_4  and  C_5 
REMARK    4  A    between atoms: C_8  and  N_9 
REMARK       I    between atoms: N_9  and  C_10 
REMARK    5  A    between atoms: C_10  and  C_11 
REMARK    6  A    between atoms: C_13  and  N_14 
REMARK    7  A    between atoms: N_17  and  C_19 
REMARK    8  A    between atoms: C_19  and  C_20 
REMARK    9  A    between atoms: C_19  and  C_26 
ROOT
HETATM    1  C   UNL     1      38.651 -12.074   3.532  1.00  0.00     0.200 C 
HETATM    2  N   UNL     1      38.994 -13.267   2.773  1.00  0.00    -0.211 N 
HETATM    3  C   UNL     1      39.949 -13.194   1.815  1.00  0.00     0.702 C 
HETATM    4  N   UNL     1      40.455 -12.110   1.338  1.00  0.00    -0.028 NA
HETATM    5  C   UNL     1      40.053 -10.916   1.890  1.00  0.00     0.263 C 
HETATM    6  O   UNL     1      40.701  -9.885   1.733  1.00  0.00    -0.271 OA
HETATM    7  C   UNL     1      38.731 -10.873   2.614  1.00  0.00     0.141 C 
HETATM    8  H   UNL     1      38.943 -14.136   3.291  1.00  0.00     0.178 HD
ENDROOT
BRANCH   3   9
HETATM    9  N   UNL     1      40.290 -14.434   1.330  1.00  0.00    -0.213 N 
HETATM   10  C   UNL     1      39.853 -15.603   2.129  1.00  0.00     0.169 C 
HETATM   11  C   UNL     1      40.860 -15.921   3.256  1.00  0.00     0.256 C 
HETATM   12  N   UNL     1      42.240 -16.170   2.644  1.00  0.00    -0.056 N 
HETATM   13  H   UNL     1      42.144 -16.876   1.910  1.00  0.00     0.281 HD
HETATM   14  C   UNL     1      42.690 -14.901   1.916  1.00  0.00     0.256 C 
HETATM   15  C   UNL     1      41.670 -14.574   0.803  1.00  0.00     0.169 C 
BRANCH  12  16
HETATM   16  C   UNL     1      43.293 -16.734   3.595  1.00  0.00     0.254 C 
BRANCH  16  17
HETATM   17  C   UNL     1      43.149 -16.244   5.031  1.00  0.00    -0.023 A 
HETATM   18  C   UNL     1      42.177 -16.772   5.900  1.00  0.00     0.009 A 
HETATM   19  C   UNL     1      42.059 -16.299   7.207  1.00  0.00     0.001 A 
HETATM   20  C   UNL     1      42.909 -15.296   7.667  1.00  0.00     0.000 A 
HETATM   21  C   UNL     1      43.880 -14.765   6.823  1.00  0.00     0.001 A 
HETATM   22  C   UNL     1      44.001 -15.234   5.514  1.00  0.00     0.009 A 
ENDBRANCH  16  17
BRANCH  16  23
HETATM   23  C   UNL     1      43.530 -18.247   3.465  1.00  0.00    -0.023 A 
HETATM   24  C   UNL     1      44.090 -19.051   4.476  1.00  0.00     0.009 A 
HETATM   25  C   UNL     1      44.241 -20.431   4.296  1.00  0.00     0.001 A 
HETATM   26  C   UNL     1      43.841 -21.034   3.109  1.00  0.00     0.000 A 
HETATM   27  C   UNL     1      43.284 -20.263   2.096  1.00  0.00     0.001 A 
HETATM   28  C   UNL     1      43.125 -18.887   2.274  1.00  0.00     0.009 A 
ENDBRANCH  16  23
ENDBRANCH  12  16
ENDBRANCH   3   9
BRANCH   1  29
HETATM   29  C   UNL     1      39.558 -11.910   4.774  1.00  0.00     0.246 C 
HETATM   30  N   UNL     1      40.773 -11.316   4.462  1.00  0.00    -0.325 N 
HETATM   31  H   UNL     1      40.900 -10.984   3.511  1.00  0.00     0.169 HD
HETATM   32  O   UNL     1      39.181 -12.261   5.890  1.00  0.00    -0.271 OA
BRANCH  30  33
HETATM   33  C   UNL     1      41.885 -11.114   5.304  1.00  0.00     0.034 A 
HETATM   34  C   UNL     1      41.821 -10.530   6.568  1.00  0.00     0.030 A 
HETATM   35  C   UNL     1      42.974 -10.431   7.361  1.00  0.00     0.020 A 
HETATM   36  C   UNL     1      44.204 -10.916   6.901  1.00  0.00     0.039 A 
HETATM   37  C   UNL     1      44.276 -11.477   5.622  1.00  0.00     0.020 A 
HETATM   38  C   UNL     1      43.125 -11.574   4.833  1.00  0.00     0.030 A 
BRANCH  36  39
HETATM   39  C   UNL     1      45.383 -10.842   7.806  1.00  0.00     0.293 C 
HETATM   40  O   UNL     1      46.531 -10.738   7.405  1.00  0.00    -0.259 OA
BRANCH  39  41
HETATM   41  O   UNL     1      44.985 -10.862   9.102  1.00  0.00    -0.318 OA
BRANCH  41  42
HETATM   42  C   UNL     1      45.352  -9.721   9.892  1.00  0.00     0.174 C 
HETATM   43  C   UNL     1      44.276  -9.418  10.917  1.00  0.00     0.034 C 
ENDBRANCH  41  42
ENDBRANCH  39  41
ENDBRANCH  36  39
ENDBRANCH  30  33
ENDBRANCH   1  29
TORSDOF 9
ENDMDL
MODEL 2
REMARK VINA RESULT:      -9.8      2.680      6.770
REMARK  9 active torsions:
REMARK  status: ('A' for Active; 'I' for Inactive)
REMARK    1  A    between atoms: C_2  and  O_3 
REMARK    2  A    between atoms: O_3  and  C_4 
REMARK    3  A    between atoms: C_4  and  C_5 
REMARK    4  A    between atoms: C_8  and  N_9 
REMARK       I    between atoms: N_9  and  C_10 
REMARK    5  A    between atoms: C_10  and  C_11 
REMARK    6  A    between atoms: C_13  and  N_14 
REMARK    7  A    between atoms: N_17  and  C_19 
REMARK    8  A    between atoms: C_19  and  C_20 
REMARK    9  A    between atoms: C_19  and  C_26 
ROOT
HETATM    1  C   UNL     1      39.779 -12.078  -0.538  1.00  0.00     0.200 C 
HETATM    2  N   UNL     1      40.619 -11.179   0.238  1.00  0.00    -0.211 N 
HETATM    3  C   UNL     1      40.181 -10.733   1.440  1.00  0.00     0.702 C 
HETATM    4  N   UNL     1      38.981 -10.846   1.893  1.00  0.00    -0.028 NA
HETATM    5  C   UNL     1      38.070 -11.543   1.134  1.00  0.00     0.263 C 
HETATM    6  O   UNL     1      37.027 -11.973   1.616  1.00  0.00    -0.271 OA
HETATM    7  C   UNL     1      38.331 -11.682  -0.345  1.00  0.00     0.141 C 
HETATM    8  H   UNL     1      41.615 -11.341   0.155  1.00  0.00     0.178 HD
ENDROOT
BRANCH   3   9
HETATM    9  N   UNL     1      41.161 -10.056   2.128  1.00  0.00    -0.213 N 
HETATM   10  C   UNL     1      42.473 -10.734   2.253  1.00  0.00     0.169 C 
HETATM   11  C   UNL     1      42.492 -11.703   3.456  1.00  0.00     0.256 C 
HETATM   12  N   UNL     1      42.159 -10.928   4.733  1.00  0.00    -0.056 N 
HETATM   13  H   UNL     1      42.785 -10.120   4.792  1.00  0.00     0.281 HD
HETATM   14  C   UNL     1      40.756 -10.331   4.593  1.00  0.00     0.256 C 
HETATM   15  C   UNL     1      40.735  -9.379   3.377  1.00  0.00     0.169 C 
BRANCH  12  16
HETATM   16  C   UNL     1      42.373 -11.685   6.041  1.00  0.00     0.254 C 
BRANCH  16  17
HETATM   17  C   UNL     1      42.129 -13.185   5.929  1.00  0.00    -0.023 A 
HETATM   18  C   UNL     1      43.185 -14.097   5.753  1.00  0.00     0.009 A 
HETATM   19  C   UNL     1      42.934 -15.465   5.643  1.00  0.00     0.001 A 
HETATM   20  C   UNL     1      41.627 -15.943   5.709  1.00  0.00     0.000 A 
HETATM   21  C   UNL     1      40.570 -15.056   5.887  1.00  0.00     0.001 A 
HETATM   22  C   UNL     1      40.816 -13.687   5.996  1.00  0.00     0.009 A 
ENDBRANCH  16  17
BRANCH  16  23
HETATM   23  C   UNL     1      43.658 -11.310   6.796  1.00  0.00    -0.023 A 
HETATM   24  C   UNL     1      44.950 -11.367   6.241  1.00  0.00     0.009 A 
HETATM   25  C   UNL     1      46.071 -10.974   6.982  1.00  0.00     0.001 A 
HETATM   26  C   UNL     1      45.926 -10.520   8.288  1.00  0.00     0.000 A 
HETATM   27  C   UNL     1      44.661 -10.452   8.860  1.00  0.00     0.001 A 
HETATM   28  C   UNL     1      43.540 -10.837   8.121  1.00  0.00     0.009 A 
ENDBRANCH  16  23
ENDBRANCH  12  16
ENDBRANCH   3   9
BRANCH   1  29
HETATM   29  C   UNL     1      40.026 -13.558  -0.158  1.00  0.00     0.246 C 
HETATM   30  N   UNL     1      40.916 -13.685   0.899  1.00  0.00    -0.325 N 
HETATM   31  H   UNL     1      41.230 -12.833   1.351  1.00  0.00     0.169 HD
HETATM   32  O   UNL     1      39.451 -14.472  -0.745  1.00  0.00    -0.271 OA
BRANCH  30  33
HETATM   33  C   UNL     1      41.465 -14.868   1.437  1.00  0.00     0.034 A 
HETATM   34  C   UNL     1      40.712 -15.945   1.902  1.00  0.00     0.030 A 
HETATM   35  C   UNL     1      41.349 -17.108   2.360  1.00  0.00     0.020 A 
HETATM   36  C   UNL     1      42.746 -17.208   2.357  1.00  0.00     0.039 A 
HETATM   37  C   UNL     1      43.503 -16.118   1.916  1.00  0.00     0.020 A 
HETATM   38  C   UNL     1      42.865 -14.959   1.461  1.00  0.00     0.030 A 
BRANCH  36  39
HETATM   39  C   UNL     1      43.370 -18.486   2.796  1.00  0.00     0.293 C 
HETATM   40  O   UNL     1      43.239 -19.538   2.193  1.00  0.00    -0.259 OA
BRANCH  39  41
HETATM   41  O   UNL     1      44.117 -18.288   3.910  1.00  0.00    -0.318 OA
BRANCH  41  42
HETATM   42  C   UNL     1      44.278 -19.424   4.772  1.00  0.00     0.174 C 
HETATM   43  C   UNL     1      43.549 -19.202   6.083  1.00  0.00     0.034 C 
ENDBRANCH  41  42
ENDBRANCH  39  41
ENDBRANCH  36  39
ENDBRANCH  30  33
ENDBRANCH   1  29
TORSDOF 9
ENDMDL
MODEL 3
REMARK VINA RESULT:      -9.8      2.813      6.419
REMARK  9 active torsions:
REMARK  status: ('A' for Active; 'I' for Inactive)
REMARK    1  A    between atoms: C_2  and  O_3 
REMARK    2  A    between atoms: O_3  and  C_4 
REMARK    3  A    between atoms: C_4  and  C_5 
REMARK    4  A    between atoms: C_8  and  N_9 
REMARK       I    between atoms: N_9  and  C_10 
REMARK    5  A    between atoms: C_10  and  C_11 
REMARK    6  A    between atoms: C_13  and  N_14 
REMARK    7  A    between atoms: N_17  and  C_19 
REMARK    8  A    between atoms: C_19  and  C_20 
REMARK    9  A    between atoms: C_19  and  C_26 
ROOT
HETATM    1  C   UNL     1      40.771 -11.295   0.295  1.00  0.00     0.200 C 
HETATM    2  N   UNL     1      40.797 -10.772   1.652  1.00  0.00    -0.211 N 
HETATM    3  C   UNL     1      39.641 -10.679   2.351  1.00  0.00     0.702 C 
HETATM    4  N   UNL     1      38.455 -10.804   1.864  1.00  0.00    -0.028 NA
HETATM    5  C   UNL     1      38.338 -11.133   0.533  1.00  0.00     0.263 C 
HETATM    6  O   UNL     1      37.293 -11.583   0.072  1.00  0.00    -0.271 OA
HETATM    7  C   UNL     1      39.498 -10.833  -0.382  1.00  0.00     0.141 C 
HETATM    8  H   UNL     1      41.626 -11.002   2.186  1.00  0.00     0.178 HD
ENDROOT
BRANCH   3   9
HETATM    9  N   UNL     1      39.858 -10.353   3.669  1.00  0.00    -0.213 N 
HETATM   10  C   UNL     1      41.030  -9.491   3.955  1.00  0.00     0.169 C 
HETATM   11  C   UNL     1      42.321 -10.328   4.094  1.00  0.00     0.256 C 
HETATM   12  N   UNL     1      42.131 -11.369   5.200  1.00  0.00    -0.056 N 
HETATM   13  H   UNL     1      41.810 -10.887   6.044  1.00  0.00     0.281 HD
HETATM   14  C   UNL     1      40.975 -12.294   4.810  1.00  0.00     0.256 C 
HETATM   15  C   UNL     1      39.691 -11.451   4.651  1.00  0.00     0.169 C 
BRANCH  12  16
HETATM   16  C   UNL     1      43.391 -12.115   5.630  1.00  0.00     0.254 C 
BRANCH  16  17
HETATM   17  C   UNL     1      44.262 -11.336   6.608  1.00  0.00    -0.023 A 
HETATM   18  C   UNL     1      45.667 -11.386   6.553  1.00  0.00     0.009 A 
HETATM   19  C   UNL     1      46.441 -10.671   7.468  1.00  0.00     0.001 A 
HETATM   20  C   UNL     1      45.827  -9.895   8.448  1.00  0.00     0.000 A 
HETATM   21  C   UNL     1      44.438  -9.829   8.514  1.00  0.00     0.001 A 
HETATM   22  C   UNL     1      43.659 -10.543   7.603  1.00  0.00     0.009 A 
ENDBRANCH  16  17
BRANCH  16  23
HETATM   23  C   UNL     1      43.166 -13.585   6.018  1.00  0.00    -0.023 A 
HETATM   24  C   UNL     1      43.011 -14.634   5.092  1.00  0.00     0.009 A 
HETATM   25  C   UNL     1      42.845 -15.955   5.523  1.00  0.00     0.001 A 
HETATM   26  C   UNL     1      42.828 -16.255   6.881  1.00  0.00     0.000 A 
HETATM   27  C   UNL     1      42.980 -15.238   7.815  1.00  0.00     0.001 A 
HETATM   28  C   UNL     1      43.153 -13.919   7.389  1.00  0.00     0.009 A 
ENDBRANCH  16  23
ENDBRANCH  12  16
ENDBRANCH   3   9
BRANCH   1  29
HETATM   29  C   UNL     1      40.905 -12.837   0.276  1.00  0.00     0.246 C 
HETATM   30  N   UNL     1      41.456 -13.329   1.451  1.00  0.00    -0.325 N 
HETATM   31  H   UNL     1      41.625 -12.667   2.201  1.00  0.00     0.169 HD
HETATM   32  O   UNL     1      40.524 -13.498  -0.687  1.00  0.00    -0.271 OA
BRANCH  30  33
HETATM   33  C   UNL     1      41.833 -14.655   1.747  1.00  0.00     0.034 A 
HETATM   34  C   UNL     1      40.950 -15.650   2.163  1.00  0.00     0.030 A 
HETATM   35  C   UNL     1      41.408 -16.960   2.371  1.00  0.00     0.020 A 
HETATM   36  C   UNL     1      42.752 -17.290   2.164  1.00  0.00     0.039 A 
HETATM   37  C   UNL     1      43.645 -16.287   1.773  1.00  0.00     0.020 A 
HETATM   38  C   UNL     1      43.186 -14.981   1.568  1.00  0.00     0.030 A 
BRANCH  36  39
HETATM   39  C   UNL     1      43.174 -18.707   2.340  1.00  0.00     0.293 C 
HETATM   40  O   UNL     1      42.503 -19.657   1.970  1.00  0.00    -0.259 OA
BRANCH  39  41
HETATM   41  O   UNL     1      44.400 -18.766   2.915  1.00  0.00    -0.318 OA
BRANCH  41  42
HETATM   42  C   UNL     1      44.421 -18.861   4.348  1.00  0.00     0.174 C 
HETATM   43  C   UNL     1      44.212 -20.298   4.786  1.00  0.00     0.034 C 
ENDBRANCH  41  42
ENDBRANCH  39  41
ENDBRANCH  36  39
ENDBRANCH  30  33
ENDBRANCH   1  29
TORSDOF 9
ENDMDL
MODEL 4
REMARK VINA RESULT:      -9.3      2.757      6.501
REMARK  9 active torsions:
REMARK  status: ('A' for Active; 'I' for Inactive)
REMARK    1  A    between atoms: C_2  and  O_3 
REMARK    2  A    between atoms: O_3  and  C_4 
REMARK    3  A    between atoms: C_4  and  C_5 
REMARK    4  A    between atoms: C_8  and  N_9 
REMARK       I    between atoms: N_9  and  C_10 
REMARK    5  A    between atoms: C_10  and  C_11 
REMARK    6  A    between atoms: C_13  and  N_14 
REMARK    7  A    between atoms: N_17  and  C_19 
REMARK    8  A    between atoms: C_19  and  C_20 
REMARK    9  A    between atoms: C_19  and  C_26 
ROOT
HETATM    1  C   UNL     1      39.846 -10.862   6.236  1.00  0.00     0.200 C 
HETATM    2  N   UNL     1      39.636 -10.381   4.879  1.00  0.00    -0.211 N 
HETATM    3  C   UNL     1      40.706 -10.046   4.119  1.00  0.00     0.702 C 
HETATM    4  N   UNL     1      41.913  -9.896   4.543  1.00  0.00    -0.028 NA
HETATM    5  C   UNL     1      42.167 -10.169   5.867  1.00  0.00     0.263 C 
HETATM    6  O   UNL     1      43.308 -10.368   6.275  1.00  0.00    -0.271 OA
HETATM    7  C   UNL     1      41.017 -10.117   6.841  1.00  0.00     0.141 C 
HETATM    8  H   UNL     1      38.853 -10.799   4.391  1.00  0.00     0.178 HD
ENDROOT
BRANCH   3   9
HETATM    9  N   UNL     1      40.355  -9.800   2.813  1.00  0.00    -0.213 N 
HETATM   10  C   UNL     1      39.109 -10.439   2.328  1.00  0.00     0.169 C 
HETATM   11  C   UNL     1      39.371 -11.881   1.840  1.00  0.00     0.256 C 
HETATM   12  N   UNL     1      40.430 -11.856   0.736  1.00  0.00    -0.056 N 
HETATM   13  H   UNL     1      40.137 -11.182   0.023  1.00  0.00     0.281 HD
HETATM   14  C   UNL     1      41.726 -11.280   1.313  1.00  0.00     0.256 C 
HETATM   15  C   UNL     1      41.456  -9.846   1.819  1.00  0.00     0.169 C 
BRANCH  12  16
HETATM   16  C   UNL     1      40.628 -13.166  -0.021  1.00  0.00     0.254 C 
BRANCH  16  17
HETATM   17  C   UNL     1      40.960 -14.351   0.878  1.00  0.00    -0.023 A 
HETATM   18  C   UNL     1      42.287 -14.748   1.121  1.00  0.00     0.009 A 
HETATM   19  C   UNL     1      42.563 -15.843   1.941  1.00  0.00     0.001 A 
HETATM   20  C   UNL     1      41.522 -16.555   2.532  1.00  0.00     0.000 A 
HETATM   21  C   UNL     1      40.202 -16.173   2.307  1.00  0.00     0.001 A 
HETATM   22  C   UNL     1      39.921 -15.080   1.486  1.00  0.00     0.009 A 
ENDBRANCH  16  17
BRANCH  16  23
HETATM   23  C   UNL     1      39.557 -13.461  -1.084  1.00  0.00    -0.023 A 
HETATM   24  C   UNL     1      38.433 -12.648  -1.324  1.00  0.00     0.009 A 
HETATM   25  C   UNL     1      37.519 -12.964  -2.335  1.00  0.00     0.001 A 
HETATM   26  C   UNL     1      37.705 -14.094  -3.123  1.00  0.00     0.000 A 
HETATM   27  C   UNL     1      38.807 -14.913  -2.908  1.00  0.00     0.001 A 
HETATM   28  C   UNL     1      39.726 -14.597  -1.904  1.00  0.00     0.009 A 
ENDBRANCH  16  23
ENDBRANCH  12  16
ENDBRANCH   3   9
BRANCH   1  29
HETATM   29  C   UNL     1      40.060 -12.394   6.271  1.00  0.00     0.246 C 
HETATM   30  N   UNL     1      41.397 -12.740   6.134  1.00  0.00    -0.325 N 
HETATM   31  H   UNL     1      42.075 -11.985   6.116  1.00  0.00     0.169 HD
HETATM   32  O   UNL     1      39.117 -13.166   6.430  1.00  0.00    -0.271 OA
BRANCH  30  33
HETATM   33  C   UNL     1      41.954 -14.028   6.004  1.00  0.00     0.034 A 
HETATM   34  C   UNL     1      43.251 -14.285   5.560  1.00  0.00     0.030 A 
HETATM   35  C   UNL     1      43.739 -15.600   5.525  1.00  0.00     0.020 A 
HETATM   36  C   UNL     1      42.938 -16.673   5.936  1.00  0.00     0.039 A 
HETATM   37  C   UNL     1      41.628 -16.420   6.355  1.00  0.00     0.020 A 
HETATM   38  C   UNL     1      41.143 -15.108   6.387  1.00  0.00     0.030 A 
BRANCH  36  39
HETATM   39  C   UNL     1      43.525 -18.040   5.937  1.00  0.00     0.293 C 
HETATM   40  O   UNL     1      43.325 -18.855   6.823  1.00  0.00    -0.259 OA
BRANCH  39  41
HETATM   41  O   UNL     1      44.255 -18.241   4.812  1.00  0.00    -0.318 OA
BRANCH  41  42
HETATM   42  C   UNL     1      44.116 -19.528   4.191  1.00  0.00     0.174 C 
HETATM   43  C   UNL     1      43.868 -19.373   2.703  1.00  0.00     0.034 C 
ENDBRANCH  41  42
ENDBRANCH  39  41
ENDBRANCH  36  39
ENDBRANCH  30  33
ENDBRANCH   1  29
TORSDOF 9
ENDMDL
MODEL 5
REMARK VINA RESULT:      -9.3      2.715      8.418
REMARK  9 active torsions:
REMARK  status: ('A' for Active; 'I' for Inactive)
REMARK    1  A    between atoms: C_2  and  O_3 
REMARK    2  A    between atoms: O_3  and  C_4 
REMARK    3  A    between atoms: C_4  and  C_5 
REMARK    4  A    between atoms: C_8  and  N_9 
REMARK       I    between atoms: N_9  and  C_10 
REMARK    5  A    between atoms: C_10  and  C_11 
REMARK    6  A    between atoms: C_13  and  N_14 
REMARK    7  A    between atoms: N_17  and  C_19 
REMARK    8  A    between atoms: C_19  and  C_20 
REMARK    9  A    between atoms: C_19  and  C_26 
ROOT
HETATM    1  C   UNL     1      41.648 -10.462   2.442  1.00  0.00     0.200 C 
HETATM    2  N   UNL     1      41.273  -9.496   3.463  1.00  0.00    -0.211 N 
HETATM    3  C   UNL     1      40.185  -9.732   4.234  1.00  0.00     0.702 C 
HETATM    4  N   UNL     1      39.293 -10.636   4.020  1.00  0.00    -0.028 NA
HETATM    5  C   UNL     1      39.487 -11.492   2.961  1.00  0.00     0.263 C 
HETATM    6  O   UNL     1      38.883 -12.558   2.877  1.00  0.00    -0.271 OA
HETATM    7  C   UNL     1      40.390 -11.047   1.838  1.00  0.00     0.141 C 
HETATM    8  H   UNL     1      42.048  -9.023   3.913  1.00  0.00     0.178 HD
ENDROOT
BRANCH   3   9
HETATM    9  N   UNL     1      40.079  -8.833   5.268  1.00  0.00    -0.213 N 
HETATM   10  C   UNL     1      41.246  -7.948   5.501  1.00  0.00     0.169 C 
HETATM   11  C   UNL     1      42.303  -8.637   6.392  1.00  0.00     0.256 C 
HETATM   12  N   UNL     1      41.657  -9.042   7.720  1.00  0.00    -0.056 N 
HETATM   13  H   UNL     1      41.196  -8.219   8.117  1.00  0.00     0.281 HD
HETATM   14  C   UNL     1      40.524 -10.030   7.432  1.00  0.00     0.256 C 
HETATM   15  C   UNL     1      39.480  -9.346   6.524  1.00  0.00     0.169 C 
BRANCH  12  16
HETATM   16  C   UNL     1      42.619  -9.514   8.806  1.00  0.00     0.254 C 
BRANCH  16  17
HETATM   17  C   UNL     1      43.996  -9.903   8.280  1.00  0.00    -0.023 A 
HETATM   18  C   UNL     1      44.219 -11.124   7.619  1.00  0.00     0.009 A 
HETATM   19  C   UNL     1      45.491 -11.461   7.156  1.00  0.00     0.001 A 
HETATM   20  C   UNL     1      46.558 -10.585   7.343  1.00  0.00     0.000 A 
HETATM   21  C   UNL     1      46.355  -9.371   7.991  1.00  0.00     0.001 A 
HETATM   22  C   UNL     1      45.085  -9.030   8.458  1.00  0.00     0.009 A 
ENDBRANCH  16  17
BRANCH  16  23
HETATM   23  C   UNL     1      42.651  -8.630  10.064  1.00  0.00    -0.023 A 
HETATM   24  C   UNL     1      42.164  -7.310  10.117  1.00  0.00     0.009 A 
HETATM   25  C   UNL     1      42.195  -6.580  11.311  1.00  0.00     0.001 A 
HETATM   26  C   UNL     1      42.713  -7.148  12.470  1.00  0.00     0.000 A 
HETATM   27  C   UNL     1      43.198  -8.449  12.444  1.00  0.00     0.001 A 
HETATM   28  C   UNL     1      43.163  -9.184  11.257  1.00  0.00     0.009 A 
ENDBRANCH  16  23
ENDBRANCH  12  16
ENDBRANCH   3   9
BRANCH   1  29
HETATM   29  C   UNL     1      42.577 -11.561   3.012  1.00  0.00     0.246 C 
HETATM   30  N   UNL     1      42.095 -12.838   2.758  1.00  0.00    -0.325 N 
HETATM   31  H   UNL     1      41.268 -12.918   2.175  1.00  0.00     0.169 HD
HETATM   32  O   UNL     1      43.622 -11.276   3.592  1.00  0.00    -0.271 OA
BRANCH  30  33
HETATM   33  C   UNL     1      42.604 -14.069   3.220  1.00  0.00     0.034 A 
HETATM   34  C   UNL     1      42.740 -14.409   4.565  1.00  0.00     0.030 A 
HETATM   35  C   UNL     1      43.197 -15.685   4.929  1.00  0.00     0.020 A 
HETATM   36  C   UNL     1      43.521 -16.635   3.952  1.00  0.00     0.039 A 
HETATM   37  C   UNL     1      43.411 -16.286   2.603  1.00  0.00     0.020 A 
HETATM   38  C   UNL     1      42.957 -15.012   2.243  1.00  0.00     0.030 A 
BRANCH  36  39
HETATM   39  C   UNL     1      43.942 -17.994   4.392  1.00  0.00     0.293 C 
HETATM   40  O   UNL     1      43.814 -18.398   5.535  1.00  0.00    -0.259 OA
BRANCH  39  41
HETATM   41  O   UNL     1      44.432 -18.698   3.342  1.00  0.00    -0.318 OA
BRANCH  41  42
HETATM   42  C   UNL     1      43.950 -20.043   3.204  1.00  0.00     0.174 C 
HETATM   43  C   UNL     1      43.200 -20.205   1.896  1.00  0.00     0.034 C 
ENDBRANCH  41  42
ENDBRANCH  39  41
ENDBRANCH  36  39
ENDBRANCH  30  33
ENDBRANCH   1  29
TORSDOF 9
ENDMDL
MODEL 6
REMARK VINA RESULT:      -8.9      2.884      8.217
REMARK  9 active torsions:
REMARK  status: ('A' for Active; 'I' for Inactive)
REMARK    1  A    between atoms: C_2  and  O_3 
REMARK    2  A    between atoms: O_3  and  C_4 
REMARK    3  A    between atoms: C_4  and  C_5 
REMARK    4  A    between atoms: C_8  and  N_9 
REMARK       I    between atoms: N_9  and  C_10 
REMARK    5  A    between atoms: C_10  and  C_11 
REMARK    6  A    between atoms: C_13  and  N_14 
REMARK    7  A    between atoms: N_17  and  C_19 
REMARK    8  A    between atoms: C_19  and  C_20 
REMARK    9  A    between atoms: C_19  and  C_26 
ROOT
HETATM    1  C   UNL     1      39.925  -9.570   4.094  1.00  0.00     0.200 C 
HETATM    2  N   UNL     1      40.023  -8.441   5.007  1.00  0.00    -0.211 N 
HETATM    3  C   UNL     1      39.542  -8.562   6.267  1.00  0.00     0.702 C 
HETATM    4  N   UNL     1      38.793  -9.517   6.699  1.00  0.00    -0.028 NA
HETATM    5  C   UNL     1      38.509 -10.551   5.837  1.00  0.00     0.263 C 
HETATM    6  O   UNL     1      38.092 -11.631   6.244  1.00  0.00    -0.271 OA
HETATM    7  C   UNL     1      38.623 -10.297   4.355  1.00  0.00     0.141 C 
HETATM    8  H   UNL     1      40.851  -7.869   4.896  1.00  0.00     0.178 HD
ENDROOT
BRANCH   3   9
HETATM    9  N   UNL     1      39.881  -7.487   7.055  1.00  0.00    -0.213 N 
HETATM   10  C   UNL     1      41.148  -6.794   6.722  1.00  0.00     0.169 C 
HETATM   11  C   UNL     1      42.359  -7.486   7.386  1.00  0.00     0.256 C 
HETATM   12  N   UNL     1      42.148  -7.528   8.901  1.00  0.00    -0.056 N 
HETATM   13  H   UNL     1      41.935  -6.580   9.223  1.00  0.00     0.281 HD
HETATM   14  C   UNL     1      40.883  -8.339   9.197  1.00  0.00     0.256 C 
HETATM   15  C   UNL     1      39.678  -7.656   8.515  1.00  0.00     0.169 C 
BRANCH  12  16
HETATM   16  C   UNL     1      43.357  -7.960   9.726  1.00  0.00     0.254 C 
BRANCH  16  17
HETATM   17  C   UNL     1      43.023  -8.303  11.172  1.00  0.00    -0.023 A 
HETATM   18  C   UNL     1      42.799  -7.306  12.139  1.00  0.00     0.009 A 
HETATM   19  C   UNL     1      42.505  -7.647  13.459  1.00  0.00     0.001 A 
HETATM   20  C   UNL     1      42.427  -8.986  13.835  1.00  0.00     0.000 A 
HETATM   21  C   UNL     1      42.640  -9.986  12.891  1.00  0.00     0.001 A 
HETATM   22  C   UNL     1      42.936  -9.650  11.569  1.00  0.00     0.009 A 
ENDBRANCH  16  17
BRANCH  16  23
HETATM   23  C   UNL     1      44.277  -8.978   9.032  1.00  0.00    -0.023 A 
HETATM   24  C   UNL     1      43.899 -10.294   8.706  1.00  0.00     0.009 A 
HETATM   25  C   UNL     1      44.782 -11.152   8.041  1.00  0.00     0.001 A 
HETATM   26  C   UNL     1      46.055 -10.718   7.691  1.00  0.00     0.000 A 
HETATM   27  C   UNL     1      46.453  -9.423   7.999  1.00  0.00     0.001 A 
HETATM   28  C   UNL     1      45.572  -8.560   8.657  1.00  0.00     0.009 A 
ENDBRANCH  16  23
ENDBRANCH  12  16
ENDBRANCH   3   9
BRANCH   1  29
HETATM   29  C   UNL     1      41.145 -10.514   4.223  1.00  0.00     0.246 C 
HETATM   30  N   UNL     1      40.768 -11.827   4.468  1.00  0.00    -0.325 N 
HETATM   31  H   UNL     1      39.777 -12.040   4.449  1.00  0.00     0.169 HD
HETATM   32  O   UNL     1      42.293 -10.094   4.089  1.00  0.00    -0.271 OA
BRANCH  30  33
HETATM   33  C   UNL     1      41.597 -12.931   4.756  1.00  0.00     0.034 A 
HETATM   34  C   UNL     1      42.132 -13.207   6.013  1.00  0.00     0.030 A 
HETATM   35  C   UNL     1      42.894 -14.368   6.218  1.00  0.00     0.020 A 
HETATM   36  C   UNL     1      43.127 -15.266   5.170  1.00  0.00     0.039 A 
HETATM   37  C   UNL     1      42.614 -14.976   3.902  1.00  0.00     0.020 A 
HETATM   38  C   UNL     1      41.856 -13.817   3.700  1.00  0.00     0.030 A 
BRANCH  36  39
HETATM   39  C   UNL     1      43.890 -16.512   5.455  1.00  0.00     0.293 C 
HETATM   40  O   UNL     1      44.879 -16.544   6.168  1.00  0.00    -0.259 OA
BRANCH  39  41
HETATM   41  O   UNL     1      43.299 -17.574   4.853  1.00  0.00    -0.318 OA
BRANCH  41  42
HETATM   42  C   UNL     1      44.171 -18.449   4.121  1.00  0.00     0.174 C 
HETATM   43  C   UNL     1      43.621 -18.703   2.731  1.00  0.00     0.034 C 
ENDBRANCH  41  42
ENDBRANCH  39  41
ENDBRANCH  36  39
ENDBRANCH  30  33
ENDBRANCH   1  29
TORSDOF 9
ENDMDL
MODEL 7
REMARK VINA RESULT:      -8.9      3.173      5.351
REMARK  9 active torsions:
REMARK  status: ('A' for Active; 'I' for Inactive)
REMARK    1  A    between atoms: C_2  and  O_3 
REMARK    2  A    between atoms: O_3  and  C_4 
REMARK    3  A    between atoms: C_4  and  C_5 
REMARK    4  A    between atoms: C_8  and  N_9 
REMARK       I    between atoms: N_9  and  C_10 
REMARK    5  A    between atoms: C_10  and  C_11 
REMARK    6  A    between atoms: C_13  and  N_14 
REMARK    7  A    between atoms: N_17  and  C_19 
REMARK    8  A    between atoms: C_19  and  C_20 
REMARK    9  A    between atoms: C_19  and  C_26 
ROOT
HETATM    1  C   UNL     1      39.182 -10.395   6.656  1.00  0.00     0.200 C 
HETATM    2  N   UNL     1      40.119 -11.507   6.701  1.00  0.00    -0.211 N 
HETATM    3  C   UNL     1      41.317 -11.392   6.079  1.00  0.00     0.702 C 
HETATM    4  N   UNL     1      41.647 -10.467   5.246  1.00  0.00    -0.028 NA
HETATM    5  C   UNL     1      40.741  -9.458   5.014  1.00  0.00     0.263 C 
HETATM    6  O   UNL     1      41.081  -8.393   4.507  1.00  0.00    -0.271 OA
HETATM    7  C   UNL     1      39.285  -9.726   5.302  1.00  0.00     0.141 C 
HETATM    8  H   UNL     1      40.110 -12.042   7.560  1.00  0.00     0.178 HD
ENDROOT
BRANCH   3   9
HETATM    9  N   UNL     1      42.156 -12.440   6.376  1.00  0.00    -0.213 N 
HETATM   10  C   UNL     1      43.494 -12.420   5.737  1.00  0.00     0.169 C 
HETATM   11  C   UNL     1      43.450 -13.039   4.322  1.00  0.00     0.256 C 
HETATM   12  N   UNL     1      42.915 -14.470   4.413  1.00  0.00    -0.056 N 
HETATM   13  H   UNL     1      43.466 -14.975   5.112  1.00  0.00     0.281 HD
HETATM   14  C   UNL     1      41.495 -14.427   4.985  1.00  0.00     0.256 C 
HETATM   15  C   UNL     1      41.540 -13.789   6.390  1.00  0.00     0.169 C 
BRANCH  12  16
HETATM   16  C   UNL     1      43.036 -15.303   3.140  1.00  0.00     0.254 C 
BRANCH  16  17
HETATM   17  C   UNL     1      43.369 -16.768   3.395  1.00  0.00    -0.023 A 
HETATM   18  C   UNL     1      43.706 -17.240   4.677  1.00  0.00     0.009 A 
HETATM   19  C   UNL     1      44.016 -18.585   4.882  1.00  0.00     0.001 A 
HETATM   20  C   UNL     1      43.994 -19.478   3.814  1.00  0.00     0.000 A 
HETATM   21  C   UNL     1      43.658 -19.031   2.540  1.00  0.00     0.001 A 
HETATM   22  C   UNL     1      43.348 -17.686   2.329  1.00  0.00     0.009 A 
ENDBRANCH  16  17
BRANCH  16  23
HETATM   23  C   UNL     1      41.909 -15.081   2.118  1.00  0.00    -0.023 A 
HETATM   24  C   UNL     1      41.861 -14.004   1.213  1.00  0.00     0.009 A 
HETATM   25  C   UNL     1      40.819 -13.889   0.287  1.00  0.00     0.001 A 
HETATM   26  C   UNL     1      39.806 -14.840   0.246  1.00  0.00     0.000 A 
HETATM   27  C   UNL     1      39.830 -15.914   1.127  1.00  0.00     0.001 A 
HETATM   28  C   UNL     1      40.873 -16.037   2.049  1.00  0.00     0.009 A 
ENDBRANCH  16  23
ENDBRANCH  12  16
ENDBRANCH   3   9
BRANCH   1  29
HETATM   29  C   UNL     1      39.427  -9.396   7.811  1.00  0.00     0.246 C 
HETATM   30  N   UNL     1      40.303  -9.900   8.763  1.00  0.00    -0.325 N 
HETATM   31  H   UNL     1      40.740 -10.794   8.568  1.00  0.00     0.169 HD
HETATM   32  O   UNL     1      38.900  -8.286   7.818  1.00  0.00    -0.271 OA
BRANCH  30  33
HETATM   33  C   UNL     1      40.667  -9.329  10.000  1.00  0.00     0.034 A 
HETATM   34  C   UNL     1      39.828  -9.256  11.111  1.00  0.00     0.030 A 
HETATM   35  C   UNL     1      40.302  -8.728  12.321  1.00  0.00     0.020 A 
HETATM   36  C   UNL     1      41.620  -8.269  12.435  1.00  0.00     0.039 A 
HETATM   37  C   UNL     1      42.454  -8.316  11.314  1.00  0.00     0.020 A 
HETATM   38  C   UNL     1      41.978  -8.842  10.108  1.00  0.00     0.030 A 
BRANCH  36  39
HETATM   39  C   UNL     1      42.091  -7.774  13.758  1.00  0.00     0.293 C 
HETATM   40  O   UNL     1      43.237  -7.415  13.970  1.00  0.00    -0.259 OA
BRANCH  39  41
HETATM   41  O   UNL     1      41.064  -7.747  14.644  1.00  0.00    -0.318 OA
BRANCH  41  42
HETATM   42  C   UNL     1      41.427  -7.793  16.032  1.00  0.00     0.174 C 
HETATM   43  C   UNL     1      40.421  -7.027  16.868  1.00  0.00     0.034 C 
ENDBRANCH  41  42
ENDBRANCH  39  41
ENDBRANCH  36  39
ENDBRANCH  30  33
ENDBRANCH   1  29
TORSDOF 9
ENDMDL
MODEL 8
REMARK VINA RESULT:      -8.9      4.694     10.986
REMARK  9 active torsions:
REMARK  status: ('A' for Active; 'I' for Inactive)
REMARK    1  A    between atoms: C_2  and  O_3 
REMARK    2  A    between atoms: O_3  and  C_4 
REMARK    3  A    between atoms: C_4  and  C_5 
REMARK    4  A    between atoms: C_8  and  N_9 
REMARK       I    between atoms: N_9  and  C_10 
REMARK    5  A    between atoms: C_10  and  C_11 
REMARK    6  A    between atoms: C_13  and  N_14 
REMARK    7  A    between atoms: N_17  and  C_19 
REMARK    8  A    between atoms: C_19  and  C_20 
REMARK    9  A    between atoms: C_19  and  C_26 
ROOT
HETATM    1  C   UNL     1      44.134 -11.054   8.803  1.00  0.00     0.200 C 
HETATM    2  N   UNL     1      42.925 -10.245   8.753  1.00  0.00    -0.211 N 
HETATM    3  C   UNL     1      42.997  -8.971   8.299  1.00  0.00     0.702 C 
HETATM    4  N   UNL     1      44.079  -8.302   8.100  1.00  0.00    -0.028 NA
HETATM    5  C   UNL     1      45.278  -8.949   8.291  1.00  0.00     0.263 C 
HETATM    6  O   UNL     1      46.326  -8.512   7.824  1.00  0.00    -0.271 OA
HETATM    7  C   UNL     1      45.300 -10.167   9.181  1.00  0.00     0.141 C 
HETATM    8  H   UNL     1      42.077 -10.752   8.534  1.00  0.00     0.178 HD
ENDROOT
BRANCH   3   9
HETATM    9  N   UNL     1      41.752  -8.411   8.132  1.00  0.00    -0.213 N 
HETATM   10  C   UNL     1      41.614  -6.980   8.494  1.00  0.00     0.169 C 
HETATM   11  C   UNL     1      41.337  -6.808  10.005  1.00  0.00     0.256 C 
HETATM   12  N   UNL     1      40.072  -7.584  10.377  1.00  0.00    -0.056 N 
HETATM   13  H   UNL     1      39.321  -7.300   9.743  1.00  0.00     0.281 HD
HETATM   14  C   UNL     1      40.302  -9.068  10.077  1.00  0.00     0.256 C 
HETATM   15  C   UNL     1      40.599  -9.235   8.571  1.00  0.00     0.169 C 
BRANCH  12  16
HETATM   16  C   UNL     1      39.524  -7.322  11.777  1.00  0.00     0.254 C 
BRANCH  16  17
HETATM   17  C   UNL     1      40.587  -7.348  12.868  1.00  0.00    -0.023 A 
HETATM   18  C   UNL     1      41.380  -6.222  13.157  1.00  0.00     0.009 A 
HETATM   19  C   UNL     1      42.355  -6.275  14.154  1.00  0.00     0.001 A 
HETATM   20  C   UNL     1      42.551  -7.448  14.879  1.00  0.00     0.000 A 
HETATM   21  C   UNL     1      41.772  -8.570  14.611  1.00  0.00     0.001 A 
HETATM   22  C   UNL     1      40.797  -8.523  13.613  1.00  0.00     0.009 A 
ENDBRANCH  16  17
BRANCH  16  23
HETATM   23  C   UNL     1      38.550  -6.136  11.873  1.00  0.00    -0.023 A 
HETATM   24  C   UNL     1      37.854  -5.774  13.042  1.00  0.00     0.009 A 
HETATM   25  C   UNL     1      37.010  -4.658  13.060  1.00  0.00     0.001 A 
HETATM   26  C   UNL     1      36.843  -3.884  11.917  1.00  0.00     0.000 A 
HETATM   27  C   UNL     1      37.520  -4.218  10.751  1.00  0.00     0.001 A 
HETATM   28  C   UNL     1      38.368  -5.328  10.730  1.00  0.00     0.009 A 
ENDBRANCH  16  23
ENDBRANCH  12  16
ENDBRANCH   3   9
BRANCH   1  29
HETATM   29  C   UNL     1      44.382 -11.790   7.464  1.00  0.00     0.246 C 
HETATM   30  N   UNL     1      43.290 -12.554   7.076  1.00  0.00    -0.325 N 
HETATM   31  H   UNL     1      42.449 -12.486   7.638  1.00  0.00     0.169 HD
HETATM   32  O   UNL     1      45.436 -11.653   6.847  1.00  0.00    -0.271 OA
BRANCH  30  33
HETATM   33  C   UNL     1      43.194 -13.444   5.986  1.00  0.00     0.034 A 
HETATM   34  C   UNL     1      42.877 -13.061   4.683  1.00  0.00     0.030 A 
HETATM   35  C   UNL     1      42.868 -14.010   3.650  1.00  0.00     0.020 A 
HETATM   36  C   UNL     1      43.178 -15.351   3.906  1.00  0.00     0.039 A 
HETATM   37  C   UNL     1      43.469 -15.741   5.217  1.00  0.00     0.020 A 
HETATM   38  C   UNL     1      43.476 -14.793   6.246  1.00  0.00     0.030 A 
BRANCH  36  39
HETATM   39  C   UNL     1      43.215 -16.305   2.764  1.00  0.00     0.293 C 
HETATM   40  O   UNL     1      43.337 -15.955   1.602  1.00  0.00    -0.259 OA
BRANCH  39  41
HETATM   41  O   UNL     1      43.139 -17.582   3.214  1.00  0.00    -0.318 OA
BRANCH  41  42
HETATM   42  C   UNL     1      42.893 -18.587   2.219  1.00  0.00     0.174 C 
HETATM   43  C   UNL     1      43.702 -19.835   2.517  1.00  0.00     0.034 C 
ENDBRANCH  41  42
ENDBRANCH  39  41
ENDBRANCH  36  39
ENDBRANCH  30  33
ENDBRANCH   1  29
TORSDOF 9
ENDMDL
MODEL 9
REMARK VINA RESULT:      -8.8      4.770     11.101
REMARK  9 active torsions:
REMARK  status: ('A' for Active; 'I' for Inactive)
REMARK    1  A    between atoms: C_2  and  O_3 
REMARK    2  A    between atoms: O_3  and  C_4 
REMARK    3  A    between atoms: C_4  and  C_5 
REMARK    4  A    between atoms: C_8  and  N_9 
REMARK       I    between atoms: N_9  and  C_10 
REMARK    5  A    between atoms: C_10  and  C_11 
REMARK    6  A    between atoms: C_13  and  N_14 
REMARK    7  A    between atoms: N_17  and  C_19 
REMARK    8  A    between atoms: C_19  and  C_20 
REMARK    9  A    between atoms: C_19  and  C_26 
ROOT
HETATM    1  C   UNL     1      44.203 -10.986   8.786  1.00  0.00     0.200 C 
HETATM    2  N   UNL     1      43.057 -10.089   8.805  1.00  0.00    -0.211 N 
HETATM    3  C   UNL     1      43.205  -8.813   8.377  1.00  0.00     0.702 C 
HETATM    4  N   UNL     1      44.326  -8.221   8.149  1.00  0.00    -0.028 NA
HETATM    5  C   UNL     1      45.480  -8.959   8.275  1.00  0.00     0.263 C 
HETATM    6  O   UNL     1      46.538  -8.588   7.775  1.00  0.00    -0.271 OA
HETATM    7  C   UNL     1      45.446 -10.197   9.135  1.00  0.00     0.141 C 
HETATM    8  H   UNL     1      42.165 -10.527   8.610  1.00  0.00     0.178 HD
ENDROOT
BRANCH   3   9
HETATM    9  N   UNL     1      42.000  -8.158   8.276  1.00  0.00    -0.213 N 
HETATM   10  C   UNL     1      42.052  -6.678   8.219  1.00  0.00     0.169 C 
HETATM   11  C   UNL     1      42.107  -6.064   9.636  1.00  0.00     0.256 C 
HETATM   12  N   UNL     1      40.891  -6.533  10.437  1.00  0.00    -0.056 N 
HETATM   13  H   UNL     1      40.050  -6.335   9.890  1.00  0.00     0.281 HD
HETATM   14  C   UNL     1      40.938  -8.059  10.551  1.00  0.00     0.256 C 
HETATM   15  C   UNL     1      40.903  -8.669   9.133  1.00  0.00     0.169 C 
BRANCH  12  16
HETATM   16  C   UNL     1      40.666  -5.827  11.772  1.00  0.00     0.254 C 
BRANCH  16  17
HETATM   17  C   UNL     1      39.283  -5.203  11.911  1.00  0.00    -0.023 A 
HETATM   18  C   UNL     1      38.760  -4.831  13.163  1.00  0.00     0.009 A 
HETATM   19  C   UNL     1      37.486  -4.271  13.264  1.00  0.00     0.001 A 
HETATM   20  C   UNL     1      36.717  -4.071  12.120  1.00  0.00     0.000 A 
HETATM   21  C   UNL     1      37.220  -4.428  10.872  1.00  0.00     0.001 A 
HETATM   22  C   UNL     1      38.493  -4.990  10.766  1.00  0.00     0.009 A 
ENDBRANCH  16  17
BRANCH  16  23
HETATM   23  C   UNL     1      41.126  -6.623  13.004  1.00  0.00    -0.023 A 
HETATM   24  C   UNL     1      40.378  -7.651  13.608  1.00  0.00     0.009 A 
HETATM   25  C   UNL     1      40.881  -8.356  14.708  1.00  0.00     0.001 A 
HETATM   26  C   UNL     1      42.134  -8.049  15.227  1.00  0.00     0.000 A 
HETATM   27  C   UNL     1      42.893  -7.040  14.649  1.00  0.00     0.001 A 
HETATM   28  C   UNL     1      42.398  -6.338  13.546  1.00  0.00     0.009 A 
ENDBRANCH  16  23
ENDBRANCH  12  16
ENDBRANCH   3   9
BRANCH   1  29
HETATM   29  C   UNL     1      44.342 -11.703   7.422  1.00  0.00     0.246 C 
HETATM   30  N   UNL     1      43.361 -12.667   7.234  1.00  0.00    -0.325 N 
HETATM   31  H   UNL     1      42.635 -12.738   7.939  1.00  0.00     0.169 HD
HETATM   32  O   UNL     1      45.225 -11.393   6.625  1.00  0.00    -0.271 OA
BRANCH  30  33
HETATM   33  C   UNL     1      43.240 -13.591   6.176  1.00  0.00     0.034 A 
HETATM   34  C   UNL     1      42.817 -13.264   4.889  1.00  0.00     0.030 A 
HETATM   35  C   UNL     1      42.790 -14.241   3.883  1.00  0.00     0.020 A 
HETATM   36  C   UNL     1      43.189 -15.556   4.151  1.00  0.00     0.039 A 
HETATM   37  C   UNL     1      43.588 -15.893   5.448  1.00  0.00     0.020 A 
HETATM   38  C   UNL     1      43.612 -14.916   6.450  1.00  0.00     0.030 A 
BRANCH  36  39
HETATM   39  C   UNL     1      43.201 -16.540   3.034  1.00  0.00     0.293 C 
HETATM   40  O   UNL     1      43.313 -16.221   1.861  1.00  0.00    -0.259 OA
BRANCH  39  41
HETATM   41  O   UNL     1      43.115 -17.804   3.517  1.00  0.00    -0.318 OA
BRANCH  41  42
HETATM   42  C   UNL     1      44.042 -18.753   2.969  1.00  0.00     0.174 C 
HETATM   43  C   UNL     1      43.308 -19.797   2.150  1.00  0.00     0.034 C 
ENDBRANCH  41  42
ENDBRANCH  39  41
ENDBRANCH  36  39
ENDBRANCH  30  33
ENDBRANCH   1  29
TORSDOF 9
ENDMDL
MODEL 10
REMARK VINA RESULT:      -8.7      2.536      6.486
REMARK  9 active torsions:
REMARK  status: ('A' for Active; 'I' for Inactive)
REMARK    1  A    between atoms: C_2  and  O_3 
REMARK    2  A    between atoms: O_3  and  C_4 
REMARK    3  A    between atoms: C_4  and  C_5 
REMARK    4  A    between atoms: C_8  and  N_9 
REMARK       I    between atoms: N_9  and  C_10 
REMARK    5  A    between atoms: C_10  and  C_11 
REMARK    6  A    between atoms: C_13  and  N_14 
REMARK    7  A    between atoms: N_17  and  C_19 
REMARK    8  A    between atoms: C_19  and  C_20 
REMARK    9  A    between atoms: C_19  and  C_26 
ROOT
HETATM    1  C   UNL     1      43.470 -15.344   5.817  1.00  0.00     0.200 C 
HETATM    2  N   UNL     1      43.260 -15.831   4.462  1.00  0.00    -0.211 N 
HETATM    3  C   UNL     1      42.011 -16.171   4.063  1.00  0.00     0.702 C 
HETATM    4  N   UNL     1      40.990 -16.319   4.833  1.00  0.00    -0.028 NA
HETATM    5  C   UNL     1      41.147 -16.041   6.171  1.00  0.00     0.263 C 
HETATM    6  O   UNL     1      40.183 -15.841   6.904  1.00  0.00    -0.271 OA
HETATM    7  C   UNL     1      42.539 -16.087   6.751  1.00  0.00     0.141 C 
HETATM    8  H   UNL     1      43.858 -15.415   3.758  1.00  0.00     0.178 HD
ENDROOT
BRANCH   3   9
HETATM    9  N   UNL     1      41.950 -16.423   2.713  1.00  0.00    -0.213 N 
HETATM   10  C   UNL     1      42.951 -15.734   1.863  1.00  0.00     0.169 C 
HETATM   11  C   UNL     1      42.478 -14.314   1.478  1.00  0.00     0.256 C 
HETATM   12  N   UNL     1      41.130 -14.409   0.759  1.00  0.00    -0.056 N 
HETATM   13  H   UNL     1      41.221 -15.080  -0.009  1.00  0.00     0.281 HD
HETATM   14  C   UNL     1      40.109 -15.035   1.712  1.00  0.00     0.256 C 
HETATM   15  C   UNL     1      40.595 -16.446   2.111  1.00  0.00     0.169 C 
BRANCH  12  16
HETATM   16  C   UNL     1      40.641 -13.123   0.098  1.00  0.00     0.254 C 
BRANCH  16  17
HETATM   17  C   UNL     1      39.575 -13.347  -0.968  1.00  0.00    -0.023 A 
HETATM   18  C   UNL     1      39.588 -14.479  -1.803  1.00  0.00     0.009 A 
HETATM   19  C   UNL     1      38.606 -14.655  -2.778  1.00  0.00     0.001 A 
HETATM   20  C   UNL     1      37.597 -13.708  -2.933  1.00  0.00     0.000 A 
HETATM   21  C   UNL     1      37.565 -12.584  -2.113  1.00  0.00     0.001 A 
HETATM   22  C   UNL     1      38.546 -12.403  -1.137  1.00  0.00     0.009 A 
ENDBRANCH  16  17
BRANCH  16  23
HETATM   23  C   UNL     1      40.325 -11.980   1.077  1.00  0.00    -0.023 A 
HETATM   24  C   UNL     1      39.252 -11.990   1.988  1.00  0.00     0.009 A 
HETATM   25  C   UNL     1      39.049 -10.926   2.873  1.00  0.00     0.001 A 
HETATM   26  C   UNL     1      39.908  -9.832   2.866  1.00  0.00     0.000 A 
HETATM   27  C   UNL     1      40.976  -9.797   1.978  1.00  0.00     0.001 A 
HETATM   28  C   UNL     1      41.185 -10.861   1.097  1.00  0.00     0.009 A 
ENDBRANCH  16  23
ENDBRANCH  12  16
ENDBRANCH   3   9
BRANCH   1  29
HETATM   29  C   UNL     1      43.273 -13.812   5.908  1.00  0.00     0.246 C 
HETATM   30  N   UNL     1      43.975 -13.256   6.968  1.00  0.00    -0.325 N 
HETATM   31  H   UNL     1      44.587 -13.869   7.496  1.00  0.00     0.169 HD
HETATM   32  O   UNL     1      42.582 -13.208   5.090  1.00  0.00    -0.271 OA
BRANCH  30  33
HETATM   33  C   UNL     1      43.944 -11.924   7.430  1.00  0.00     0.034 A 
HETATM   34  C   UNL     1      42.784 -11.163   7.561  1.00  0.00     0.030 A 
HETATM   35  C   UNL     1      42.845  -9.866   8.092  1.00  0.00     0.020 A 
HETATM   36  C   UNL     1      44.067  -9.315   8.498  1.00  0.00     0.039 A 
HETATM   37  C   UNL     1      45.235 -10.067   8.341  1.00  0.00     0.020 A 
HETATM   38  C   UNL     1      45.171 -11.360   7.810  1.00  0.00     0.030 A 
BRANCH  36  39
HETATM   39  C   UNL     1      44.069  -7.958   9.111  1.00  0.00     0.293 C 
HETATM   40  O   UNL     1      44.680  -7.012   8.643  1.00  0.00    -0.259 OA
BRANCH  39  41
HETATM   41  O   UNL     1      43.272  -7.936  10.208  1.00  0.00    -0.318 OA
BRANCH  41  42
HETATM   42  C   UNL     1      43.764  -8.639  11.359  1.00  0.00     0.174 C 
HETATM   43  C   UNL     1      43.260  -7.988  12.633  1.00  0.00     0.034 C 
ENDBRANCH  41  42
ENDBRANCH  39  41
ENDBRANCH  36  39
ENDBRANCH  30  33
ENDBRANCH   1  29
TORSDOF 9
ENDMDL
