MODEL 1
REMARK VINA RESULT:      -8.7      0.000      0.000
REMARK  5 active torsions:
REMARK  status: ('A' for Active; 'I' for Inactive)
REMARK    1  A    between atoms: C_5  and  S_6 
REMARK    2  A    between atoms: S_6  and  C_7 
REMARK    3  A    between atoms: C_7  and  C_8 
REMARK       I    between atoms: C_8  and  N_9 
REMARK    4  A    between atoms: N_9  and  N_10 
REMARK       I    between atoms: N_10  and  C_11 
REMARK    5  A    between atoms: C_11  and  C_12 
ROOT
HETATM    1  N   UNL     1      43.268 -13.605   6.181  1.00  0.00    -0.262 N 
HETATM    2  C   UNL     1      43.291 -14.843   6.786  1.00  0.00     0.286 C 
HETATM    3  O   UNL     1      43.207 -14.975   8.007  1.00  0.00    -0.264 OA
HETATM    4  H   UNL     1      43.260 -13.476   5.173  1.00  0.00     0.190 HD
ENDROOT
BRANCH   1   5
HETATM    5  N   UNL     1      43.024 -12.465   6.955  1.00  0.00    -0.267 N 
HETATM    6  C   UNL     1      44.108 -11.693   7.322  1.00  0.00     0.245 C 
HETATM    7  O   UNL     1      45.239 -11.904   6.882  1.00  0.00    -0.271 OA
HETATM    8  H   UNL     1      42.137 -12.429   7.460  1.00  0.00     0.190 HD
BRANCH   6   9
HETATM    9  C   UNL     1      43.789 -10.507   8.210  1.00  0.00     0.184 C 
BRANCH   9  10
HETATM   10  S   UNL     1      45.132 -10.200   9.403  1.00  0.00    -0.121 SA
BRANCH  10  11
HETATM   11  C   UNL     1      44.165  -9.825  10.855  1.00  0.00     0.001 A 
HETATM   12  C   UNL     1      43.988  -8.492  11.234  1.00  0.00     0.019 A 
HETATM   13  C   UNL     1      43.224  -8.172  12.360  1.00  0.00     0.008 A 
HETATM   14  C   UNL     1      42.624  -9.180  13.122  1.00  0.00    -0.062 A 
HETATM   15  C   UNL     1      41.789  -8.851  14.323  1.00  0.00     0.048 C 
HETATM   16  C   UNL     1      42.787 -10.514  12.729  1.00  0.00     0.008 A 
HETATM   17  C   UNL     1      43.548 -10.833  11.601  1.00  0.00     0.019 A 
ENDBRANCH  10  11
ENDBRANCH   9  10
ENDBRANCH   6   9
ENDBRANCH   1   5
BRANCH   2  18
HETATM   18  C   UNL     1      43.411 -15.969   5.888  1.00  0.00     0.103 A 
HETATM   19  N   UNL     1      42.872 -15.937   4.619  1.00  0.00    -0.351 N 
HETATM   20  H   UNL     1      42.364 -15.145   4.246  1.00  0.00     0.166 HD
HETATM   21  C   UNL     1      43.128 -17.104   3.942  1.00  0.00     0.043 A 
HETATM   22  C   UNL     1      43.845 -17.926   4.806  1.00  0.00    -0.007 A 
HETATM   23  C   UNL     1      42.783 -17.492   2.641  1.00  0.00     0.030 A 
HETATM   24  C   UNL     1      44.015 -17.209   6.022  1.00  0.00     0.049 A 
HETATM   25  C   UNL     1      44.241 -19.202   4.358  1.00  0.00     0.014 A 
HETATM   26  C   UNL     1      43.905 -19.606   3.061  1.00  0.00     0.001 A 
HETATM   27  C   UNL     1      43.186 -18.762   2.217  1.00  0.00     0.002 A 
ENDBRANCH   2  18
TORSDOF 5
ENDMDL
MODEL 2
REMARK VINA RESULT:      -8.6      2.481     10.170
REMARK  5 active torsions:
REMARK  status: ('A' for Active; 'I' for Inactive)
REMARK    1  A    between atoms: C_5  and  S_6 
REMARK    2  A    between atoms: S_6  and  C_7 
REMARK    3  A    between atoms: C_7  and  C_8 
REMARK       I    between atoms: C_8  and  N_9 
REMARK    4  A    between atoms: N_9  and  N_10 
REMARK       I    between atoms: N_10  and  C_11 
REMARK    5  A    between atoms: C_11  and  C_12 
ROOT
HETATM    1  N   UNL     1      43.442 -10.861   8.250  1.00  0.00    -0.262 N 
HETATM    2  C   UNL     1      44.322 -10.591   9.276  1.00  0.00     0.286 C 
HETATM    3  O   UNL     1      45.525 -10.835   9.185  1.00  0.00    -0.264 OA
HETATM    4  H   UNL     1      42.460 -10.599   8.273  1.00  0.00     0.190 HD
ENDROOT
BRANCH   1   5
HETATM    5  N   UNL     1      43.934 -11.316   7.022  1.00  0.00    -0.267 N 
HETATM    6  C   UNL     1      43.020 -11.584   6.023  1.00  0.00     0.245 C 
HETATM    7  O   UNL     1      41.825 -11.311   6.140  1.00  0.00    -0.271 OA
HETATM    8  H   UNL     1      44.873 -11.717   7.019  1.00  0.00     0.190 HD
BRANCH   6   9
HETATM    9  C   UNL     1      43.606 -12.133   4.737  1.00  0.00     0.184 C 
BRANCH   9  10
HETATM   10  S   UNL     1      42.297 -12.510   3.526  1.00  0.00    -0.121 SA
BRANCH  10  11
HETATM   11  C   UNL     1      42.666 -14.226   3.208  1.00  0.00     0.001 A 
HETATM   12  C   UNL     1      42.708 -15.126   4.275  1.00  0.00     0.019 A 
HETATM   13  C   UNL     1      42.983 -16.478   4.051  1.00  0.00     0.008 A 
HETATM   14  C   UNL     1      43.218 -16.950   2.755  1.00  0.00    -0.062 A 
HETATM   15  C   UNL     1      43.499 -18.400   2.498  1.00  0.00     0.048 C 
HETATM   16  C   UNL     1      43.157 -16.049   1.686  1.00  0.00     0.008 A 
HETATM   17  C   UNL     1      42.878 -14.699   1.910  1.00  0.00     0.019 A 
ENDBRANCH  10  11
ENDBRANCH   9  10
ENDBRANCH   6   9
ENDBRANCH   1   5
BRANCH   2  18
HETATM   18  C   UNL     1      43.735  -9.994  10.454  1.00  0.00     0.103 A 
HETATM   19  N   UNL     1      42.564 -10.478  10.998  1.00  0.00    -0.351 N 
HETATM   20  H   UNL     1      42.048 -11.259  10.611  1.00  0.00     0.166 HD
HETATM   21  C   UNL     1      42.210  -9.772  12.122  1.00  0.00     0.043 A 
HETATM   22  C   UNL     1      43.178  -8.789  12.305  1.00  0.00    -0.007 A 
HETATM   23  C   UNL     1      41.118  -9.929  12.983  1.00  0.00     0.030 A 
HETATM   24  C   UNL     1      44.126  -8.933  11.255  1.00  0.00     0.049 A 
HETATM   25  C   UNL     1      43.055  -7.911  13.400  1.00  0.00     0.014 A 
HETATM   26  C   UNL     1      41.970  -8.053  14.272  1.00  0.00     0.001 A 
HETATM   27  C   UNL     1      41.016  -9.048  14.064  1.00  0.00     0.002 A 
ENDBRANCH   2  18
TORSDOF 5
ENDMDL
MODEL 3
REMARK VINA RESULT:      -8.6      1.078      1.734
REMARK  5 active torsions:
REMARK  status: ('A' for Active; 'I' for Inactive)
REMARK    1  A    between atoms: C_5  and  S_6 
REMARK    2  A    between atoms: S_6  and  C_7 
REMARK    3  A    between atoms: C_7  and  C_8 
REMARK       I    between atoms: C_8  and  N_9 
REMARK    4  A    between atoms: N_9  and  N_10 
REMARK       I    between atoms: N_10  and  C_11 
REMARK    5  A    between atoms: C_11  and  C_12 
ROOT
HETATM    1  N   UNL     1      43.670 -13.224   6.621  1.00  0.00    -0.262 N 
HETATM    2  C   UNL     1      43.420 -14.538   6.953  1.00  0.00     0.286 C 
HETATM    3  O   UNL     1      43.223 -14.891   8.116  1.00  0.00    -0.264 OA
HETATM    4  H   UNL     1      43.760 -12.899   5.662  1.00  0.00     0.190 HD
ENDROOT
BRANCH   1   5
HETATM    5  N   UNL     1      43.582 -12.236   7.607  1.00  0.00    -0.267 N 
HETATM    6  C   UNL     1      44.646 -11.366   7.741  1.00  0.00     0.245 C 
HETATM    7  O   UNL     1      45.585 -11.354   6.944  1.00  0.00    -0.271 OA
HETATM    8  H   UNL     1      42.911 -12.391   8.361  1.00  0.00     0.190 HD
BRANCH   6   9
HETATM    9  C   UNL     1      44.521 -10.357   8.865  1.00  0.00     0.184 C 
BRANCH   9  10
HETATM   10  S   UNL     1      42.929  -9.473   8.782  1.00  0.00    -0.121 SA
BRANCH  10  11
HETATM   11  C   UNL     1      42.647  -9.198  10.522  1.00  0.00     0.001 A 
HETATM   12  C   UNL     1      41.483  -9.695  11.114  1.00  0.00     0.019 A 
HETATM   13  C   UNL     1      41.244  -9.504  12.478  1.00  0.00     0.008 A 
HETATM   14  C   UNL     1      42.168  -8.815  13.270  1.00  0.00    -0.062 A 
HETATM   15  C   UNL     1      41.933  -8.615  14.738  1.00  0.00     0.048 C 
HETATM   16  C   UNL     1      43.342  -8.334  12.679  1.00  0.00     0.008 A 
HETATM   17  C   UNL     1      43.582  -8.528  11.316  1.00  0.00     0.019 A 
ENDBRANCH  10  11
ENDBRANCH   9  10
ENDBRANCH   6   9
ENDBRANCH   1   5
BRANCH   2  18
HETATM   18  C   UNL     1      43.397 -15.464   5.844  1.00  0.00     0.103 A 
HETATM   19  N   UNL     1      44.072 -16.665   5.895  1.00  0.00    -0.351 N 
HETATM   20  H   UNL     1      44.621 -16.965   6.690  1.00  0.00     0.166 HD
HETATM   21  C   UNL     1      43.890 -17.387   4.740  1.00  0.00     0.043 A 
HETATM   22  C   UNL     1      43.079 -16.621   3.907  1.00  0.00    -0.007 A 
HETATM   23  C   UNL     1      44.375 -18.648   4.373  1.00  0.00     0.030 A 
HETATM   24  C   UNL     1      42.778 -15.418   4.604  1.00  0.00     0.049 A 
HETATM   25  C   UNL     1      42.731 -17.132   2.641  1.00  0.00     0.014 A 
HETATM   26  C   UNL     1      43.206 -18.391   2.258  1.00  0.00     0.001 A 
HETATM   27  C   UNL     1      44.017 -19.136   3.113  1.00  0.00     0.002 A 
ENDBRANCH   2  18
TORSDOF 5
ENDMDL
MODEL 4
REMARK VINA RESULT:      -8.4      6.832      9.414
REMARK  5 active torsions:
REMARK  status: ('A' for Active; 'I' for Inactive)
REMARK    1  A    between atoms: C_5  and  S_6 
REMARK    2  A    between atoms: S_6  and  C_7 
REMARK    3  A    between atoms: C_7  and  C_8 
REMARK       I    between atoms: C_8  and  N_9 
REMARK    4  A    between atoms: N_9  and  N_10 
REMARK       I    between atoms: N_10  and  C_11 
REMARK    5  A    between atoms: C_11  and  C_12 
ROOT
HETATM    1  N   UNL     1      42.256 -14.524   1.947  1.00  0.00    -0.262 N 
HETATM    2  C   UNL     1      42.878 -14.953   3.100  1.00  0.00     0.286 C 
HETATM    3  O   UNL     1      43.179 -14.176   4.006  1.00  0.00    -0.264 OA
HETATM    4  H   UNL     1      41.932 -15.157   1.221  1.00  0.00     0.190 HD
ENDROOT
BRANCH   1   5
HETATM    5  N   UNL     1      41.842 -13.192   1.842  1.00  0.00    -0.267 N 
HETATM    6  C   UNL     1      40.487 -12.935   1.880  1.00  0.00     0.245 C 
HETATM    7  O   UNL     1      39.662 -13.814   2.133  1.00  0.00    -0.271 OA
HETATM    8  H   UNL     1      42.508 -12.531   1.440  1.00  0.00     0.190 HD
BRANCH   6   9
HETATM    9  C   UNL     1      40.096 -11.482   1.699  1.00  0.00     0.184 C 
BRANCH   9  10
HETATM   10  S   UNL     1      40.709 -10.829   0.111  1.00  0.00    -0.121 SA
BRANCH  10  11
HETATM   11  C   UNL     1      39.930 -11.979  -1.008  1.00  0.00     0.001 A 
HETATM   12  C   UNL     1      40.726 -12.788  -1.823  1.00  0.00     0.019 A 
HETATM   13  C   UNL     1      40.140 -13.706  -2.699  1.00  0.00     0.008 A 
HETATM   14  C   UNL     1      38.749 -13.831  -2.770  1.00  0.00    -0.062 A 
HETATM   15  C   UNL     1      38.107 -14.822  -3.694  1.00  0.00     0.048 C 
HETATM   16  C   UNL     1      37.954 -13.033  -1.940  1.00  0.00     0.008 A 
HETATM   17  C   UNL     1      38.540 -12.118  -1.062  1.00  0.00     0.019 A 
ENDBRANCH  10  11
ENDBRANCH   9  10
ENDBRANCH   6   9
ENDBRANCH   1   5
BRANCH   2  18
HETATM   18  C   UNL     1      43.142 -16.372   3.171  1.00  0.00     0.103 A 
HETATM   19  N   UNL     1      43.522 -16.975   4.352  1.00  0.00    -0.351 N 
HETATM   20  H   UNL     1      43.645 -16.473   5.222  1.00  0.00     0.166 HD
HETATM   21  C   UNL     1      43.694 -18.327   4.185  1.00  0.00     0.043 A 
HETATM   22  C   UNL     1      43.430 -18.608   2.848  1.00  0.00    -0.007 A 
HETATM   23  C   UNL     1      44.059 -19.315   5.108  1.00  0.00     0.030 A 
HETATM   24  C   UNL     1      43.089 -17.378   2.220  1.00  0.00     0.049 A 
HETATM   25  C   UNL     1      43.536 -19.940   2.400  1.00  0.00     0.014 A 
HETATM   26  C   UNL     1      43.899 -20.940   3.309  1.00  0.00     0.001 A 
HETATM   27  C   UNL     1      44.157 -20.629   4.643  1.00  0.00     0.002 A 
ENDBRANCH   2  18
TORSDOF 5
ENDMDL
MODEL 5
REMARK VINA RESULT:      -8.1      7.127      9.444
REMARK  5 active torsions:
REMARK  status: ('A' for Active; 'I' for Inactive)
REMARK    1  A    between atoms: C_5  and  S_6 
REMARK    2  A    between atoms: S_6  and  C_7 
REMARK    3  A    between atoms: C_7  and  C_8 
REMARK       I    between atoms: C_8  and  N_9 
REMARK    4  A    between atoms: N_9  and  N_10 
REMARK       I    between atoms: N_10  and  C_11 
REMARK    5  A    between atoms: C_11  and  C_12 
ROOT
HETATM    1  N   UNL     1      42.158 -15.017   1.159  1.00  0.00    -0.262 N 
HETATM    2  C   UNL     1      42.861 -15.040   2.345  1.00  0.00     0.286 C 
HETATM    3  O   UNL     1      43.210 -14.007   2.916  1.00  0.00    -0.264 OA
HETATM    4  H   UNL     1      41.796 -15.853   0.709  1.00  0.00     0.190 HD
ENDROOT
BRANCH   1   5
HETATM    5  N   UNL     1      41.721 -13.793   0.641  1.00  0.00    -0.267 N 
HETATM    6  C   UNL     1      40.548 -13.786  -0.087  1.00  0.00     0.245 C 
HETATM    7  O   UNL     1      39.827 -14.781  -0.174  1.00  0.00    -0.271 OA
HETATM    8  H   UNL     1      42.417 -13.051   0.555  1.00  0.00     0.190 HD
BRANCH   6   9
HETATM    9  C   UNL     1      40.157 -12.444  -0.674  1.00  0.00     0.184 C 
BRANCH   9  10
HETATM   10  S   UNL     1      41.003 -11.078   0.187  1.00  0.00    -0.121 SA
BRANCH  10  11
HETATM   11  C   UNL     1      41.280  -9.980  -1.192  1.00  0.00     0.001 A 
HETATM   12  C   UNL     1      42.126  -8.880  -1.031  1.00  0.00     0.019 A 
HETATM   13  C   UNL     1      42.370  -8.012  -2.099  1.00  0.00     0.008 A 
HETATM   14  C   UNL     1      41.774  -8.233  -3.345  1.00  0.00    -0.062 A 
HETATM   15  C   UNL     1      42.038  -7.320  -4.504  1.00  0.00     0.048 C 
HETATM   16  C   UNL     1      40.942  -9.347  -3.509  1.00  0.00     0.008 A 
HETATM   17  C   UNL     1      40.701 -10.216  -2.442  1.00  0.00     0.019 A 
ENDBRANCH  10  11
ENDBRANCH   9  10
ENDBRANCH   6   9
ENDBRANCH   1   5
BRANCH   2  18
HETATM   18  C   UNL     1      43.147 -16.355   2.869  1.00  0.00     0.103 A 
HETATM   19  N   UNL     1      43.056 -17.481   2.078  1.00  0.00    -0.351 N 
HETATM   20  H   UNL     1      42.782 -17.459   1.104  1.00  0.00     0.166 HD
HETATM   21  C   UNL     1      43.394 -18.611   2.781  1.00  0.00     0.043 A 
HETATM   22  C   UNL     1      43.702 -18.206   4.077  1.00  0.00    -0.007 A 
HETATM   23  C   UNL     1      43.452 -19.949   2.373  1.00  0.00     0.030 A 
HETATM   24  C   UNL     1      43.542 -16.793   4.123  1.00  0.00     0.049 A 
HETATM   25  C   UNL     1      44.086 -19.179   5.020  1.00  0.00     0.014 A 
HETATM   26  C   UNL     1      44.150 -20.522   4.630  1.00  0.00     0.001 A 
HETATM   27  C   UNL     1      43.837 -20.898   3.325  1.00  0.00     0.002 A 
ENDBRANCH   2  18
TORSDOF 5
ENDMDL
MODEL 6
REMARK VINA RESULT:      -8.0      2.674     10.437
REMARK  5 active torsions:
REMARK  status: ('A' for Active; 'I' for Inactive)
REMARK    1  A    between atoms: C_5  and  S_6 
REMARK    2  A    between atoms: S_6  and  C_7 
REMARK    3  A    between atoms: C_7  and  C_8 
REMARK       I    between atoms: C_8  and  N_9 
REMARK    4  A    between atoms: N_9  and  N_10 
REMARK       I    between atoms: N_10  and  C_11 
REMARK    5  A    between atoms: C_11  and  C_12 
ROOT
HETATM    1  N   UNL     1      43.569 -10.610   9.649  1.00  0.00    -0.262 N 
HETATM    2  C   UNL     1      42.607  -9.640   9.833  1.00  0.00     0.286 C 
HETATM    3  O   UNL     1      41.835  -9.307   8.934  1.00  0.00    -0.264 OA
HETATM    4  H   UNL     1      44.165 -10.953  10.397  1.00  0.00     0.190 HD
ENDROOT
BRANCH   1   5
HETATM    5  N   UNL     1      43.602 -11.328   8.448  1.00  0.00    -0.267 N 
HETATM    6  C   UNL     1      44.769 -11.294   7.712  1.00  0.00     0.245 C 
HETATM    7  O   UNL     1      45.799 -10.772   8.142  1.00  0.00    -0.271 OA
HETATM    8  H   UNL     1      42.703 -11.572   8.030  1.00  0.00     0.190 HD
BRANCH   6   9
HETATM    9  C   UNL     1      44.725 -12.039   6.392  1.00  0.00     0.184 C 
BRANCH   9  10
HETATM   10  S   UNL     1      43.153 -11.739   5.520  1.00  0.00    -0.121 SA
BRANCH  10  11
HETATM   11  C   UNL     1      43.117 -13.174   4.462  1.00  0.00     0.001 A 
HETATM   12  C   UNL     1      43.230 -13.009   3.079  1.00  0.00     0.019 A 
HETATM   13  C   UNL     1      43.218 -14.119   2.229  1.00  0.00     0.008 A 
HETATM   14  C   UNL     1      43.096 -15.410   2.751  1.00  0.00    -0.062 A 
HETATM   15  C   UNL     1      43.097 -16.611   1.853  1.00  0.00     0.048 C 
HETATM   16  C   UNL     1      43.002 -15.575   4.137  1.00  0.00     0.008 A 
HETATM   17  C   UNL     1      43.018 -14.466   4.987  1.00  0.00     0.019 A 
ENDBRANCH  10  11
ENDBRANCH   9  10
ENDBRANCH   6   9
ENDBRANCH   1   5
BRANCH   2  18
HETATM   18  C   UNL     1      42.565  -9.052  11.153  1.00  0.00     0.103 A 
HETATM   19  N   UNL     1      41.604  -9.417  12.072  1.00  0.00    -0.351 N 
HETATM   20  H   UNL     1      40.879 -10.098  11.884  1.00  0.00     0.166 HD
HETATM   21  C   UNL     1      41.773  -8.747  13.259  1.00  0.00     0.043 A 
HETATM   22  C   UNL     1      42.874  -7.910  13.099  1.00  0.00    -0.007 A 
HETATM   23  C   UNL     1      41.044  -8.819  14.452  1.00  0.00     0.030 A 
HETATM   24  C   UNL     1      43.360  -8.105  11.777  1.00  0.00     0.049 A 
HETATM   25  C   UNL     1      43.272  -7.098  14.180  1.00  0.00     0.014 A 
HETATM   26  C   UNL     1      42.555  -7.157  15.380  1.00  0.00     0.001 A 
HETATM   27  C   UNL     1      41.457  -8.005  15.512  1.00  0.00     0.002 A 
ENDBRANCH   2  18
TORSDOF 5
ENDMDL
MODEL 7
REMARK VINA RESULT:      -8.0      5.741      9.465
REMARK  5 active torsions:
REMARK  status: ('A' for Active; 'I' for Inactive)
REMARK    1  A    between atoms: C_5  and  S_6 
REMARK    2  A    between atoms: S_6  and  C_7 
REMARK    3  A    between atoms: C_7  and  C_8 
REMARK       I    between atoms: C_8  and  N_9 
REMARK    4  A    between atoms: N_9  and  N_10 
REMARK       I    between atoms: N_10  and  C_11 
REMARK    5  A    between atoms: C_11  and  C_12 
ROOT
HETATM    1  N   UNL     1      40.135 -14.539   3.386  1.00  0.00    -0.262 N 
HETATM    2  C   UNL     1      40.178 -14.934   2.066  1.00  0.00     0.286 C 
HETATM    3  O   UNL     1      40.566 -16.053   1.732  1.00  0.00    -0.264 OA
HETATM    4  H   UNL     1      39.749 -13.649   3.690  1.00  0.00     0.190 HD
ENDROOT
BRANCH   1   5
HETATM    5  N   UNL     1      40.424 -15.467   4.393  1.00  0.00    -0.267 N 
HETATM    6  C   UNL     1      41.356 -15.111   5.346  1.00  0.00     0.245 C 
HETATM    7  O   UNL     1      41.827 -13.973   5.408  1.00  0.00    -0.271 OA
HETATM    8  H   UNL     1      40.184 -16.441   4.207  1.00  0.00     0.190 HD
BRANCH   6   9
HETATM    9  C   UNL     1      41.674 -16.178   6.374  1.00  0.00     0.184 C 
BRANCH   9  10
HETATM   10  S   UNL     1      43.462 -16.533   6.423  1.00  0.00    -0.121 SA
BRANCH  10  11
HETATM   11  C   UNL     1      43.572 -17.701   5.079  1.00  0.00     0.001 A 
HETATM   12  C   UNL     1      43.381 -17.257   3.768  1.00  0.00     0.019 A 
HETATM   13  C   UNL     1      43.475 -18.150   2.696  1.00  0.00     0.008 A 
HETATM   14  C   UNL     1      43.764 -19.499   2.921  1.00  0.00    -0.062 A 
HETATM   15  C   UNL     1      43.884 -20.466   1.780  1.00  0.00     0.048 C 
HETATM   16  C   UNL     1      43.974 -19.939   4.233  1.00  0.00     0.008 A 
HETATM   17  C   UNL     1      43.884 -19.045   5.303  1.00  0.00     0.019 A 
ENDBRANCH  10  11
ENDBRANCH   9  10
ENDBRANCH   6   9
ENDBRANCH   1   5
BRANCH   2  18
HETATM   18  C   UNL     1      39.730 -13.948   1.110  1.00  0.00     0.103 A 
HETATM   19  N   UNL     1      39.471 -14.284  -0.202  1.00  0.00    -0.351 N 
HETATM   20  H   UNL     1      39.583 -15.219  -0.573  1.00  0.00     0.166 HD
HETATM   21  C   UNL     1      39.037 -13.194  -0.917  1.00  0.00     0.043 A 
HETATM   22  C   UNL     1      39.028 -12.112  -0.042  1.00  0.00    -0.007 A 
HETATM   23  C   UNL     1      38.655 -13.085  -2.260  1.00  0.00     0.030 A 
HETATM   24  C   UNL     1      39.466 -12.592   1.223  1.00  0.00     0.049 A 
HETATM   25  C   UNL     1      38.619 -10.852  -0.524  1.00  0.00     0.014 A 
HETATM   26  C   UNL     1      38.233 -10.724  -1.863  1.00  0.00     0.001 A 
HETATM   27  C   UNL     1      38.252 -11.826  -2.716  1.00  0.00     0.002 A 
ENDBRANCH   2  18
TORSDOF 5
ENDMDL
MODEL 8
REMARK VINA RESULT:      -7.9      5.309      7.219
REMARK  5 active torsions:
REMARK  status: ('A' for Active; 'I' for Inactive)
REMARK    1  A    between atoms: C_5  and  S_6 
REMARK    2  A    between atoms: S_6  and  C_7 
REMARK    3  A    between atoms: C_7  and  C_8 
REMARK       I    between atoms: C_8  and  N_9 
REMARK    4  A    between atoms: N_9  and  N_10 
REMARK       I    between atoms: N_10  and  C_11 
REMARK    5  A    between atoms: C_11  and  C_12 
ROOT
HETATM    1  N   UNL     1      41.951 -15.261   1.039  1.00  0.00    -0.262 N 
HETATM    2  C   UNL     1      42.952 -15.352   1.982  1.00  0.00     0.286 C 
HETATM    3  O   UNL     1      43.575 -14.365   2.370  1.00  0.00    -0.264 OA
HETATM    4  H   UNL     1      41.374 -16.049   0.759  1.00  0.00     0.190 HD
ENDROOT
BRANCH   1   5
HETATM    5  N   UNL     1      41.542 -14.001   0.588  1.00  0.00    -0.267 N 
HETATM    6  C   UNL     1      40.406 -13.935  -0.193  1.00  0.00     0.245 C 
HETATM    7  O   UNL     1      39.687 -14.917  -0.384  1.00  0.00    -0.271 OA
HETATM    8  H   UNL     1      42.243 -13.259   0.588  1.00  0.00     0.190 HD
BRANCH   6   9
HETATM    9  C   UNL     1      40.047 -12.553  -0.702  1.00  0.00     0.184 C 
BRANCH   9  10
HETATM   10  S   UNL     1      38.665 -11.841   0.250  1.00  0.00    -0.121 SA
BRANCH  10  11
HETATM   11  C   UNL     1      39.393 -11.835   1.879  1.00  0.00     0.001 A 
HETATM   12  C   UNL     1      40.384 -10.899   2.182  1.00  0.00     0.019 A 
HETATM   13  C   UNL     1      40.962 -10.866   3.455  1.00  0.00     0.008 A 
HETATM   14  C   UNL     1      40.553 -11.767   4.443  1.00  0.00    -0.062 A 
HETATM   15  C   UNL     1      41.152 -11.734   5.817  1.00  0.00     0.048 C 
HETATM   16  C   UNL     1      39.547 -12.692   4.143  1.00  0.00     0.008 A 
HETATM   17  C   UNL     1      38.968 -12.723   2.871  1.00  0.00     0.019 A 
ENDBRANCH  10  11
ENDBRANCH   9  10
ENDBRANCH   6   9
ENDBRANCH   1   5
BRANCH   2  18
HETATM   18  C   UNL     1      43.207 -16.682   2.487  1.00  0.00     0.103 A 
HETATM   19  N   UNL     1      43.501 -16.903   3.816  1.00  0.00    -0.351 N 
HETATM   20  H   UNL     1      43.563 -16.165   4.505  1.00  0.00     0.166 HD
HETATM   21  C   UNL     1      43.683 -18.241   4.067  1.00  0.00     0.043 A 
HETATM   22  C   UNL     1      43.515 -18.909   2.857  1.00  0.00    -0.007 A 
HETATM   23  C   UNL     1      43.980 -18.906   5.263  1.00  0.00     0.030 A 
HETATM   24  C   UNL     1      43.221 -17.925   1.873  1.00  0.00     0.049 A 
HETATM   25  C   UNL     1      43.651 -20.311   2.831  1.00  0.00     0.014 A 
HETATM   26  C   UNL     1      43.947 -20.992   4.017  1.00  0.00     0.001 A 
HETATM   27  C   UNL     1      44.109 -20.298   5.214  1.00  0.00     0.002 A 
ENDBRANCH   2  18
TORSDOF 5
ENDMDL
MODEL 9
REMARK VINA RESULT:      -7.9      2.387      3.505
REMARK  5 active torsions:
REMARK  status: ('A' for Active; 'I' for Inactive)
REMARK    1  A    between atoms: C_5  and  S_6 
REMARK    2  A    between atoms: S_6  and  C_7 
REMARK    3  A    between atoms: C_7  and  C_8 
REMARK       I    between atoms: C_8  and  N_9 
REMARK    4  A    between atoms: N_9  and  N_10 
REMARK       I    between atoms: N_10  and  C_11 
REMARK    5  A    between atoms: C_11  and  C_12 
ROOT
HETATM    1  N   UNL     1      41.818 -13.983   4.436  1.00  0.00    -0.262 N 
HETATM    2  C   UNL     1      42.855 -14.684   5.012  1.00  0.00     0.286 C 
HETATM    3  O   UNL     1      43.536 -14.211   5.922  1.00  0.00    -0.264 OA
HETATM    4  H   UNL     1      41.196 -14.380   3.737  1.00  0.00     0.190 HD
ENDROOT
BRANCH   1   5
HETATM    5  N   UNL     1      41.442 -12.745   4.970  1.00  0.00    -0.267 N 
HETATM    6  C   UNL     1      40.378 -12.721   5.849  1.00  0.00     0.245 C 
HETATM    7  O   UNL     1      39.852 -13.753   6.267  1.00  0.00    -0.271 OA
HETATM    8  H   UNL     1      41.749 -11.911   4.467  1.00  0.00     0.190 HD
BRANCH   6   9
HETATM    9  C   UNL     1      39.979 -11.346   6.346  1.00  0.00     0.184 C 
BRANCH   9  10
HETATM   10  S   UNL     1      41.161 -10.075   5.788  1.00  0.00    -0.121 SA
BRANCH  10  11
HETATM   11  C   UNL     1      42.260 -10.051   7.193  1.00  0.00     0.001 A 
HETATM   12  C   UNL     1      43.456 -10.772   7.140  1.00  0.00     0.019 A 
HETATM   13  C   UNL     1      44.340 -10.759   8.222  1.00  0.00     0.008 A 
HETATM   14  C   UNL     1      44.043 -10.022   9.373  1.00  0.00    -0.062 A 
HETATM   15  C   UNL     1      44.989  -9.986  10.536  1.00  0.00     0.048 C 
HETATM   16  C   UNL     1      42.854  -9.285   9.417  1.00  0.00     0.008 A 
HETATM   17  C   UNL     1      41.972  -9.296   8.333  1.00  0.00     0.019 A 
ENDBRANCH  10  11
ENDBRANCH   9  10
ENDBRANCH   6   9
ENDBRANCH   1   5
BRANCH   2  18
HETATM   18  C   UNL     1      43.077 -16.010   4.481  1.00  0.00     0.103 A 
HETATM   19  N   UNL     1      43.514 -17.042   5.283  1.00  0.00    -0.351 N 
HETATM   20  H   UNL     1      43.710 -16.939   6.271  1.00  0.00     0.166 HD
HETATM   21  C   UNL     1      43.632 -18.210   4.569  1.00  0.00     0.043 A 
HETATM   22  C   UNL     1      43.272 -17.921   3.256  1.00  0.00    -0.007 A 
HETATM   23  C   UNL     1      44.025 -19.489   4.982  1.00  0.00     0.030 A 
HETATM   24  C   UNL     1      42.929 -16.541   3.209  1.00  0.00     0.049 A 
HETATM   25  C   UNL     1      43.305 -18.954   2.299  1.00  0.00     0.014 A 
HETATM   26  C   UNL     1      43.695 -20.239   2.694  1.00  0.00     0.001 A 
HETATM   27  C   UNL     1      44.050 -20.499   4.016  1.00  0.00     0.002 A 
ENDBRANCH   2  18
TORSDOF 5
ENDMDL
MODEL 10
REMARK VINA RESULT:      -7.7      7.528     10.199
REMARK  5 active torsions:
REMARK  status: ('A' for Active; 'I' for Inactive)
REMARK    1  A    between atoms: C_5  and  S_6 
REMARK    2  A    between atoms: S_6  and  C_7 
REMARK    3  A    between atoms: C_7  and  C_8 
REMARK       I    between atoms: C_8  and  N_9 
REMARK    4  A    between atoms: N_9  and  N_10 
REMARK       I    between atoms: N_10  and  C_11 
REMARK    5  A    between atoms: C_11  and  C_12 
ROOT
HETATM    1  N   UNL     1      41.949 -15.215   1.156  1.00  0.00    -0.262 N 
HETATM    2  C   UNL     1      43.012 -15.347   2.024  1.00  0.00     0.286 C 
HETATM    3  O   UNL     1      43.702 -14.385   2.359  1.00  0.00    -0.264 OA
HETATM    4  H   UNL     1      41.320 -15.980   0.924  1.00  0.00     0.190 HD
ENDROOT
BRANCH   1   5
HETATM    5  N   UNL     1      41.561 -13.940   0.730  1.00  0.00    -0.267 N 
HETATM    6  C   UNL     1      40.506 -13.853  -0.156  1.00  0.00     0.245 C 
HETATM    7  O   UNL     1      39.830 -14.835  -0.467  1.00  0.00    -0.271 OA
HETATM    8  H   UNL     1      42.243 -13.189   0.836  1.00  0.00     0.190 HD
BRANCH   6   9
HETATM    9  C   UNL     1      40.171 -12.452  -0.629  1.00  0.00     0.184 C 
BRANCH   9  10
HETATM   10  S   UNL     1      38.758 -11.766   0.296  1.00  0.00    -0.121 SA
BRANCH  10  11
HETATM   11  C   UNL     1      37.621 -11.491  -1.051  1.00  0.00     0.001 A 
HETATM   12  C   UNL     1      37.423 -12.500  -1.997  1.00  0.00     0.019 A 
HETATM   13  C   UNL     1      36.528 -12.314  -3.055  1.00  0.00     0.008 A 
HETATM   14  C   UNL     1      35.818 -11.116  -3.181  1.00  0.00    -0.062 A 
HETATM   15  C   UNL     1      34.844 -10.907  -4.302  1.00  0.00     0.048 C 
HETATM   16  C   UNL     1      36.004 -10.113  -2.222  1.00  0.00     0.008 A 
HETATM   17  C   UNL     1      36.896 -10.301  -1.163  1.00  0.00     0.019 A 
ENDBRANCH  10  11
ENDBRANCH   9  10
ENDBRANCH   6   9
ENDBRANCH   1   5
BRANCH   2  18
HETATM   18  C   UNL     1      43.248 -16.685   2.515  1.00  0.00     0.103 A 
HETATM   19  N   UNL     1      43.528 -16.924   3.844  1.00  0.00    -0.351 N 
HETATM   20  H   UNL     1      43.592 -16.195   4.543  1.00  0.00     0.166 HD
HETATM   21  C   UNL     1      43.694 -18.267   4.082  1.00  0.00     0.043 A 
HETATM   22  C   UNL     1      43.529 -18.919   2.863  1.00  0.00    -0.007 A 
HETATM   23  C   UNL     1      43.973 -18.948   5.273  1.00  0.00     0.030 A 
HETATM   24  C   UNL     1      43.254 -17.921   1.888  1.00  0.00     0.049 A 
HETATM   25  C   UNL     1      43.649 -20.322   2.822  1.00  0.00     0.014 A 
HETATM   26  C   UNL     1      43.928 -21.020   4.002  1.00  0.00     0.001 A 
HETATM   27  C   UNL     1      44.088 -20.340   5.209  1.00  0.00     0.002 A 
ENDBRANCH   2  18
TORSDOF 5
ENDMDL
