MODEL 1
REMARK VINA RESULT:      -8.9      0.000      0.000
REMARK  9 active torsions:
REMARK  status: ('A' for Active; 'I' for Inactive)
REMARK    1  A    between atoms: C_2  and  O_3 
REMARK    2  A    between atoms: O_3  and  C_4 
REMARK    3  A    between atoms: C_7  and  C_8 
REMARK    4  A    between atoms: C_9  and  C_10 
REMARK       I    between atoms: C_10  and  N_11 
REMARK    5  A    between atoms: N_11  and  C_12 
REMARK    6  A    between atoms: C_22  and  S_23 
REMARK    7  A    between atoms: S_23  and  C_24 
REMARK    8  A    between atoms: C_24  and  C_25 
REMARK       I    between atoms: C_25  and  N_26 
REMARK    9  A    between atoms: N_26  and  C_27 
ROOT
HETATM    1  C   UNL     1      41.966 -12.087   2.133  1.00  0.00     0.104 C 
HETATM    2  C   UNL     1      40.568 -11.642   1.695  1.00  0.00     0.046 C 
HETATM    3  C   UNL     1      39.744 -11.026   2.573  1.00  0.00     0.019 C 
HETATM    4  C   UNL     1      38.282 -10.725   2.342  1.00  0.00     0.069 C 
HETATM    5  N   UNL     1      40.240 -10.625   3.803  1.00  0.00    -0.353 N 
HETATM    6  C   UNL     1      41.580 -10.635   4.158  1.00  0.00     0.087 C 
HETATM    7  C   UNL     1      42.436 -11.382   3.407  1.00  0.00     0.055 C 
HETATM    8  C   UNL     1      43.895 -11.544   3.803  1.00  0.00     0.019 C 
HETATM    9  N   UNL     1      45.105 -11.678   4.131  1.00  0.00    -0.096 N 
HETATM   10  H   UNL     1      39.591 -10.082   4.373  1.00  0.00     0.166 HD
ENDROOT
BRANCH   1  11
HETATM   11  C   UNL     1      42.083 -13.604   2.286  1.00  0.00    -0.044 A 
HETATM   12  C   UNL     1      43.214 -14.273   1.791  1.00  0.00     0.011 A 
HETATM   13  C   UNL     1      43.347 -15.660   1.928  1.00  0.00     0.037 A 
HETATM   14  C   UNL     1      42.350 -16.402   2.558  1.00  0.00     0.068 A 
HETATM   15  C   UNL     1      41.225 -15.745   3.057  1.00  0.00     0.037 A 
HETATM   16  C   UNL     1      41.093 -14.359   2.934  1.00  0.00     0.011 A 
BRANCH  14  17
HETATM   17  O   UNL     1      42.349 -17.757   2.744  1.00  0.00    -0.352 OA
BRANCH  17  18
HETATM   18  C   UNL     1      43.618 -18.385   2.927  1.00  0.00     0.171 C 
HETATM   19  C   UNL     1      43.560 -19.753   2.272  1.00  0.00     0.034 C 
ENDBRANCH  17  18
ENDBRANCH  14  17
ENDBRANCH   1  11
BRANCH   6  20
HETATM   20  S   UNL     1      42.252  -9.679   5.481  1.00  0.00    -0.102 SA
BRANCH  20  21
HETATM   21  C   UNL     1      42.046 -10.651   6.982  1.00  0.00     0.184 C 
BRANCH  21  22
HETATM   22  C   UNL     1      42.818 -11.956   6.973  1.00  0.00     0.231 C 
HETATM   23  N   UNL     1      42.174 -13.013   6.362  1.00  0.00    -0.326 N 
HETATM   24  H   UNL     1      41.418 -12.771   5.733  1.00  0.00     0.169 HD
HETATM   25  O   UNL     1      43.951 -11.984   7.453  1.00  0.00    -0.272 OA
BRANCH  23  26
HETATM   26  C   UNL     1      42.592 -14.366   6.382  1.00  0.00     0.040 A 
HETATM   27  C   UNL     1      41.637 -15.390   6.551  1.00  0.00    -0.035 A 
HETATM   28  C   UNL     1      40.161 -15.113   6.626  1.00  0.00     0.050 C 
HETATM   29  C   UNL     1      42.070 -16.727   6.636  1.00  0.00     0.009 A 
HETATM   30  C   UNL     1      43.422 -17.051   6.552  1.00  0.00     0.001 A 
HETATM   31  C   UNL     1      44.361 -16.042   6.379  1.00  0.00     0.002 A 
HETATM   32  C   UNL     1      43.949 -14.711   6.294  1.00  0.00     0.030 A 
ENDBRANCH  23  26
ENDBRANCH  21  22
ENDBRANCH  20  21
ENDBRANCH   6  20
BRANCH   2  33
HETATM   33  C   UNL     1      40.215 -11.895   0.261  1.00  0.00     0.255 C 
HETATM   34  N   UNL     1      39.245 -12.869   0.113  1.00  0.00    -0.323 N 
HETATM   35  H   UNL     1      38.881 -13.288   0.959  1.00  0.00     0.169 HD
HETATM   36  O   UNL     1      40.710 -11.216  -0.626  1.00  0.00    -0.268 OA
BRANCH  34  37
HETATM   37  C   UNL     1      38.736 -13.406  -1.088  1.00  0.00     0.035 A 
HETATM   38  C   UNL     1      37.695 -12.836  -1.821  1.00  0.00     0.029 A 
HETATM   39  C   UNL     1      37.264 -13.426  -3.014  1.00  0.00     0.002 A 
HETATM   40  C   UNL     1      37.877 -14.584  -3.488  1.00  0.00     0.000 A 
HETATM   41  C   UNL     1      38.918 -15.159  -2.765  1.00  0.00     0.002 A 
HETATM   42  C   UNL     1      39.340 -14.577  -1.567  1.00  0.00     0.029 A 
ENDBRANCH  34  37
ENDBRANCH   2  33
TORSDOF 9
ENDMDL
MODEL 2
REMARK VINA RESULT:      -8.9      3.458      7.047
REMARK  9 active torsions:
REMARK  status: ('A' for Active; 'I' for Inactive)
REMARK    1  A    between atoms: C_2  and  O_3 
REMARK    2  A    between atoms: O_3  and  C_4 
REMARK    3  A    between atoms: C_7  and  C_8 
REMARK    4  A    between atoms: C_9  and  C_10 
REMARK       I    between atoms: C_10  and  N_11 
REMARK    5  A    between atoms: N_11  and  C_12 
REMARK    6  A    between atoms: C_22  and  S_23 
REMARK    7  A    between atoms: S_23  and  C_24 
REMARK    8  A    between atoms: C_24  and  C_25 
REMARK       I    between atoms: C_25  and  N_26 
REMARK    9  A    between atoms: N_26  and  C_27 
ROOT
HETATM    1  C   UNL     1      40.791 -12.644   5.191  1.00  0.00     0.104 C 
HETATM    2  C   UNL     1      42.052 -13.309   5.749  1.00  0.00     0.046 C 
HETATM    3  C   UNL     1      42.984 -12.570   6.392  1.00  0.00     0.019 C 
HETATM    4  C   UNL     1      44.355 -13.050   6.803  1.00  0.00     0.069 C 
HETATM    5  N   UNL     1      42.701 -11.253   6.714  1.00  0.00    -0.353 N 
HETATM    6  C   UNL     1      41.453 -10.658   6.597  1.00  0.00     0.087 C 
HETATM    7  C   UNL     1      40.522 -11.273   5.818  1.00  0.00     0.055 C 
HETATM    8  C   UNL     1      39.176 -10.625   5.540  1.00  0.00     0.019 C 
HETATM    9  N   UNL     1      38.059 -10.088   5.309  1.00  0.00    -0.096 N 
HETATM   10  H   UNL     1      43.408 -10.786   7.282  1.00  0.00     0.166 HD
ENDROOT
BRANCH   1  11
HETATM   11  C   UNL     1      40.801 -12.543   3.665  1.00  0.00    -0.044 A 
HETATM   12  C   UNL     1      41.672 -11.645   3.028  1.00  0.00     0.011 A 
HETATM   13  C   UNL     1      41.705 -11.542   1.633  1.00  0.00     0.037 A 
HETATM   14  C   UNL     1      40.866 -12.332   0.850  1.00  0.00     0.068 A 
HETATM   15  C   UNL     1      40.001 -13.232   1.475  1.00  0.00     0.037 A 
HETATM   16  C   UNL     1      39.972 -13.347   2.867  1.00  0.00     0.011 A 
BRANCH  14  17
HETATM   17  O   UNL     1      40.789 -12.320  -0.515  1.00  0.00    -0.352 OA
BRANCH  17  18
HETATM   18  C   UNL     1      39.710 -13.041  -1.109  1.00  0.00     0.171 C 
HETATM   19  C   UNL     1      40.240 -13.735  -2.350  1.00  0.00     0.034 C 
ENDBRANCH  17  18
ENDBRANCH  14  17
ENDBRANCH   1  11
BRANCH   6  20
HETATM   20  S   UNL     1      40.980  -9.191   7.458  1.00  0.00    -0.102 SA
BRANCH  20  21
HETATM   21  C   UNL     1      42.343  -8.028   7.291  1.00  0.00     0.184 C 
BRANCH  21  22
HETATM   22  C   UNL     1      42.952  -7.610   8.615  1.00  0.00     0.231 C 
HETATM   23  N   UNL     1      42.219  -7.956   9.733  1.00  0.00    -0.326 N 
HETATM   24  H   UNL     1      41.531  -8.688   9.605  1.00  0.00     0.169 HD
HETATM   25  O   UNL     1      44.048  -7.049   8.618  1.00  0.00    -0.272 OA
BRANCH  23  26
HETATM   26  C   UNL     1      42.471  -7.527  11.058  1.00  0.00     0.040 A 
HETATM   27  C   UNL     1      43.090  -8.406  11.971  1.00  0.00    -0.035 A 
HETATM   28  C   UNL     1      43.578  -9.772  11.572  1.00  0.00     0.050 C 
HETATM   29  C   UNL     1      43.276  -7.995  13.304  1.00  0.00     0.009 A 
HETATM   30  C   UNL     1      42.864  -6.734  13.731  1.00  0.00     0.001 A 
HETATM   31  C   UNL     1      42.261  -5.866  12.830  1.00  0.00     0.002 A 
HETATM   32  C   UNL     1      42.068  -6.260  11.504  1.00  0.00     0.030 A 
ENDBRANCH  23  26
ENDBRANCH  21  22
ENDBRANCH  20  21
ENDBRANCH   6  20
BRANCH   2  33
HETATM   33  C   UNL     1      42.147 -14.794   5.570  1.00  0.00     0.255 C 
HETATM   34  N   UNL     1      43.031 -15.156   4.571  1.00  0.00    -0.323 N 
HETATM   35  H   UNL     1      43.510 -14.408   4.087  1.00  0.00     0.169 HD
HETATM   36  O   UNL     1      41.545 -15.546   6.321  1.00  0.00    -0.268 OA
BRANCH  34  37
HETATM   37  C   UNL     1      43.305 -16.453   4.089  1.00  0.00     0.035 A 
HETATM   38  C   UNL     1      44.077 -17.394   4.769  1.00  0.00     0.029 A 
HETATM   39  C   UNL     1      44.284 -18.666   4.225  1.00  0.00     0.002 A 
HETATM   40  C   UNL     1      43.712 -19.010   3.002  1.00  0.00     0.000 A 
HETATM   41  C   UNL     1      42.936 -18.080   2.317  1.00  0.00     0.002 A 
HETATM   42  C   UNL     1      42.741 -16.805   2.854  1.00  0.00     0.029 A 
ENDBRANCH  34  37
ENDBRANCH   2  33
TORSDOF 9
ENDMDL
MODEL 3
REMARK VINA RESULT:      -8.8      3.315      8.502
REMARK  9 active torsions:
REMARK  status: ('A' for Active; 'I' for Inactive)
REMARK    1  A    between atoms: C_2  and  O_3 
REMARK    2  A    between atoms: O_3  and  C_4 
REMARK    3  A    between atoms: C_7  and  C_8 
REMARK    4  A    between atoms: C_9  and  C_10 
REMARK       I    between atoms: C_10  and  N_11 
REMARK    5  A    between atoms: N_11  and  C_12 
REMARK    6  A    between atoms: C_22  and  S_23 
REMARK    7  A    between atoms: S_23  and  C_24 
REMARK    8  A    between atoms: C_24  and  C_25 
REMARK       I    between atoms: C_25  and  N_26 
REMARK    9  A    between atoms: N_26  and  C_27 
ROOT
HETATM    1  C   UNL     1      42.640 -11.449   4.393  1.00  0.00     0.104 C 
HETATM    2  C   UNL     1      43.256 -12.339   5.475  1.00  0.00     0.046 C 
HETATM    3  C   UNL     1      43.072 -13.679   5.441  1.00  0.00     0.019 C 
HETATM    4  C   UNL     1      43.439 -14.644   6.542  1.00  0.00     0.069 C 
HETATM    5  N   UNL     1      42.493 -14.256   4.322  1.00  0.00    -0.353 N 
HETATM    6  C   UNL     1      42.243 -13.594   3.129  1.00  0.00     0.087 C 
HETATM    7  C   UNL     1      42.246 -12.233   3.139  1.00  0.00     0.055 C 
HETATM    8  C   UNL     1      41.861 -11.436   1.903  1.00  0.00     0.019 C 
HETATM    9  N   UNL     1      41.541 -10.773   0.879  1.00  0.00    -0.096 N 
HETATM   10  H   UNL     1      42.474 -15.276   4.324  1.00  0.00     0.166 HD
ENDROOT
BRANCH   1  11
HETATM   11  C   UNL     1      41.455 -10.629   4.906  1.00  0.00    -0.044 A 
HETATM   12  C   UNL     1      40.345 -11.278   5.470  1.00  0.00     0.011 A 
HETATM   13  C   UNL     1      39.254 -10.548   5.954  1.00  0.00     0.037 A 
HETATM   14  C   UNL     1      39.251  -9.157   5.881  1.00  0.00     0.068 A 
HETATM   15  C   UNL     1      40.353  -8.503   5.328  1.00  0.00     0.037 A 
HETATM   16  C   UNL     1      41.450  -9.226   4.853  1.00  0.00     0.011 A 
BRANCH  14  17
HETATM   17  O   UNL     1      38.248  -8.329   6.303  1.00  0.00    -0.352 OA
BRANCH  17  18
HETATM   18  C   UNL     1      38.636  -7.072   6.856  1.00  0.00     0.171 C 
HETATM   19  C   UNL     1      38.791  -7.251   8.355  1.00  0.00     0.034 C 
ENDBRANCH  17  18
ENDBRANCH  14  17
ENDBRANCH   1  11
BRANCH   6  20
HETATM   20  S   UNL     1      41.995 -14.414   1.585  1.00  0.00    -0.102 SA
BRANCH  20  21
HETATM   21  C   UNL     1      43.150 -15.793   1.536  1.00  0.00     0.184 C 
BRANCH  21  22
HETATM   22  C   UNL     1      42.854 -16.871   2.560  1.00  0.00     0.231 C 
HETATM   23  N   UNL     1      43.954 -17.584   2.994  1.00  0.00    -0.326 N 
HETATM   24  H   UNL     1      44.856 -17.152   2.838  1.00  0.00     0.169 HD
HETATM   25  O   UNL     1      41.700 -17.011   2.965  1.00  0.00    -0.272 OA
BRANCH  23  26
HETATM   26  C   UNL     1      43.925 -18.751   3.798  1.00  0.00     0.040 A 
HETATM   27  C   UNL     1      43.843 -20.018   3.185  1.00  0.00    -0.035 A 
HETATM   28  C   UNL     1      43.870 -20.197   1.692  1.00  0.00     0.050 C 
HETATM   29  C   UNL     1      43.748 -21.168   3.993  1.00  0.00     0.009 A 
HETATM   30  C   UNL     1      43.739 -21.070   5.383  1.00  0.00     0.001 A 
HETATM   31  C   UNL     1      43.827 -19.822   5.985  1.00  0.00     0.002 A 
HETATM   32  C   UNL     1      43.920 -18.671   5.197  1.00  0.00     0.030 A 
ENDBRANCH  23  26
ENDBRANCH  21  22
ENDBRANCH  20  21
ENDBRANCH   6  20
BRANCH   2  33
HETATM   33  C   UNL     1      44.084 -11.641   6.511  1.00  0.00     0.255 C 
HETATM   34  N   UNL     1      43.340 -11.226   7.599  1.00  0.00    -0.323 N 
HETATM   35  H   UNL     1      42.350 -11.437   7.588  1.00  0.00     0.169 HD
HETATM   36  O   UNL     1      45.295 -11.559   6.380  1.00  0.00    -0.268 OA
BRANCH  34  37
HETATM   37  C   UNL     1      43.778 -10.478   8.711  1.00  0.00     0.035 A 
HETATM   38  C   UNL     1      45.000 -10.676   9.355  1.00  0.00     0.029 A 
HETATM   39  C   UNL     1      45.364  -9.875  10.442  1.00  0.00     0.002 A 
HETATM   40  C   UNL     1      44.516  -8.862  10.887  1.00  0.00     0.000 A 
HETATM   41  C   UNL     1      43.297  -8.654  10.249  1.00  0.00     0.002 A 
HETATM   42  C   UNL     1      42.927  -9.463   9.171  1.00  0.00     0.029 A 
ENDBRANCH  34  37
ENDBRANCH   2  33
TORSDOF 9
ENDMDL
MODEL 4
REMARK VINA RESULT:      -8.6      2.854      4.258
REMARK  9 active torsions:
REMARK  status: ('A' for Active; 'I' for Inactive)
REMARK    1  A    between atoms: C_2  and  O_3 
REMARK    2  A    between atoms: O_3  and  C_4 
REMARK    3  A    between atoms: C_7  and  C_8 
REMARK    4  A    between atoms: C_9  and  C_10 
REMARK       I    between atoms: C_10  and  N_11 
REMARK    5  A    between atoms: N_11  and  C_12 
REMARK    6  A    between atoms: C_22  and  S_23 
REMARK    7  A    between atoms: S_23  and  C_24 
REMARK    8  A    between atoms: C_24  and  C_25 
REMARK       I    between atoms: C_25  and  N_26 
REMARK    9  A    between atoms: N_26  and  C_27 
ROOT
HETATM    1  C   UNL     1      42.148 -11.920   2.995  1.00  0.00     0.104 C 
HETATM    2  C   UNL     1      40.790 -11.495   2.430  1.00  0.00     0.046 C 
HETATM    3  C   UNL     1      39.858 -10.944   3.241  1.00  0.00     0.019 C 
HETATM    4  C   UNL     1      38.420 -10.674   2.869  1.00  0.00     0.069 C 
HETATM    5  N   UNL     1      40.208 -10.587   4.533  1.00  0.00    -0.353 N 
HETATM    6  C   UNL     1      41.504 -10.576   5.029  1.00  0.00     0.087 C 
HETATM    7  C   UNL     1      42.458 -11.262   4.342  1.00  0.00     0.055 C 
HETATM    8  C   UNL     1      43.872 -11.401   4.884  1.00  0.00     0.019 C 
HETATM    9  N   UNL     1      45.044 -11.516   5.332  1.00  0.00    -0.096 N 
HETATM   10  H   UNL     1      39.486 -10.090   5.055  1.00  0.00     0.166 HD
ENDROOT
BRANCH   1  11
HETATM   11  C   UNL     1      42.298 -13.438   3.093  1.00  0.00    -0.044 A 
HETATM   12  C   UNL     1      43.112 -14.123   2.176  1.00  0.00     0.011 A 
HETATM   13  C   UNL     1      43.272 -15.511   2.252  1.00  0.00     0.037 A 
HETATM   14  C   UNL     1      42.619 -16.240   3.244  1.00  0.00     0.068 A 
HETATM   15  C   UNL     1      41.813 -15.567   4.164  1.00  0.00     0.037 A 
HETATM   16  C   UNL     1      41.660 -14.180   4.099  1.00  0.00     0.011 A 
BRANCH  14  17
HETATM   17  O   UNL     1      42.679 -17.595   3.420  1.00  0.00    -0.352 OA
BRANCH  17  18
HETATM   18  C   UNL     1      43.788 -18.275   2.835  1.00  0.00     0.171 C 
HETATM   19  C   UNL     1      43.269 -19.548   2.193  1.00  0.00     0.034 C 
ENDBRANCH  17  18
ENDBRANCH  14  17
ENDBRANCH   1  11
BRANCH   6  20
HETATM   20  S   UNL     1      42.001  -9.664   6.457  1.00  0.00    -0.102 SA
BRANCH  20  21
HETATM   21  C   UNL     1      40.565  -9.566   7.537  1.00  0.00     0.184 C 
BRANCH  21  22
HETATM   22  C   UNL     1      40.859  -8.937   8.885  1.00  0.00     0.231 C 
HETATM   23  N   UNL     1      41.392  -9.794   9.827  1.00  0.00    -0.326 N 
HETATM   24  H   UNL     1      41.809 -10.646   9.471  1.00  0.00     0.169 HD
HETATM   25  O   UNL     1      40.656  -7.733   9.040  1.00  0.00    -0.272 OA
BRANCH  23  26
HETATM   26  C   UNL     1      41.582  -9.506  11.201  1.00  0.00     0.040 A 
HETATM   27  C   UNL     1      42.830  -9.025  11.648  1.00  0.00    -0.035 A 
HETATM   28  C   UNL     1      43.961  -8.718  10.706  1.00  0.00     0.050 C 
HETATM   29  C   UNL     1      43.029  -8.804  13.024  1.00  0.00     0.009 A 
HETATM   30  C   UNL     1      42.013  -9.049  13.946  1.00  0.00     0.001 A 
HETATM   31  C   UNL     1      40.782  -9.516  13.503  1.00  0.00     0.002 A 
HETATM   32  C   UNL     1      40.569  -9.742  12.141  1.00  0.00     0.030 A 
ENDBRANCH  23  26
ENDBRANCH  21  22
ENDBRANCH  20  21
ENDBRANCH   6  20
BRANCH   2  33
HETATM   33  C   UNL     1      40.598 -11.690   0.958  1.00  0.00     0.255 C 
HETATM   34  N   UNL     1      39.653 -12.655   0.665  1.00  0.00    -0.323 N 
HETATM   35  H   UNL     1      39.198 -13.106   1.448  1.00  0.00     0.169 HD
HETATM   36  O   UNL     1      41.187 -10.978   0.159  1.00  0.00    -0.268 OA
BRANCH  34  37
HETATM   37  C   UNL     1      39.280 -13.143  -0.605  1.00  0.00     0.035 A 
HETATM   38  C   UNL     1      39.820 -14.287  -1.193  1.00  0.00     0.029 A 
HETATM   39  C   UNL     1      39.379 -14.710  -2.451  1.00  0.00     0.002 A 
HETATM   40  C   UNL     1      38.387 -14.000  -3.125  1.00  0.00     0.000 A 
HETATM   41  C   UNL     1      37.840 -12.860  -2.546  1.00  0.00     0.002 A 
HETATM   42  C   UNL     1      38.290 -12.429  -1.295  1.00  0.00     0.029 A 
ENDBRANCH  34  37
ENDBRANCH   2  33
TORSDOF 9
ENDMDL
MODEL 5
REMARK VINA RESULT:      -8.4      3.340      4.581
REMARK  9 active torsions:
REMARK  status: ('A' for Active; 'I' for Inactive)
REMARK    1  A    between atoms: C_2  and  O_3 
REMARK    2  A    between atoms: O_3  and  C_4 
REMARK    3  A    between atoms: C_7  and  C_8 
REMARK    4  A    between atoms: C_9  and  C_10 
REMARK       I    between atoms: C_10  and  N_11 
REMARK    5  A    between atoms: N_11  and  C_12 
REMARK    6  A    between atoms: C_22  and  S_23 
REMARK    7  A    between atoms: S_23  and  C_24 
REMARK    8  A    between atoms: C_24  and  C_25 
REMARK       I    between atoms: C_25  and  N_26 
REMARK    9  A    between atoms: N_26  and  C_27 
ROOT
HETATM    1  C   UNL     1      42.795 -11.625   3.545  1.00  0.00     0.104 C 
HETATM    2  C   UNL     1      41.549 -11.019   2.893  1.00  0.00     0.046 C 
HETATM    3  C   UNL     1      40.594 -10.442   3.657  1.00  0.00     0.019 C 
HETATM    4  C   UNL     1      39.234  -9.997   3.175  1.00  0.00     0.069 C 
HETATM    5  N   UNL     1      40.840 -10.228   5.004  1.00  0.00    -0.353 N 
HETATM    6  C   UNL     1      42.072 -10.389   5.621  1.00  0.00     0.087 C 
HETATM    7  C   UNL     1      43.024 -11.113   4.969  1.00  0.00     0.055 C 
HETATM    8  C   UNL     1      44.353 -11.440   5.629  1.00  0.00     0.019 C 
HETATM    9  N   UNL     1      45.457 -11.710   6.175  1.00  0.00    -0.096 N 
HETATM   10  H   UNL     1      40.117  -9.702   5.496  1.00  0.00     0.166 HD
ENDROOT
BRANCH   1  11
HETATM   11  C   UNL     1      42.790 -13.155   3.520  1.00  0.00    -0.044 A 
HETATM   12  C   UNL     1      43.395 -13.840   2.454  1.00  0.00     0.011 A 
HETATM   13  C   UNL     1      43.411 -15.239   2.415  1.00  0.00     0.037 A 
HETATM   14  C   UNL     1      42.820 -15.977   3.438  1.00  0.00     0.068 A 
HETATM   15  C   UNL     1      42.222 -15.304   4.504  1.00  0.00     0.037 A 
HETATM   16  C   UNL     1      42.213 -13.908   4.554  1.00  0.00     0.011 A 
BRANCH  14  17
HETATM   17  O   UNL     1      42.754 -17.341   3.514  1.00  0.00    -0.352 OA
BRANCH  17  18
HETATM   18  C   UNL     1      42.953 -18.066   2.301  1.00  0.00     0.171 C 
HETATM   19  C   UNL     1      43.547 -19.416   2.657  1.00  0.00     0.034 C 
ENDBRANCH  17  18
ENDBRANCH  14  17
ENDBRANCH   1  11
BRANCH   6  20
HETATM   20  S   UNL     1      42.501  -9.651   7.165  1.00  0.00    -0.102 SA
BRANCH  20  21
HETATM   21  C   UNL     1      40.981  -9.517   8.119  1.00  0.00     0.184 C 
BRANCH  21  22
HETATM   22  C   UNL     1      41.151  -8.788   9.436  1.00  0.00     0.231 C 
HETATM   23  N   UNL     1      41.807  -9.501  10.420  1.00  0.00    -0.326 N 
HETATM   24  H   UNL     1      42.362 -10.288  10.106  1.00  0.00     0.169 HD
HETATM   25  O   UNL     1      40.750  -7.628   9.535  1.00  0.00    -0.272 OA
BRANCH  23  26
HETATM   26  C   UNL     1      41.929  -9.124  11.780  1.00  0.00     0.040 A 
HETATM   27  C   UNL     1      40.917  -9.477  12.696  1.00  0.00    -0.035 A 
HETATM   28  C   UNL     1      39.735 -10.323  12.308  1.00  0.00     0.050 C 
HETATM   29  C   UNL     1      41.015  -9.041  14.031  1.00  0.00     0.009 A 
HETATM   30  C   UNL     1      42.096  -8.273  14.458  1.00  0.00     0.001 A 
HETATM   31  C   UNL     1      43.096  -7.932  13.556  1.00  0.00     0.002 A 
HETATM   32  C   UNL     1      43.013  -8.355  12.228  1.00  0.00     0.030 A 
ENDBRANCH  23  26
ENDBRANCH  21  22
ENDBRANCH  20  21
ENDBRANCH   6  20
BRANCH   2  33
HETATM   33  C   UNL     1      41.494 -11.075   1.397  1.00  0.00     0.255 C 
HETATM   34  N   UNL     1      40.792 -12.170   0.928  1.00  0.00    -0.323 N 
HETATM   35  H   UNL     1      40.395 -12.793   1.620  1.00  0.00     0.169 HD
HETATM   36  O   UNL     1      41.968 -10.170   0.728  1.00  0.00    -0.268 OA
BRANCH  34  37
HETATM   37  C   UNL     1      40.610 -12.571  -0.411  1.00  0.00     0.035 A 
HETATM   38  C   UNL     1      41.113 -11.877  -1.512  1.00  0.00     0.029 A 
HETATM   39  C   UNL     1      40.901 -12.357  -2.808  1.00  0.00     0.002 A 
HETATM   40  C   UNL     1      40.194 -13.540  -3.014  1.00  0.00     0.000 A 
HETATM   41  C   UNL     1      39.691 -14.242  -1.923  1.00  0.00     0.002 A 
HETATM   42  C   UNL     1      39.892 -13.756  -0.628  1.00  0.00     0.029 A 
ENDBRANCH  34  37
ENDBRANCH   2  33
TORSDOF 9
ENDMDL
MODEL 6
REMARK VINA RESULT:      -8.2      3.413      5.075
REMARK  9 active torsions:
REMARK  status: ('A' for Active; 'I' for Inactive)
REMARK    1  A    between atoms: C_2  and  O_3 
REMARK    2  A    between atoms: O_3  and  C_4 
REMARK    3  A    between atoms: C_7  and  C_8 
REMARK    4  A    between atoms: C_9  and  C_10 
REMARK       I    between atoms: C_10  and  N_11 
REMARK    5  A    between atoms: N_11  and  C_12 
REMARK    6  A    between atoms: C_22  and  S_23 
REMARK    7  A    between atoms: S_23  and  C_24 
REMARK    8  A    between atoms: C_24  and  C_25 
REMARK       I    between atoms: C_25  and  N_26 
REMARK    9  A    between atoms: N_26  and  C_27 
ROOT
HETATM    1  C   UNL     1      42.237 -12.251   5.007  1.00  0.00     0.104 C 
HETATM    2  C   UNL     1      40.745 -11.911   5.026  1.00  0.00     0.046 C 
HETATM    3  C   UNL     1      40.211 -11.244   6.075  1.00  0.00     0.019 C 
HETATM    4  C   UNL     1      38.738 -11.029   6.322  1.00  0.00     0.069 C 
HETATM    5  N   UNL     1      41.053 -10.701   7.032  1.00  0.00    -0.353 N 
HETATM    6  C   UNL     1      42.433 -10.619   6.920  1.00  0.00     0.087 C 
HETATM    7  C   UNL     1      43.047 -11.401   5.990  1.00  0.00     0.055 C 
HETATM    8  C   UNL     1      44.563 -11.462   5.888  1.00  0.00     0.019 C 
HETATM    9  N   UNL     1      45.820 -11.512   5.803  1.00  0.00    -0.096 N 
HETATM   10  H   UNL     1      40.591 -10.130   7.740  1.00  0.00     0.166 HD
ENDROOT
BRANCH   1  11
HETATM   11  C   UNL     1      42.508 -13.739   5.236  1.00  0.00    -0.044 A 
HETATM   12  C   UNL     1      42.244 -14.315   6.489  1.00  0.00     0.011 A 
HETATM   13  C   UNL     1      42.475 -15.676   6.718  1.00  0.00     0.037 A 
HETATM   14  C   UNL     1      42.977 -16.484   5.700  1.00  0.00     0.068 A 
HETATM   15  C   UNL     1      43.237 -15.921   4.450  1.00  0.00     0.037 A 
HETATM   16  C   UNL     1      42.997 -14.566   4.212  1.00  0.00     0.011 A 
BRANCH  14  17
HETATM   17  O   UNL     1      43.260 -17.819   5.796  1.00  0.00    -0.352 OA
BRANCH  17  18
HETATM   18  C   UNL     1      44.164 -18.359   4.833  1.00  0.00     0.171 C 
HETATM   19  C   UNL     1      44.154 -19.870   4.980  1.00  0.00     0.034 C 
ENDBRANCH  17  18
ENDBRANCH  14  17
ENDBRANCH   1  11
BRANCH   6  20
HETATM   20  S   UNL     1      43.431  -9.507   7.860  1.00  0.00    -0.102 SA
BRANCH  20  21
HETATM   21  C   UNL     1      44.378 -10.509   9.017  1.00  0.00     0.184 C 
BRANCH  21  22
HETATM   22  C   UNL     1      43.798 -10.533  10.417  1.00  0.00     0.231 C 
HETATM   23  N   UNL     1      42.598  -9.867  10.566  1.00  0.00    -0.326 N 
HETATM   24  H   UNL     1      42.077  -9.691   9.716  1.00  0.00     0.169 HD
HETATM   25  O   UNL     1      44.386 -11.162  11.297  1.00  0.00    -0.272 OA
BRANCH  23  26
HETATM   26  C   UNL     1      41.949  -9.587  11.794  1.00  0.00     0.040 A 
HETATM   27  C   UNL     1      40.540  -9.546  11.845  1.00  0.00    -0.035 A 
HETATM   28  C   UNL     1      39.679  -9.875  10.656  1.00  0.00     0.050 C 
HETATM   29  C   UNL     1      39.905  -9.201  13.053  1.00  0.00     0.009 A 
HETATM   30  C   UNL     1      40.647  -8.906  14.195  1.00  0.00     0.001 A 
HETATM   31  C   UNL     1      42.034  -8.954  14.145  1.00  0.00     0.002 A 
HETATM   32  C   UNL     1      42.679  -9.292  12.954  1.00  0.00     0.030 A 
ENDBRANCH  23  26
ENDBRANCH  21  22
ENDBRANCH  20  21
ENDBRANCH   6  20
BRANCH   2  33
HETATM   33  C   UNL     1      39.960 -12.322   3.818  1.00  0.00     0.255 C 
HETATM   34  N   UNL     1      39.825 -11.301   2.896  1.00  0.00    -0.323 N 
HETATM   35  H   UNL     1      40.262 -10.417   3.120  1.00  0.00     0.169 HD
HETATM   36  O   UNL     1      39.582 -13.476   3.691  1.00  0.00    -0.268 OA
BRANCH  34  37
HETATM   37  C   UNL     1      39.090 -11.316   1.692  1.00  0.00     0.035 A 
HETATM   38  C   UNL     1      39.578 -11.810   0.483  1.00  0.00     0.029 A 
HETATM   39  C   UNL     1      38.773 -11.803  -0.661  1.00  0.00     0.002 A 
HETATM   40  C   UNL     1      37.470 -11.312  -0.602  1.00  0.00     0.000 A 
HETATM   41  C   UNL     1      36.972 -10.820   0.601  1.00  0.00     0.002 A 
HETATM   42  C   UNL     1      37.780 -10.815   1.740  1.00  0.00     0.029 A 
ENDBRANCH  34  37
ENDBRANCH   2  33
TORSDOF 9
ENDMDL
MODEL 7
REMARK VINA RESULT:      -8.0      3.467      6.927
REMARK  9 active torsions:
REMARK  status: ('A' for Active; 'I' for Inactive)
REMARK    1  A    between atoms: C_2  and  O_3 
REMARK    2  A    between atoms: O_3  and  C_4 
REMARK    3  A    between atoms: C_7  and  C_8 
REMARK    4  A    between atoms: C_9  and  C_10 
REMARK       I    between atoms: C_10  and  N_11 
REMARK    5  A    between atoms: N_11  and  C_12 
REMARK    6  A    between atoms: C_22  and  S_23 
REMARK    7  A    between atoms: S_23  and  C_24 
REMARK    8  A    between atoms: C_24  and  C_25 
REMARK       I    between atoms: C_25  and  N_26 
REMARK    9  A    between atoms: N_26  and  C_27 
ROOT
HETATM    1  C   UNL     1      41.186 -12.296   4.478  1.00  0.00     0.104 C 
HETATM    2  C   UNL     1      42.646 -12.563   4.104  1.00  0.00     0.046 C 
HETATM    3  C   UNL     1      43.616 -11.703   4.490  1.00  0.00     0.019 C 
HETATM    4  C   UNL     1      45.051 -11.729   4.020  1.00  0.00     0.069 C 
HETATM    5  N   UNL     1      43.309 -10.692   5.386  1.00  0.00    -0.353 N 
HETATM    6  C   UNL     1      42.114 -10.585   6.082  1.00  0.00     0.087 C 
HETATM    7  C   UNL     1      41.046 -11.302   5.633  1.00  0.00     0.055 C 
HETATM    8  C   UNL     1      39.672 -11.145   6.264  1.00  0.00     0.019 C 
HETATM    9  N   UNL     1      38.532 -11.016   6.786  1.00  0.00    -0.096 N 
HETATM   10  H   UNL     1      44.106 -10.143   5.707  1.00  0.00     0.166 HD
ENDROOT
BRANCH   1  11
HETATM   11  C   UNL     1      40.342 -11.851   3.283  1.00  0.00    -0.044 A 
HETATM   12  C   UNL     1      39.218 -12.602   2.900  1.00  0.00     0.011 A 
HETATM   13  C   UNL     1      38.425 -12.209   1.816  1.00  0.00     0.037 A 
HETATM   14  C   UNL     1      38.743 -11.061   1.093  1.00  0.00     0.068 A 
HETATM   15  C   UNL     1      39.855 -10.306   1.470  1.00  0.00     0.037 A 
HETATM   16  C   UNL     1      40.642 -10.687   2.559  1.00  0.00     0.011 A 
BRANCH  14  17
HETATM   17  O   UNL     1      38.064 -10.577   0.010  1.00  0.00    -0.352 OA
BRANCH  17  18
HETATM   18  C   UNL     1      37.718 -11.514  -1.009  1.00  0.00     0.171 C 
HETATM   19  C   UNL     1      38.874 -11.583  -1.990  1.00  0.00     0.034 C 
ENDBRANCH  17  18
ENDBRANCH  14  17
ENDBRANCH   1  11
BRANCH   6  20
HETATM   20  S   UNL     1      41.916  -9.633   7.554  1.00  0.00    -0.102 SA
BRANCH  20  21
HETATM   21  C   UNL     1      43.465  -9.752   8.463  1.00  0.00     0.184 C 
BRANCH  21  22
HETATM   22  C   UNL     1      43.282  -9.901   9.960  1.00  0.00     0.231 C 
HETATM   23  N   UNL     1      42.450  -8.967  10.545  1.00  0.00    -0.326 N 
HETATM   24  H   UNL     1      41.821  -8.477   9.921  1.00  0.00     0.169 HD
HETATM   25  O   UNL     1      43.830 -10.840  10.539  1.00  0.00    -0.272 OA
BRANCH  23  26
HETATM   26  C   UNL     1      42.262  -8.775  11.936  1.00  0.00     0.040 A 
HETATM   27  C   UNL     1      41.101  -9.277  12.559  1.00  0.00    -0.035 A 
HETATM   28  C   UNL     1      40.076 -10.093  11.820  1.00  0.00     0.050 C 
HETATM   29  C   UNL     1      40.891  -9.024  13.928  1.00  0.00     0.009 A 
HETATM   30  C   UNL     1      41.814  -8.292  14.673  1.00  0.00     0.001 A 
HETATM   31  C   UNL     1      42.960  -7.804  14.059  1.00  0.00     0.002 A 
HETATM   32  C   UNL     1      43.183  -8.045  12.701  1.00  0.00     0.030 A 
ENDBRANCH  23  26
ENDBRANCH  21  22
ENDBRANCH  20  21
ENDBRANCH   6  20
BRANCH   2  33
HETATM   33  C   UNL     1      42.911 -13.827   3.344  1.00  0.00     0.255 C 
HETATM   34  N   UNL     1      42.841 -14.955   4.139  1.00  0.00    -0.323 N 
HETATM   35  H   UNL     1      42.617 -14.816   5.116  1.00  0.00     0.169 HD
HETATM   36  O   UNL     1      43.081 -13.795   2.134  1.00  0.00    -0.268 OA
BRANCH  34  37
HETATM   37  C   UNL     1      43.109 -16.290   3.772  1.00  0.00     0.035 A 
HETATM   38  C   UNL     1      42.601 -16.903   2.627  1.00  0.00     0.029 A 
HETATM   39  C   UNL     1      42.933 -18.229   2.328  1.00  0.00     0.002 A 
HETATM   40  C   UNL     1      43.784 -18.947   3.166  1.00  0.00     0.000 A 
HETATM   41  C   UNL     1      44.299 -18.343   4.309  1.00  0.00     0.002 A 
HETATM   42  C   UNL     1      43.957 -17.024   4.614  1.00  0.00     0.029 A 
ENDBRANCH  34  37
ENDBRANCH   2  33
TORSDOF 9
ENDMDL
MODEL 8
REMARK VINA RESULT:      -7.9      3.553      5.282
REMARK  9 active torsions:
REMARK  status: ('A' for Active; 'I' for Inactive)
REMARK    1  A    between atoms: C_2  and  O_3 
REMARK    2  A    between atoms: O_3  and  C_4 
REMARK    3  A    between atoms: C_7  and  C_8 
REMARK    4  A    between atoms: C_9  and  C_10 
REMARK       I    between atoms: C_10  and  N_11 
REMARK    5  A    between atoms: N_11  and  C_12 
REMARK    6  A    between atoms: C_22  and  S_23 
REMARK    7  A    between atoms: S_23  and  C_24 
REMARK    8  A    between atoms: C_24  and  C_25 
REMARK       I    between atoms: C_25  and  N_26 
REMARK    9  A    between atoms: N_26  and  C_27 
ROOT
HETATM    1  C   UNL     1      42.717 -11.785   3.788  1.00  0.00     0.104 C 
HETATM    2  C   UNL     1      41.289 -11.325   3.487  1.00  0.00     0.046 C 
HETATM    3  C   UNL     1      40.488 -10.892   4.487  1.00  0.00     0.019 C 
HETATM    4  C   UNL     1      39.009 -10.610   4.369  1.00  0.00     0.069 C 
HETATM    5  N   UNL     1      41.028 -10.680   5.746  1.00  0.00    -0.353 N 
HETATM    6  C   UNL     1      42.384 -10.699   6.040  1.00  0.00     0.087 C 
HETATM    7  C   UNL     1      43.226 -11.282   5.141  1.00  0.00     0.055 C 
HETATM    8  C   UNL     1      44.705 -11.453   5.446  1.00  0.00     0.019 C 
HETATM    9  N   UNL     1      45.932 -11.596   5.697  1.00  0.00    -0.096 N 
HETATM   10  H   UNL     1      40.392 -10.262   6.424  1.00  0.00     0.166 HD
ENDROOT
BRANCH   1  11
HETATM   11  C   UNL     1      42.885 -13.302   3.683  1.00  0.00    -0.044 A 
HETATM   12  C   UNL     1      43.262 -13.882   2.461  1.00  0.00     0.011 A 
HETATM   13  C   UNL     1      43.430 -15.266   2.344  1.00  0.00     0.037 A 
HETATM   14  C   UNL     1      43.223 -16.095   3.445  1.00  0.00     0.068 A 
HETATM   15  C   UNL     1      42.854 -15.526   4.665  1.00  0.00     0.037 A 
HETATM   16  C   UNL     1      42.695 -14.144   4.790  1.00  0.00     0.011 A 
BRANCH  14  17
HETATM   17  O   UNL     1      43.339 -17.457   3.462  1.00  0.00    -0.352 OA
BRANCH  17  18
HETATM   18  C   UNL     1      42.884 -18.159   2.306  1.00  0.00     0.171 C 
HETATM   19  C   UNL     1      43.470 -19.559   2.350  1.00  0.00     0.034 C 
ENDBRANCH  17  18
ENDBRANCH  14  17
ENDBRANCH   1  11
BRANCH   6  20
HETATM   20  S   UNL     1      43.088  -9.950   7.474  1.00  0.00    -0.102 SA
BRANCH  20  21
HETATM   21  C   UNL     1      42.463  -8.263   7.540  1.00  0.00     0.184 C 
BRANCH  21  22
HETATM   22  C   UNL     1      42.949  -7.481   8.743  1.00  0.00     0.231 C 
HETATM   23  N   UNL     1      42.047  -7.387   9.785  1.00  0.00    -0.326 N 
HETATM   24  H   UNL     1      41.298  -8.068   9.788  1.00  0.00     0.169 HD
HETATM   25  O   UNL     1      44.095  -7.030   8.741  1.00  0.00    -0.272 OA
BRANCH  23  26
HETATM   26  C   UNL     1      42.183  -6.566  10.931  1.00  0.00     0.040 A 
HETATM   27  C   UNL     1      42.496  -7.152  12.176  1.00  0.00    -0.035 A 
HETATM   28  C   UNL     1      42.782  -8.621  12.328  1.00  0.00     0.050 C 
HETATM   29  C   UNL     1      42.564  -6.337  13.322  1.00  0.00     0.009 A 
HETATM   30  C   UNL     1      42.330  -4.965  13.243  1.00  0.00     0.001 A 
HETATM   31  C   UNL     1      42.028  -4.389  12.015  1.00  0.00     0.002 A 
HETATM   32  C   UNL     1      41.956  -5.184  10.869  1.00  0.00     0.030 A 
ENDBRANCH  23  26
ENDBRANCH  21  22
ENDBRANCH  20  21
ENDBRANCH   6  20
BRANCH   2  33
HETATM   33  C   UNL     1      40.877 -11.352   2.047  1.00  0.00     0.255 C 
HETATM   34  N   UNL     1      39.980 -12.366   1.766  1.00  0.00    -0.323 N 
HETATM   35  H   UNL     1      39.698 -12.958   2.537  1.00  0.00     0.169 HD
HETATM   36  O   UNL     1      41.267 -10.488   1.277  1.00  0.00    -0.268 OA
BRANCH  34  37
HETATM   37  C   UNL     1      39.449 -12.726   0.510  1.00  0.00     0.035 A 
HETATM   38  C   UNL     1      38.474 -11.994  -0.167  1.00  0.00     0.029 A 
HETATM   39  C   UNL     1      38.016 -12.415  -1.420  1.00  0.00     0.002 A 
HETATM   40  C   UNL     1      38.537 -13.565  -2.010  1.00  0.00     0.000 A 
HETATM   41  C   UNL     1      39.512 -14.301  -1.344  1.00  0.00     0.002 A 
HETATM   42  C   UNL     1      39.960 -13.888  -0.087  1.00  0.00     0.029 A 
ENDBRANCH  34  37
ENDBRANCH   2  33
TORSDOF 9
ENDMDL
MODEL 9
REMARK VINA RESULT:      -7.9      2.676      6.069
REMARK  9 active torsions:
REMARK  status: ('A' for Active; 'I' for Inactive)
REMARK    1  A    between atoms: C_2  and  O_3 
REMARK    2  A    between atoms: O_3  and  C_4 
REMARK    3  A    between atoms: C_7  and  C_8 
REMARK    4  A    between atoms: C_9  and  C_10 
REMARK       I    between atoms: C_10  and  N_11 
REMARK    5  A    between atoms: N_11  and  C_12 
REMARK    6  A    between atoms: C_22  and  S_23 
REMARK    7  A    between atoms: S_23  and  C_24 
REMARK    8  A    between atoms: C_24  and  C_25 
REMARK       I    between atoms: C_25  and  N_26 
REMARK    9  A    between atoms: N_26  and  C_27 
ROOT
HETATM    1  C   UNL     1      40.219 -11.096   3.329  1.00  0.00     0.104 C 
HETATM    2  C   UNL     1      41.494 -11.719   3.904  1.00  0.00     0.046 C 
HETATM    3  C   UNL     1      42.516 -10.930   4.306  1.00  0.00     0.019 C 
HETATM    4  C   UNL     1      43.895 -11.408   4.692  1.00  0.00     0.069 C 
HETATM    5  N   UNL     1      42.327  -9.559   4.378  1.00  0.00    -0.353 N 
HETATM    6  C   UNL     1      41.104  -8.919   4.245  1.00  0.00     0.087 C 
HETATM    7  C   UNL     1      40.075  -9.614   3.685  1.00  0.00     0.055 C 
HETATM    8  C   UNL     1      38.741  -8.946   3.393  1.00  0.00     0.019 C 
HETATM    9  N   UNL     1      37.635  -8.394   3.150  1.00  0.00    -0.096 N 
HETATM   10  H   UNL     1      43.106  -9.037   4.780  1.00  0.00     0.166 HD
ENDROOT
BRANCH   1  11
HETATM   11  C   UNL     1      40.092 -11.298   1.818  1.00  0.00    -0.044 A 
HETATM   12  C   UNL     1      38.911 -11.836   1.281  1.00  0.00     0.011 A 
HETATM   13  C   UNL     1      38.768 -12.022  -0.099  1.00  0.00     0.037 A 
HETATM   14  C   UNL     1      39.804 -11.676  -0.965  1.00  0.00     0.068 A 
HETATM   15  C   UNL     1      40.978 -11.135  -0.440  1.00  0.00     0.037 A 
HETATM   16  C   UNL     1      41.121 -10.937   0.935  1.00  0.00     0.011 A 
BRANCH  14  17
HETATM   17  O   UNL     1      39.798 -11.819  -2.325  1.00  0.00    -0.352 OA
BRANCH  17  18
HETATM   18  C   UNL     1      40.731 -12.745  -2.882  1.00  0.00     0.171 C 
HETATM   19  C   UNL     1      40.163 -14.141  -2.705  1.00  0.00     0.034 C 
ENDBRANCH  17  18
ENDBRANCH  14  17
ENDBRANCH   1  11
BRANCH   6  20
HETATM   20  S   UNL     1      40.783  -7.284   4.827  1.00  0.00    -0.102 SA
BRANCH  20  21
HETATM   21  C   UNL     1      40.593  -7.395   6.614  1.00  0.00     0.184 C 
BRANCH  21  22
HETATM   22  C   UNL     1      41.900  -7.595   7.353  1.00  0.00     0.231 C 
HETATM   23  N   UNL     1      42.156  -8.892   7.753  1.00  0.00    -0.326 N 
HETATM   24  H   UNL     1      41.632  -9.616   7.277  1.00  0.00     0.169 HD
HETATM   25  O   UNL     1      42.653  -6.632   7.509  1.00  0.00    -0.272 OA
BRANCH  23  26
HETATM   26  C   UNL     1      43.204  -9.307   8.610  1.00  0.00     0.040 A 
HETATM   27  C   UNL     1      42.962  -9.448   9.992  1.00  0.00    -0.035 A 
HETATM   28  C   UNL     1      41.598  -9.255  10.596  1.00  0.00     0.050 C 
HETATM   29  C   UNL     1      44.026  -9.797  10.845  1.00  0.00     0.009 A 
HETATM   30  C   UNL     1      45.308 -10.009  10.344  1.00  0.00     0.001 A 
HETATM   31  C   UNL     1      45.544  -9.878   8.981  1.00  0.00     0.002 A 
HETATM   32  C   UNL     1      44.499  -9.530   8.122  1.00  0.00     0.030 A 
ENDBRANCH  23  26
ENDBRANCH  21  22
ENDBRANCH  20  21
ENDBRANCH   6  20
BRANCH   2  33
HETATM   33  C   UNL     1      41.501 -13.213   4.022  1.00  0.00     0.255 C 
HETATM   34  N   UNL     1      42.620 -13.789   3.449  1.00  0.00    -0.323 N 
HETATM   35  H   UNL     1      43.297 -13.163   3.032  1.00  0.00     0.169 HD
HETATM   36  O   UNL     1      40.622 -13.787   4.646  1.00  0.00    -0.268 OA
BRANCH  34  37
HETATM   37  C   UNL     1      42.911 -15.162   3.313  1.00  0.00     0.035 A 
HETATM   38  C   UNL     1      43.227 -16.004   4.378  1.00  0.00     0.029 A 
HETATM   39  C   UNL     1      43.485 -17.361   4.155  1.00  0.00     0.002 A 
HETATM   40  C   UNL     1      43.418 -17.887   2.866  1.00  0.00     0.000 A 
HETATM   41  C   UNL     1      43.099 -17.056   1.797  1.00  0.00     0.002 A 
HETATM   42  C   UNL     1      42.855 -15.698   2.018  1.00  0.00     0.029 A 
ENDBRANCH  34  37
ENDBRANCH   2  33
TORSDOF 9
ENDMDL
MODEL 10
REMARK VINA RESULT:      -7.7      2.859      4.435
REMARK  9 active torsions:
REMARK  status: ('A' for Active; 'I' for Inactive)
REMARK    1  A    between atoms: C_2  and  O_3 
REMARK    2  A    between atoms: O_3  and  C_4 
REMARK    3  A    between atoms: C_7  and  C_8 
REMARK    4  A    between atoms: C_9  and  C_10 
REMARK       I    between atoms: C_10  and  N_11 
REMARK    5  A    between atoms: N_11  and  C_12 
REMARK    6  A    between atoms: C_22  and  S_23 
REMARK    7  A    between atoms: S_23  and  C_24 
REMARK    8  A    between atoms: C_24  and  C_25 
REMARK       I    between atoms: C_25  and  N_26 
REMARK    9  A    between atoms: N_26  and  C_27 
ROOT
HETATM    1  C   UNL     1      41.671 -12.533   2.759  1.00  0.00     0.104 C 
HETATM    2  C   UNL     1      40.497 -12.043   1.906  1.00  0.00     0.046 C 
HETATM    3  C   UNL     1      39.299 -11.787   2.479  1.00  0.00     0.019 C 
HETATM    4  C   UNL     1      38.014 -11.504   1.739  1.00  0.00     0.069 C 
HETATM    5  N   UNL     1      39.196 -11.780   3.861  1.00  0.00    -0.353 N 
HETATM    6  C   UNL     1      40.271 -11.834   4.737  1.00  0.00     0.087 C 
HETATM    7  C   UNL     1      41.472 -12.253   4.251  1.00  0.00     0.055 C 
HETATM    8  C   UNL     1      42.665 -12.459   5.170  1.00  0.00     0.019 C 
HETATM    9  N   UNL     1      43.655 -12.629   5.932  1.00  0.00    -0.096 N 
HETATM   10  H   UNL     1      38.290 -11.484   4.224  1.00  0.00     0.166 HD
ENDROOT
BRANCH   1  11
HETATM   11  C   UNL     1      41.993 -14.010   2.529  1.00  0.00    -0.044 A 
HETATM   12  C   UNL     1      43.235 -14.380   1.988  1.00  0.00     0.011 A 
HETATM   13  C   UNL     1      43.556 -15.726   1.777  1.00  0.00     0.037 A 
HETATM   14  C   UNL     1      42.640 -16.725   2.101  1.00  0.00     0.068 A 
HETATM   15  C   UNL     1      41.406 -16.367   2.644  1.00  0.00     0.037 A 
HETATM   16  C   UNL     1      41.085 -15.025   2.867  1.00  0.00     0.011 A 
BRANCH  14  17
HETATM   17  O   UNL     1      42.822 -18.070   1.932  1.00  0.00    -0.352 OA
BRANCH  17  18
HETATM   18  C   UNL     1      43.920 -18.665   2.623  1.00  0.00     0.171 C 
HETATM   19  C   UNL     1      43.617 -20.143   2.795  1.00  0.00     0.034 C 
ENDBRANCH  17  18
ENDBRANCH  14  17
ENDBRANCH   1  11
BRANCH   6  20
HETATM   20  S   UNL     1      40.189 -11.324   6.424  1.00  0.00    -0.102 SA
BRANCH  20  21
HETATM   21  C   UNL     1      40.257  -9.525   6.427  1.00  0.00     0.184 C 
BRANCH  21  22
HETATM   22  C   UNL     1      41.285  -8.956   7.385  1.00  0.00     0.231 C 
HETATM   23  N   UNL     1      41.438  -9.657   8.565  1.00  0.00    -0.326 N 
HETATM   24  H   UNL     1      41.098 -10.612   8.563  1.00  0.00     0.169 HD
HETATM   25  O   UNL     1      41.932  -7.965   7.047  1.00  0.00    -0.272 OA
BRANCH  23  26
HETATM   26  C   UNL     1      42.189  -9.238   9.690  1.00  0.00     0.040 A 
HETATM   27  C   UNL     1      43.470  -9.783   9.918  1.00  0.00    -0.035 A 
HETATM   28  C   UNL     1      44.121 -10.741   8.959  1.00  0.00     0.050 C 
HETATM   29  C   UNL     1      44.180  -9.410  11.074  1.00  0.00     0.009 A 
HETATM   30  C   UNL     1      43.640  -8.510  11.990  1.00  0.00     0.001 A 
HETATM   31  C   UNL     1      42.381  -7.969  11.762  1.00  0.00     0.002 A 
HETATM   32  C   UNL     1      41.662  -8.330  10.619  1.00  0.00     0.030 A 
ENDBRANCH  23  26
ENDBRANCH  21  22
ENDBRANCH  20  21
ENDBRANCH   6  20
BRANCH   2  33
HETATM   33  C   UNL     1      40.782 -11.838   0.450  1.00  0.00     0.255 C 
HETATM   34  N   UNL     1      40.915 -10.503   0.114  1.00  0.00    -0.323 N 
HETATM   35  H   UNL     1      40.820  -9.829   0.862  1.00  0.00     0.169 HD
HETATM   36  O   UNL     1      40.949 -12.797  -0.288  1.00  0.00    -0.268 OA
BRANCH  34  37
HETATM   37  C   UNL     1      41.108  -9.950  -1.169  1.00  0.00     0.035 A 
HETATM   38  C   UNL     1      40.396 -10.337  -2.304  1.00  0.00     0.029 A 
HETATM   39  C   UNL     1      40.639  -9.721  -3.535  1.00  0.00     0.002 A 
HETATM   40  C   UNL     1      41.588  -8.705  -3.640  1.00  0.00     0.000 A 
HETATM   41  C   UNL     1      42.300  -8.308  -2.513  1.00  0.00     0.002 A 
HETATM   42  C   UNL     1      42.067  -8.933  -1.285  1.00  0.00     0.029 A 
ENDBRANCH  34  37
ENDBRANCH   2  33
TORSDOF 9
ENDMDL
