MODEL 1
REMARK VINA RESULT:      -9.2      0.000      0.000
REMARK  7 active torsions:
REMARK  status: ('A' for Active; 'I' for Inactive)
REMARK    1  A    between atoms: O_2  and  C_3 
REMARK    2  A    between atoms: C_5  and  C_6 
REMARK    3  A    between atoms: N_8  and  C_9 
REMARK    4  A    between atoms: C_9  and  C_10 
REMARK    5  A    between atoms: C_17  and  C_18 
REMARK       I    between atoms: C_18  and  N_19 
REMARK    6  A    between atoms: N_19  and  N_20 
REMARK       I    between atoms: N_20  and  C_21 
REMARK    7  A    between atoms: C_21  and  C_22 
ROOT
HETATM    1  C   UNL     1      42.435 -14.952   4.749  1.00  0.00     0.104 A 
HETATM    2  N   UNL     1      42.747 -14.123   5.763  1.00  0.00    -0.171 NA
HETATM    3  N   UNL     1      42.144 -12.963   5.466  1.00  0.00    -0.275 N 
HETATM    4  C   UNL     1      41.426 -13.014   4.310  1.00  0.00     0.132 A 
HETATM    5  C   UNL     1      41.588 -14.293   3.796  1.00  0.00     0.082 A 
ENDROOT
BRANCH   5   6
HETATM    6  C   UNL     1      41.030 -14.790   2.546  1.00  0.00     0.274 C 
HETATM    7  N   UNL     1      41.456 -14.110   1.419  1.00  0.00    -0.263 N 
HETATM    8  H   UNL     1      41.961 -13.228   1.479  1.00  0.00     0.190 HD
HETATM    9  O   UNL     1      40.232 -15.721   2.471  1.00  0.00    -0.266 OA
BRANCH   7  10
HETATM   10  N   UNL     1      40.816 -14.362   0.195  1.00  0.00    -0.262 N 
HETATM   11  C   UNL     1      39.859 -13.468  -0.236  1.00  0.00     0.286 C 
HETATM   12  O   UNL     1      39.625 -12.427   0.381  1.00  0.00    -0.264 OA
HETATM   13  H   UNL     1      40.962 -15.278  -0.221  1.00  0.00     0.190 HD
BRANCH  11  14
HETATM   14  C   UNL     1      39.151 -13.831  -1.443  1.00  0.00     0.102 A 
HETATM   15  N   UNL     1      37.858 -13.402  -1.669  1.00  0.00    -0.361 N 
HETATM   16  H   UNL     1      37.337 -12.823  -1.022  1.00  0.00     0.165 HD
HETATM   17  C   UNL     1      37.405 -13.868  -2.874  1.00  0.00     0.088 A 
HETATM   18  C   UNL     1      38.412 -14.612  -3.442  1.00  0.00     0.019 A 
HETATM   19  C   UNL     1      39.510 -14.591  -2.545  1.00  0.00     0.036 A 
ENDBRANCH  11  14
ENDBRANCH   7  10
ENDBRANCH   5   6
BRANCH   1  20
HETATM   20  C   UNL     1      42.955 -16.325   4.772  1.00  0.00    -0.002 A 
HETATM   21  C   UNL     1      43.287 -17.013   3.599  1.00  0.00     0.050 A 
HETATM   22  C   UNL     1      43.771 -18.326   3.644  1.00  0.00     0.069 A 
HETATM   23  C   UNL     1      43.893 -18.974   4.874  1.00  0.00     0.037 A 
HETATM   24  C   UNL     1      43.547 -18.309   6.050  1.00  0.00     0.004 A 
HETATM   25  C   UNL     1      43.083 -16.994   6.000  1.00  0.00     0.014 A 
BRANCH  22  26
HETATM   26  O   UNL     1      44.071 -18.869   2.424  1.00  0.00    -0.356 OA
HETATM   27  C   UNL     1      43.679 -20.220   2.214  1.00  0.00     0.210 C 
ENDBRANCH  22  26
ENDBRANCH   1  20
BRANCH   3  28
HETATM   28  C   UNL     1      42.243 -11.835   6.383  1.00  0.00     0.189 C 
BRANCH  28  29
HETATM   29  C   UNL     1      43.674 -11.504   6.729  1.00  0.00    -0.038 A 
HETATM   30  C   UNL     1      44.682 -11.582   5.756  1.00  0.00     0.009 A 
HETATM   31  C   UNL     1      46.000 -11.247   6.075  1.00  0.00     0.001 A 
HETATM   32  C   UNL     1      46.324 -10.831   7.365  1.00  0.00     0.000 A 
HETATM   33  C   UNL     1      45.332 -10.750   8.340  1.00  0.00     0.001 A 
HETATM   34  C   UNL     1      44.015 -11.082   8.024  1.00  0.00     0.009 A 
ENDBRANCH  28  29
ENDBRANCH   3  28
TORSDOF 7
ENDMDL
MODEL 2
REMARK VINA RESULT:      -9.1      3.364      6.767
REMARK  7 active torsions:
REMARK  status: ('A' for Active; 'I' for Inactive)
REMARK    1  A    between atoms: O_2  and  C_3 
REMARK    2  A    between atoms: C_5  and  C_6 
REMARK    3  A    between atoms: N_8  and  C_9 
REMARK    4  A    between atoms: C_9  and  C_10 
REMARK    5  A    between atoms: C_17  and  C_18 
REMARK       I    between atoms: C_18  and  N_19 
REMARK    6  A    between atoms: N_19  and  N_20 
REMARK       I    between atoms: N_20  and  C_21 
REMARK    7  A    between atoms: C_21  and  C_22 
ROOT
HETATM    1  C   UNL     1      43.575 -12.948   6.072  1.00  0.00     0.104 A 
HETATM    2  N   UNL     1      43.275 -14.172   6.548  1.00  0.00    -0.171 NA
HETATM    3  N   UNL     1      42.657 -14.799   5.536  1.00  0.00    -0.275 N 
HETATM    4  C   UNL     1      42.569 -14.039   4.409  1.00  0.00     0.132 A 
HETATM    5  C   UNL     1      43.149 -12.815   4.708  1.00  0.00     0.082 A 
ENDROOT
BRANCH   5   6
HETATM    6  C   UNL     1      43.244 -11.672   3.810  1.00  0.00     0.274 C 
HETATM    7  N   UNL     1      42.026 -11.168   3.394  1.00  0.00    -0.263 N 
HETATM    8  H   UNL     1      41.153 -11.668   3.550  1.00  0.00     0.190 HD
HETATM    9  O   UNL     1      44.306 -11.187   3.424  1.00  0.00    -0.266 OA
BRANCH   7  10
HETATM   10  N   UNL     1      42.004 -10.215   2.363  1.00  0.00    -0.262 N 
HETATM   11  C   UNL     1      41.624 -10.626   1.103  1.00  0.00     0.286 C 
HETATM   12  O   UNL     1      41.226 -11.773   0.893  1.00  0.00    -0.264 OA
HETATM   13  H   UNL     1      42.438  -9.316   2.558  1.00  0.00     0.190 HD
BRANCH  11  14
HETATM   14  C   UNL     1      41.727  -9.635   0.055  1.00  0.00     0.102 A 
HETATM   15  N   UNL     1      41.724  -8.286   0.346  1.00  0.00    -0.361 N 
HETATM   16  H   UNL     1      41.650  -7.914   1.285  1.00  0.00     0.165 HD
HETATM   17  C   UNL     1      41.835  -7.550  -0.803  1.00  0.00     0.088 A 
HETATM   18  C   UNL     1      41.909  -8.429  -1.858  1.00  0.00     0.019 A 
HETATM   19  C   UNL     1      41.841  -9.739  -1.322  1.00  0.00     0.036 A 
ENDBRANCH  11  14
ENDBRANCH   7  10
ENDBRANCH   5   6
BRANCH   1  20
HETATM   20  C   UNL     1      44.265 -11.997   6.952  1.00  0.00    -0.002 A 
HETATM   21  C   UNL     1      43.634 -11.419   8.059  1.00  0.00     0.050 A 
HETATM   22  C   UNL     1      44.308 -10.505   8.879  1.00  0.00     0.069 A 
HETATM   23  C   UNL     1      45.618 -10.138   8.571  1.00  0.00     0.037 A 
HETATM   24  C   UNL     1      46.254 -10.690   7.459  1.00  0.00     0.004 A 
HETATM   25  C   UNL     1      45.583 -11.613   6.656  1.00  0.00     0.014 A 
BRANCH  22  26
HETATM   26  O   UNL     1      43.575 -10.032   9.935  1.00  0.00    -0.356 OA
HETATM   27  C   UNL     1      43.868 -10.585  11.212  1.00  0.00     0.210 C 
ENDBRANCH  22  26
ENDBRANCH   1  20
BRANCH   3  28
HETATM   28  C   UNL     1      42.220 -16.180   5.694  1.00  0.00     0.189 C 
BRANCH  28  29
HETATM   29  C   UNL     1      42.899 -17.109   4.718  1.00  0.00    -0.038 A 
HETATM   30  C   UNL     1      43.949 -17.941   5.136  1.00  0.00     0.009 A 
HETATM   31  C   UNL     1      44.556 -18.820   4.236  1.00  0.00     0.001 A 
HETATM   32  C   UNL     1      44.120 -18.879   2.913  1.00  0.00     0.000 A 
HETATM   33  C   UNL     1      43.078 -18.058   2.487  1.00  0.00     0.001 A 
HETATM   34  C   UNL     1      42.469 -17.180   3.384  1.00  0.00     0.009 A 
ENDBRANCH  28  29
ENDBRANCH   3  28
TORSDOF 7
ENDMDL
MODEL 3
REMARK VINA RESULT:      -8.9      2.606      8.438
REMARK  7 active torsions:
REMARK  status: ('A' for Active; 'I' for Inactive)
REMARK    1  A    between atoms: O_2  and  C_3 
REMARK    2  A    between atoms: C_5  and  C_6 
REMARK    3  A    between atoms: N_8  and  C_9 
REMARK    4  A    between atoms: C_9  and  C_10 
REMARK    5  A    between atoms: C_17  and  C_18 
REMARK       I    between atoms: C_18  and  N_19 
REMARK    6  A    between atoms: N_19  and  N_20 
REMARK       I    between atoms: N_20  and  C_21 
REMARK    7  A    between atoms: C_21  and  C_22 
ROOT
HETATM    1  C   UNL     1      42.263 -13.023   2.229  1.00  0.00     0.104 A 
HETATM    2  N   UNL     1      41.466 -12.877   1.152  1.00  0.00    -0.171 NA
HETATM    3  N   UNL     1      41.297 -11.555   1.018  1.00  0.00    -0.275 N 
HETATM    4  C   UNL     1      41.976 -10.830   1.950  1.00  0.00     0.132 A 
HETATM    5  C   UNL     1      42.620 -11.743   2.772  1.00  0.00     0.082 A 
ENDROOT
BRANCH   5   6
HETATM    6  C   UNL     1      43.435 -11.421   3.936  1.00  0.00     0.274 C 
HETATM    7  N   UNL     1      42.715 -11.212   5.098  1.00  0.00    -0.263 N 
HETATM    8  H   UNL     1      41.703 -11.107   5.095  1.00  0.00     0.190 HD
HETATM    9  O   UNL     1      44.659 -11.319   3.911  1.00  0.00    -0.266 OA
BRANCH   7  10
HETATM   10  N   UNL     1      43.377 -10.684   6.218  1.00  0.00    -0.262 N 
HETATM   11  C   UNL     1      43.690 -11.541   7.253  1.00  0.00     0.286 C 
HETATM   12  O   UNL     1      43.482 -12.752   7.171  1.00  0.00    -0.264 OA
HETATM   13  H   UNL     1      43.431  -9.671   6.288  1.00  0.00     0.190 HD
BRANCH  11  14
HETATM   14  C   UNL     1      44.267 -10.930   8.429  1.00  0.00     0.102 A 
HETATM   15  N   UNL     1      43.561 -10.850   9.613  1.00  0.00    -0.361 N 
HETATM   16  H   UNL     1      42.619 -11.205   9.729  1.00  0.00     0.165 HD
HETATM   17  C   UNL     1      44.314 -10.237  10.578  1.00  0.00     0.088 A 
HETATM   18  C   UNL     1      45.526  -9.909  10.018  1.00  0.00     0.019 A 
HETATM   19  C   UNL     1      45.500 -10.342   8.668  1.00  0.00     0.036 A 
ENDBRANCH  11  14
ENDBRANCH   7  10
ENDBRANCH   5   6
BRANCH   1  20
HETATM   20  C   UNL     1      42.639 -14.377   2.652  1.00  0.00    -0.002 A 
HETATM   21  C   UNL     1      42.782 -14.720   4.002  1.00  0.00     0.050 A 
HETATM   22  C   UNL     1      43.154 -16.016   4.382  1.00  0.00     0.069 A 
HETATM   23  C   UNL     1      43.420 -16.973   3.402  1.00  0.00     0.037 A 
HETATM   24  C   UNL     1      43.303 -16.640   2.052  1.00  0.00     0.004 A 
HETATM   25  C   UNL     1      42.914 -15.353   1.680  1.00  0.00     0.014 A 
BRANCH  22  26
HETATM   26  O   UNL     1      43.238 -16.215   5.734  1.00  0.00    -0.356 OA
HETATM   27  C   UNL     1      44.541 -16.421   6.267  1.00  0.00     0.210 C 
ENDBRANCH  22  26
ENDBRANCH   1  20
BRANCH   3  28
HETATM   28  C   UNL     1      40.505 -11.030  -0.087  1.00  0.00     0.189 C 
BRANCH  28  29
HETATM   29  C   UNL     1      40.067 -12.114  -1.041  1.00  0.00    -0.038 A 
HETATM   30  C   UNL     1      38.770 -12.644  -0.976  1.00  0.00     0.009 A 
HETATM   31  C   UNL     1      38.360 -13.626  -1.879  1.00  0.00     0.001 A 
HETATM   32  C   UNL     1      39.239 -14.089  -2.857  1.00  0.00     0.000 A 
HETATM   33  C   UNL     1      40.531 -13.571  -2.932  1.00  0.00     0.001 A 
HETATM   34  C   UNL     1      40.942 -12.588  -2.032  1.00  0.00     0.009 A 
ENDBRANCH  28  29
ENDBRANCH   3  28
TORSDOF 7
ENDMDL
MODEL 4
REMARK VINA RESULT:      -8.8      2.205      6.212
REMARK  7 active torsions:
REMARK  status: ('A' for Active; 'I' for Inactive)
REMARK    1  A    between atoms: O_2  and  C_3 
REMARK    2  A    between atoms: C_5  and  C_6 
REMARK    3  A    between atoms: N_8  and  C_9 
REMARK    4  A    between atoms: C_9  and  C_10 
REMARK    5  A    between atoms: C_17  and  C_18 
REMARK       I    between atoms: C_18  and  N_19 
REMARK    6  A    between atoms: N_19  and  N_20 
REMARK       I    between atoms: N_20  and  C_21 
REMARK    7  A    between atoms: C_21  and  C_22 
ROOT
HETATM    1  C   UNL     1      43.381 -14.201   5.609  1.00  0.00     0.104 A 
HETATM    2  N   UNL     1      43.690 -15.216   6.440  1.00  0.00    -0.171 NA
HETATM    3  N   UNL     1      43.523 -16.328   5.710  1.00  0.00    -0.275 N 
HETATM    4  C   UNL     1      43.145 -16.075   4.426  1.00  0.00     0.132 A 
HETATM    5  C   UNL     1      43.031 -14.698   4.310  1.00  0.00     0.082 A 
ENDROOT
BRANCH   5   6
HETATM    6  C   UNL     1      42.610 -13.972   3.118  1.00  0.00     0.274 C 
HETATM    7  N   UNL     1      41.484 -14.488   2.503  1.00  0.00    -0.263 N 
HETATM    8  H   UNL     1      41.101 -15.397   2.751  1.00  0.00     0.190 HD
HETATM    9  O   UNL     1      43.198 -12.992   2.666  1.00  0.00    -0.266 OA
BRANCH   7  10
HETATM   10  N   UNL     1      41.124 -14.002   1.235  1.00  0.00    -0.262 N 
HETATM   11  C   UNL     1      40.255 -14.754   0.472  1.00  0.00     0.286 C 
HETATM   12  O   UNL     1      39.732 -15.778   0.915  1.00  0.00    -0.264 OA
HETATM   13  H   UNL     1      41.658 -13.217   0.873  1.00  0.00     0.190 HD
BRANCH  11  14
HETATM   14  C   UNL     1      40.005 -14.270  -0.866  1.00  0.00     0.102 A 
HETATM   15  N   UNL     1      40.796 -13.290  -1.431  1.00  0.00    -0.361 N 
HETATM   16  H   UNL     1      41.581 -12.859  -0.955  1.00  0.00     0.165 HD
HETATM   17  C   UNL     1      40.369 -13.002  -2.699  1.00  0.00     0.088 A 
HETATM   18  C   UNL     1      39.282 -13.802  -2.966  1.00  0.00     0.019 A 
HETATM   19  C   UNL     1      39.051 -14.599  -1.817  1.00  0.00     0.036 A 
ENDBRANCH  11  14
ENDBRANCH   7  10
ENDBRANCH   5   6
BRANCH   1  20
HETATM   20  C   UNL     1      43.461 -12.826   6.115  1.00  0.00    -0.002 A 
HETATM   21  C   UNL     1      44.640 -12.302   6.658  1.00  0.00     0.050 A 
HETATM   22  C   UNL     1      44.689 -10.990   7.146  1.00  0.00     0.069 A 
HETATM   23  C   UNL     1      43.539 -10.201   7.123  1.00  0.00     0.037 A 
HETATM   24  C   UNL     1      42.351 -10.716   6.604  1.00  0.00     0.004 A 
HETATM   25  C   UNL     1      42.312 -12.017   6.103  1.00  0.00     0.014 A 
BRANCH  22  26
HETATM   26  O   UNL     1      45.910 -10.604   7.632  1.00  0.00    -0.356 OA
HETATM   27  C   UNL     1      45.989  -9.301   8.195  1.00  0.00     0.210 C 
ENDBRANCH  22  26
ENDBRANCH   1  20
BRANCH   3  28
HETATM   28  C   UNL     1      43.809 -17.632   6.294  1.00  0.00     0.189 C 
BRANCH  28  29
HETATM   29  C   UNL     1      43.860 -18.725   5.255  1.00  0.00    -0.038 A 
HETATM   30  C   UNL     1      43.783 -20.075   5.633  1.00  0.00     0.009 A 
HETATM   31  C   UNL     1      43.801 -21.082   4.665  1.00  0.00     0.001 A 
HETATM   32  C   UNL     1      43.895 -20.753   3.314  1.00  0.00     0.000 A 
HETATM   33  C   UNL     1      43.971 -19.417   2.927  1.00  0.00     0.001 A 
HETATM   34  C   UNL     1      43.952 -18.409   3.891  1.00  0.00     0.009 A 
ENDBRANCH  28  29
ENDBRANCH   3  28
TORSDOF 7
ENDMDL
MODEL 5
REMARK VINA RESULT:      -8.8      2.902      8.487
REMARK  7 active torsions:
REMARK  status: ('A' for Active; 'I' for Inactive)
REMARK    1  A    between atoms: O_2  and  C_3 
REMARK    2  A    between atoms: C_5  and  C_6 
REMARK    3  A    between atoms: N_8  and  C_9 
REMARK    4  A    between atoms: C_9  and  C_10 
REMARK    5  A    between atoms: C_17  and  C_18 
REMARK       I    between atoms: C_18  and  N_19 
REMARK    6  A    between atoms: N_19  and  N_20 
REMARK       I    between atoms: N_20  and  C_21 
REMARK    7  A    between atoms: C_21  and  C_22 
ROOT
HETATM    1  C   UNL     1      42.272 -14.983   4.946  1.00  0.00     0.104 A 
HETATM    2  N   UNL     1      42.440 -16.316   5.034  1.00  0.00    -0.171 NA
HETATM    3  N   UNL     1      43.445 -16.486   5.904  1.00  0.00    -0.275 N 
HETATM    4  C   UNL     1      43.920 -15.313   6.410  1.00  0.00     0.132 A 
HETATM    5  C   UNL     1      43.190 -14.297   5.809  1.00  0.00     0.082 A 
ENDROOT
BRANCH   5   6
HETATM    6  C   UNL     1      43.381 -12.868   6.019  1.00  0.00     0.274 C 
HETATM    7  N   UNL     1      43.093 -12.435   7.300  1.00  0.00    -0.263 N 
HETATM    8  H   UNL     1      42.613 -13.026   7.976  1.00  0.00     0.190 HD
HETATM    9  O   UNL     1      43.748 -12.088   5.144  1.00  0.00    -0.266 OA
BRANCH   7  10
HETATM   10  N   UNL     1      43.032 -11.054   7.550  1.00  0.00    -0.262 N 
HETATM   11  C   UNL     1      43.745 -10.553   8.619  1.00  0.00     0.286 C 
HETATM   12  O   UNL     1      44.490 -11.271   9.288  1.00  0.00    -0.264 OA
HETATM   13  H   UNL     1      42.327 -10.525   7.043  1.00  0.00     0.190 HD
BRANCH  11  14
HETATM   14  C   UNL     1      43.559  -9.148   8.902  1.00  0.00     0.102 A 
HETATM   15  N   UNL     1      42.385  -8.680   9.456  1.00  0.00    -0.361 N 
HETATM   16  H   UNL     1      41.600  -9.275   9.693  1.00  0.00     0.165 HD
HETATM   17  C   UNL     1      42.448  -7.325   9.634  1.00  0.00     0.088 A 
HETATM   18  C   UNL     1      43.677  -6.900   9.187  1.00  0.00     0.019 A 
HETATM   19  C   UNL     1      44.377  -8.043   8.726  1.00  0.00     0.036 A 
ENDBRANCH  11  14
ENDBRANCH   7  10
ENDBRANCH   5   6
BRANCH   1  20
HETATM   20  C   UNL     1      41.230 -14.459   4.053  1.00  0.00    -0.002 A 
HETATM   21  C   UNL     1      41.016 -14.987   2.774  1.00  0.00     0.050 A 
HETATM   22  C   UNL     1      40.024 -14.464   1.935  1.00  0.00     0.069 A 
HETATM   23  C   UNL     1      39.259 -13.378   2.364  1.00  0.00     0.037 A 
HETATM   24  C   UNL     1      39.475 -12.829   3.627  1.00  0.00     0.004 A 
HETATM   25  C   UNL     1      40.452 -13.365   4.466  1.00  0.00     0.014 A 
BRANCH  22  26
HETATM   26  O   UNL     1      39.913 -15.087   0.721  1.00  0.00    -0.356 OA
HETATM   27  C   UNL     1      39.867 -14.246  -0.425  1.00  0.00     0.210 C 
ENDBRANCH  22  26
ENDBRANCH   1  20
BRANCH   3  28
HETATM   28  C   UNL     1      43.874 -17.830   6.268  1.00  0.00     0.189 C 
BRANCH  28  29
HETATM   29  C   UNL     1      43.885 -18.767   5.086  1.00  0.00    -0.038 A 
HETATM   30  C   UNL     1      43.900 -20.157   5.275  1.00  0.00     0.009 A 
HETATM   31  C   UNL     1      43.881 -21.020   4.177  1.00  0.00     0.001 A 
HETATM   32  C   UNL     1      43.845 -20.506   2.882  1.00  0.00     0.000 A 
HETATM   33  C   UNL     1      43.829 -19.127   2.682  1.00  0.00     0.001 A 
HETATM   34  C   UNL     1      43.847 -18.263   3.776  1.00  0.00     0.009 A 
ENDBRANCH  28  29
ENDBRANCH   3  28
TORSDOF 7
ENDMDL
MODEL 6
REMARK VINA RESULT:      -8.7      2.219      7.863
REMARK  7 active torsions:
REMARK  status: ('A' for Active; 'I' for Inactive)
REMARK    1  A    between atoms: O_2  and  C_3 
REMARK    2  A    between atoms: C_5  and  C_6 
REMARK    3  A    between atoms: N_8  and  C_9 
REMARK    4  A    between atoms: C_9  and  C_10 
REMARK    5  A    between atoms: C_17  and  C_18 
REMARK       I    between atoms: C_18  and  N_19 
REMARK    6  A    between atoms: N_19  and  N_20 
REMARK       I    between atoms: N_20  and  C_21 
REMARK    7  A    between atoms: C_21  and  C_22 
ROOT
HETATM    1  C   UNL     1      41.988 -15.375   2.305  1.00  0.00     0.104 A 
HETATM    2  N   UNL     1      41.098 -15.716   1.352  1.00  0.00    -0.171 NA
HETATM    3  N   UNL     1      40.637 -14.553   0.871  1.00  0.00    -0.275 N 
HETATM    4  C   UNL     1      41.214 -13.466   1.455  1.00  0.00     0.132 A 
HETATM    5  C   UNL     1      42.101 -13.949   2.406  1.00  0.00     0.082 A 
ENDROOT
BRANCH   5   6
HETATM    6  C   UNL     1      42.915 -13.141   3.304  1.00  0.00     0.274 C 
HETATM    7  N   UNL     1      42.436 -13.068   4.599  1.00  0.00    -0.263 N 
HETATM    8  H   UNL     1      41.504 -13.391   4.850  1.00  0.00     0.190 HD
HETATM    9  O   UNL     1      43.936 -12.549   2.963  1.00  0.00    -0.266 OA
BRANCH   7  10
HETATM   10  N   UNL     1      43.017 -12.146   5.485  1.00  0.00    -0.262 N 
HETATM   11  C   UNL     1      43.884 -12.623   6.446  1.00  0.00     0.286 C 
HETATM   12  O   UNL     1      44.218 -13.808   6.479  1.00  0.00    -0.264 OA
HETATM   13  H   UNL     1      42.633 -11.205   5.488  1.00  0.00     0.190 HD
BRANCH  11  14
HETATM   14  C   UNL     1      44.366 -11.653   7.402  1.00  0.00     0.102 A 
HETATM   15  N   UNL     1      43.572 -11.226   8.448  1.00  0.00    -0.361 N 
HETATM   16  H   UNL     1      42.627 -11.555   8.607  1.00  0.00     0.165 HD
HETATM   17  C   UNL     1      44.245 -10.315   9.217  1.00  0.00     0.088 A 
HETATM   18  C   UNL     1      45.492 -10.141   8.666  1.00  0.00     0.019 A 
HETATM   19  C   UNL     1      45.572 -10.980   7.526  1.00  0.00     0.036 A 
ENDBRANCH  11  14
ENDBRANCH   7  10
ENDBRANCH   5   6
BRANCH   1  20
HETATM   20  C   UNL     1      42.679 -16.442   3.040  1.00  0.00    -0.002 A 
HETATM   21  C   UNL     1      42.764 -16.445   4.437  1.00  0.00     0.050 A 
HETATM   22  C   UNL     1      43.439 -17.466   5.117  1.00  0.00     0.069 A 
HETATM   23  C   UNL     1      44.067 -18.480   4.392  1.00  0.00     0.037 A 
HETATM   24  C   UNL     1      44.009 -18.479   2.999  1.00  0.00     0.004 A 
HETATM   25  C   UNL     1      43.320 -17.469   2.328  1.00  0.00     0.014 A 
BRANCH  22  26
HETATM   26  O   UNL     1      43.428 -17.352   6.482  1.00  0.00    -0.356 OA
HETATM   27  C   UNL     1      42.398 -16.549   7.045  1.00  0.00     0.210 C 
ENDBRANCH  22  26
ENDBRANCH   1  20
BRANCH   3  28
HETATM   28  C   UNL     1      39.668 -14.548  -0.217  1.00  0.00     0.189 C 
BRANCH  28  29
HETATM   29  C   UNL     1      39.871 -13.385  -1.157  1.00  0.00    -0.038 A 
HETATM   30  C   UNL     1      39.201 -12.170  -0.946  1.00  0.00     0.009 A 
HETATM   31  C   UNL     1      39.414 -11.087  -1.802  1.00  0.00     0.001 A 
HETATM   32  C   UNL     1      40.296 -11.206  -2.874  1.00  0.00     0.000 A 
HETATM   33  C   UNL     1      40.967 -12.407  -3.095  1.00  0.00     0.001 A 
HETATM   34  C   UNL     1      40.757 -13.489  -2.240  1.00  0.00     0.009 A 
ENDBRANCH  28  29
ENDBRANCH   3  28
TORSDOF 7
ENDMDL
MODEL 7
REMARK VINA RESULT:      -8.6      2.388      6.104
REMARK  7 active torsions:
REMARK  status: ('A' for Active; 'I' for Inactive)
REMARK    1  A    between atoms: O_2  and  C_3 
REMARK    2  A    between atoms: C_5  and  C_6 
REMARK    3  A    between atoms: N_8  and  C_9 
REMARK    4  A    between atoms: C_9  and  C_10 
REMARK    5  A    between atoms: C_17  and  C_18 
REMARK       I    between atoms: C_18  and  N_19 
REMARK    6  A    between atoms: N_19  and  N_20 
REMARK       I    between atoms: N_20  and  C_21 
REMARK    7  A    between atoms: C_21  and  C_22 
ROOT
HETATM    1  C   UNL     1      42.267 -14.306   4.282  1.00  0.00     0.104 A 
HETATM    2  N   UNL     1      43.222 -14.930   4.998  1.00  0.00    -0.171 NA
HETATM    3  N   UNL     1      43.138 -16.220   4.644  1.00  0.00    -0.275 N 
HETATM    4  C   UNL     1      42.183 -16.456   3.702  1.00  0.00     0.132 A 
HETATM    5  C   UNL     1      41.578 -15.237   3.435  1.00  0.00     0.082 A 
ENDROOT
BRANCH   5   6
HETATM    6  C   UNL     1      40.469 -15.015   2.517  1.00  0.00     0.274 C 
HETATM    7  N   UNL     1      40.797 -15.154   1.180  1.00  0.00    -0.263 N 
HETATM    8  H   UNL     1      41.762 -15.218   0.865  1.00  0.00     0.190 HD
HETATM    9  O   UNL     1      39.332 -14.710   2.871  1.00  0.00    -0.266 OA
BRANCH   7  10
HETATM   10  N   UNL     1      39.866 -14.750   0.210  1.00  0.00    -0.262 N 
HETATM   11  C   UNL     1      39.992 -13.487  -0.329  1.00  0.00     0.286 C 
HETATM   12  O   UNL     1      40.942 -12.757  -0.042  1.00  0.00    -0.264 OA
HETATM   13  H   UNL     1      39.045 -15.338   0.085  1.00  0.00     0.190 HD
BRANCH  11  14
HETATM   14  C   UNL     1      38.945 -13.078  -1.238  1.00  0.00     0.102 A 
HETATM   15  N   UNL     1      38.136 -14.008  -1.860  1.00  0.00    -0.361 N 
HETATM   16  H   UNL     1      38.223 -15.008  -1.724  1.00  0.00     0.165 HD
HETATM   17  C   UNL     1      37.222 -13.383  -2.665  1.00  0.00     0.088 A 
HETATM   18  C   UNL     1      37.438 -12.028  -2.571  1.00  0.00     0.019 A 
HETATM   19  C   UNL     1      38.520 -11.833  -1.675  1.00  0.00     0.036 A 
ENDBRANCH  11  14
ENDBRANCH   7  10
ENDBRANCH   5   6
BRANCH   1  20
HETATM   20  C   UNL     1      42.093 -12.857   4.447  1.00  0.00    -0.002 A 
HETATM   21  C   UNL     1      41.396 -12.313   5.532  1.00  0.00     0.050 A 
HETATM   22  C   UNL     1      41.232 -10.928   5.663  1.00  0.00     0.069 A 
HETATM   23  C   UNL     1      41.741 -10.077   4.681  1.00  0.00     0.037 A 
HETATM   24  C   UNL     1      42.420 -10.606   3.584  1.00  0.00     0.004 A 
HETATM   25  C   UNL     1      42.596 -11.985   3.468  1.00  0.00     0.014 A 
BRANCH  22  26
HETATM   26  O   UNL     1      40.545 -10.535   6.780  1.00  0.00    -0.356 OA
HETATM   27  C   UNL     1      39.182 -10.934   6.863  1.00  0.00     0.210 C 
ENDBRANCH  22  26
ENDBRANCH   1  20
BRANCH   3  28
HETATM   28  C   UNL     1      44.065 -17.192   5.209  1.00  0.00     0.189 C 
BRANCH  28  29
HETATM   29  C   UNL     1      44.005 -18.521   4.496  1.00  0.00    -0.038 A 
HETATM   30  C   UNL     1      43.989 -19.722   5.222  1.00  0.00     0.009 A 
HETATM   31  C   UNL     1      43.904 -20.947   4.559  1.00  0.00     0.001 A 
HETATM   32  C   UNL     1      43.833 -20.988   3.168  1.00  0.00     0.000 A 
HETATM   33  C   UNL     1      43.849 -19.802   2.436  1.00  0.00     0.001 A 
HETATM   34  C   UNL     1      43.932 -18.576   3.096  1.00  0.00     0.009 A 
ENDBRANCH  28  29
ENDBRANCH   3  28
TORSDOF 7
ENDMDL
MODEL 8
REMARK VINA RESULT:      -8.5      1.927      7.431
REMARK  7 active torsions:
REMARK  status: ('A' for Active; 'I' for Inactive)
REMARK    1  A    between atoms: O_2  and  C_3 
REMARK    2  A    between atoms: C_5  and  C_6 
REMARK    3  A    between atoms: N_8  and  C_9 
REMARK    4  A    between atoms: C_9  and  C_10 
REMARK    5  A    between atoms: C_17  and  C_18 
REMARK       I    between atoms: C_18  and  N_19 
REMARK    6  A    between atoms: N_19  and  N_20 
REMARK       I    between atoms: N_20  and  C_21 
REMARK    7  A    between atoms: C_21  and  C_22 
ROOT
HETATM    1  C   UNL     1      41.726 -15.725   2.833  1.00  0.00     0.104 A 
HETATM    2  N   UNL     1      41.172 -15.964   1.629  1.00  0.00    -0.171 NA
HETATM    3  N   UNL     1      40.388 -14.903   1.388  1.00  0.00    -0.275 N 
HETATM    4  C   UNL     1      40.433 -13.969   2.378  1.00  0.00     0.132 A 
HETATM    5  C   UNL     1      41.289 -14.461   3.352  1.00  0.00     0.082 A 
ENDROOT
BRANCH   5   6
HETATM    6  C   UNL     1      41.609 -13.813   4.617  1.00  0.00     0.274 C 
HETATM    7  N   UNL     1      42.839 -13.182   4.641  1.00  0.00    -0.263 N 
HETATM    8  H   UNL     1      43.532 -13.321   3.908  1.00  0.00     0.190 HD
HETATM    9  O   UNL     1      40.874 -13.826   5.602  1.00  0.00    -0.266 OA
BRANCH   7  10
HETATM   10  N   UNL     1      43.338 -12.718   5.869  1.00  0.00    -0.262 N 
HETATM   11  C   UNL     1      43.434 -11.356   6.060  1.00  0.00     0.286 C 
HETATM   12  O   UNL     1      43.013 -10.557   5.222  1.00  0.00    -0.264 OA
HETATM   13  H   UNL     1      43.769 -13.406   6.481  1.00  0.00     0.190 HD
BRANCH  11  14
HETATM   14  C   UNL     1      44.058 -10.932   7.293  1.00  0.00     0.102 A 
HETATM   15  N   UNL     1      43.312 -10.713   8.433  1.00  0.00    -0.361 N 
HETATM   16  H   UNL     1      42.307 -10.832   8.478  1.00  0.00     0.165 HD
HETATM   17  C   UNL     1      44.121 -10.324   9.466  1.00  0.00     0.088 A 
HETATM   18  C   UNL     1      45.412 -10.284   8.995  1.00  0.00     0.019 A 
HETATM   19  C   UNL     1      45.376 -10.665   7.630  1.00  0.00     0.036 A 
ENDBRANCH  11  14
ENDBRANCH   7  10
ENDBRANCH   5   6
BRANCH   1  20
HETATM   20  C   UNL     1      42.649 -16.719   3.395  1.00  0.00    -0.002 A 
HETATM   21  C   UNL     1      43.132 -17.794   2.639  1.00  0.00     0.050 A 
HETATM   22  C   UNL     1      44.002 -18.737   3.199  1.00  0.00     0.069 A 
HETATM   23  C   UNL     1      44.371 -18.625   4.540  1.00  0.00     0.037 A 
HETATM   24  C   UNL     1      43.882 -17.571   5.312  1.00  0.00     0.004 A 
HETATM   25  C   UNL     1      43.029 -16.625   4.744  1.00  0.00     0.014 A 
BRANCH  22  26
HETATM   26  O   UNL     1      44.408 -19.724   2.341  1.00  0.00    -0.356 OA
HETATM   27  C   UNL     1      43.383 -20.488   1.719  1.00  0.00     0.210 C 
ENDBRANCH  22  26
ENDBRANCH   1  20
BRANCH   3  28
HETATM   28  C   UNL     1      39.652 -14.811   0.134  1.00  0.00     0.189 C 
BRANCH  28  29
HETATM   29  C   UNL     1      40.221 -13.760  -0.787  1.00  0.00    -0.038 A 
HETATM   30  C   UNL     1      40.245 -13.962  -2.175  1.00  0.00     0.009 A 
HETATM   31  C   UNL     1      40.747 -12.974  -3.025  1.00  0.00     0.001 A 
HETATM   32  C   UNL     1      41.228 -11.776  -2.500  1.00  0.00     0.000 A 
HETATM   33  C   UNL     1      41.210 -11.564  -1.123  1.00  0.00     0.001 A 
HETATM   34  C   UNL     1      40.708 -12.548  -0.271  1.00  0.00     0.009 A 
ENDBRANCH  28  29
ENDBRANCH   3  28
TORSDOF 7
ENDMDL
MODEL 9
REMARK VINA RESULT:      -8.4      2.499      3.847
REMARK  7 active torsions:
REMARK  status: ('A' for Active; 'I' for Inactive)
REMARK    1  A    between atoms: O_2  and  C_3 
REMARK    2  A    between atoms: C_5  and  C_6 
REMARK    3  A    between atoms: N_8  and  C_9 
REMARK    4  A    between atoms: C_9  and  C_10 
REMARK    5  A    between atoms: C_17  and  C_18 
REMARK       I    between atoms: C_18  and  N_19 
REMARK    6  A    between atoms: N_19  and  N_20 
REMARK       I    between atoms: N_20  and  C_21 
REMARK    7  A    between atoms: C_21  and  C_22 
ROOT
HETATM    1  C   UNL     1      43.601 -12.829   6.640  1.00  0.00     0.104 A 
HETATM    2  N   UNL     1      44.020 -12.447   7.862  1.00  0.00    -0.171 NA
HETATM    3  N   UNL     1      44.450 -11.187   7.707  1.00  0.00    -0.275 N 
HETATM    4  C   UNL     1      44.299 -10.722   6.435  1.00  0.00     0.132 A 
HETATM    5  C   UNL     1      43.754 -11.760   5.694  1.00  0.00     0.082 A 
ENDROOT
BRANCH   5   6
HETATM    6  C   UNL     1      43.457 -11.730   4.268  1.00  0.00     0.274 C 
HETATM    7  N   UNL     1      42.135 -11.989   3.954  1.00  0.00    -0.263 N 
HETATM    8  H   UNL     1      41.478 -12.352   4.640  1.00  0.00     0.190 HD
HETATM    9  O   UNL     1      44.295 -11.513   3.396  1.00  0.00    -0.266 OA
BRANCH   7  10
HETATM   10  N   UNL     1      41.788 -12.199   2.609  1.00  0.00    -0.262 N 
HETATM   11  C   UNL     1      40.693 -12.991   2.335  1.00  0.00     0.286 C 
HETATM   12  O   UNL     1      39.977 -13.432   3.236  1.00  0.00    -0.264 OA
HETATM   13  H   UNL     1      42.464 -11.907   1.908  1.00  0.00     0.190 HD
BRANCH  11  14
HETATM   14  C   UNL     1      40.445 -13.269   0.939  1.00  0.00     0.102 A 
HETATM   15  N   UNL     1      39.769 -14.407   0.546  1.00  0.00    -0.361 N 
HETATM   16  H   UNL     1      39.413 -15.100   1.194  1.00  0.00     0.165 HD
HETATM   17  C   UNL     1      39.655 -14.448  -0.817  1.00  0.00     0.088 A 
HETATM   18  C   UNL     1      40.267 -13.325  -1.323  1.00  0.00     0.019 A 
HETATM   19  C   UNL     1      40.765 -12.583  -0.222  1.00  0.00     0.036 A 
ENDBRANCH  11  14
ENDBRANCH   7  10
ENDBRANCH   5   6
BRANCH   1  20
HETATM   20  C   UNL     1      43.066 -14.185   6.468  1.00  0.00    -0.002 A 
HETATM   21  C   UNL     1      43.898 -15.285   6.222  1.00  0.00     0.050 A 
HETATM   22  C   UNL     1      43.365 -16.568   6.050  1.00  0.00     0.069 A 
HETATM   23  C   UNL     1      41.983 -16.752   6.089  1.00  0.00     0.037 A 
HETATM   24  C   UNL     1      41.140 -15.664   6.312  1.00  0.00     0.004 A 
HETATM   25  C   UNL     1      41.678 -14.390   6.501  1.00  0.00     0.014 A 
BRANCH  22  26
HETATM   26  O   UNL     1      44.294 -17.551   5.834  1.00  0.00    -0.356 OA
HETATM   27  C   UNL     1      44.229 -18.226   4.584  1.00  0.00     0.210 C 
ENDBRANCH  22  26
ENDBRANCH   1  20
BRANCH   3  28
HETATM   28  C   UNL     1      44.947 -10.440   8.855  1.00  0.00     0.189 C 
BRANCH  28  29
HETATM   29  C   UNL     1      43.871 -10.191   9.884  1.00  0.00    -0.038 A 
HETATM   30  C   UNL     1      44.012 -10.667  11.196  1.00  0.00     0.009 A 
HETATM   31  C   UNL     1      43.027 -10.409  12.151  1.00  0.00     0.001 A 
HETATM   32  C   UNL     1      41.894  -9.674  11.808  1.00  0.00     0.000 A 
HETATM   33  C   UNL     1      41.742  -9.195  10.509  1.00  0.00     0.001 A 
HETATM   34  C   UNL     1      42.725  -9.450   9.552  1.00  0.00     0.009 A 
ENDBRANCH  28  29
ENDBRANCH   3  28
TORSDOF 7
ENDMDL
MODEL 10
REMARK VINA RESULT:      -8.2      2.080      7.811
REMARK  7 active torsions:
REMARK  status: ('A' for Active; 'I' for Inactive)
REMARK    1  A    between atoms: O_2  and  C_3 
REMARK    2  A    between atoms: C_5  and  C_6 
REMARK    3  A    between atoms: N_8  and  C_9 
REMARK    4  A    between atoms: C_9  and  C_10 
REMARK    5  A    between atoms: C_17  and  C_18 
REMARK       I    between atoms: C_18  and  N_19 
REMARK    6  A    between atoms: N_19  and  N_20 
REMARK       I    between atoms: N_20  and  C_21 
REMARK    7  A    between atoms: C_21  and  C_22 
ROOT
HETATM    1  C   UNL     1      41.304 -14.565   2.225  1.00  0.00     0.104 A 
HETATM    2  N   UNL     1      40.680 -15.134   1.176  1.00  0.00    -0.171 NA
HETATM    3  N   UNL     1      40.462 -14.132   0.313  1.00  0.00    -0.275 N 
HETATM    4  C   UNL     1      40.947 -12.935   0.748  1.00  0.00     0.132 A 
HETATM    5  C   UNL     1      41.502 -13.162   1.998  1.00  0.00     0.082 A 
ENDROOT
BRANCH   5   6
HETATM    6  C   UNL     1      42.107 -12.156   2.861  1.00  0.00     0.274 C 
HETATM    7  N   UNL     1      43.418 -12.417   3.213  1.00  0.00    -0.263 N 
HETATM    8  H   UNL     1      43.855 -13.320   3.039  1.00  0.00     0.190 HD
HETATM    9  O   UNL     1      41.517 -11.159   3.272  1.00  0.00    -0.266 OA
BRANCH   7  10
HETATM   10  N   UNL     1      44.021 -11.633   4.210  1.00  0.00    -0.262 N 
HETATM   11  C   UNL     1      44.012 -12.106   5.505  1.00  0.00     0.286 C 
HETATM   12  O   UNL     1      43.572 -13.224   5.779  1.00  0.00    -0.264 OA
HETATM   13  H   UNL     1      44.271 -10.680   3.958  1.00  0.00     0.190 HD
BRANCH  11  14
HETATM   14  C   UNL     1      44.542 -11.213   6.510  1.00  0.00     0.102 A 
HETATM   15  N   UNL     1      43.720 -10.339   7.194  1.00  0.00    -0.361 N 
HETATM   16  H   UNL     1      42.722 -10.270   7.039  1.00  0.00     0.165 HD
HETATM   17  C   UNL     1      44.447  -9.604   8.091  1.00  0.00     0.088 A 
HETATM   18  C   UNL     1      45.760  -9.999   7.991  1.00  0.00     0.019 A 
HETATM   19  C   UNL     1      45.823 -11.009   6.999  1.00  0.00     0.036 A 
ENDBRANCH  11  14
ENDBRANCH   7  10
ENDBRANCH   5   6
BRANCH   1  20
HETATM   20  C   UNL     1      41.683 -15.409   3.364  1.00  0.00    -0.002 A 
HETATM   21  C   UNL     1      42.778 -16.281   3.310  1.00  0.00     0.050 A 
HETATM   22  C   UNL     1      43.114 -17.087   4.405  1.00  0.00     0.069 A 
HETATM   23  C   UNL     1      42.328 -17.047   5.558  1.00  0.00     0.037 A 
HETATM   24  C   UNL     1      41.223 -16.199   5.620  1.00  0.00     0.004 A 
HETATM   25  C   UNL     1      40.903 -15.386   4.532  1.00  0.00     0.014 A 
BRANCH  22  26
HETATM   26  O   UNL     1      44.216 -17.877   4.219  1.00  0.00    -0.356 OA
HETATM   27  C   UNL     1      44.107 -18.904   3.241  1.00  0.00     0.210 C 
ENDBRANCH  22  26
ENDBRANCH   1  20
BRANCH   3  28
HETATM   28  C   UNL     1      39.826 -14.401  -0.970  1.00  0.00     0.189 C 
BRANCH  28  29
HETATM   29  C   UNL     1      39.403 -13.135  -1.675  1.00  0.00    -0.038 A 
HETATM   30  C   UNL     1      40.291 -12.459  -2.525  1.00  0.00     0.009 A 
HETATM   31  C   UNL     1      39.886 -11.304  -3.198  1.00  0.00     0.001 A 
HETATM   32  C   UNL     1      38.593 -10.814  -3.030  1.00  0.00     0.000 A 
HETATM   33  C   UNL     1      37.701 -11.476  -2.188  1.00  0.00     0.001 A 
HETATM   34  C   UNL     1      38.103 -12.631  -1.517  1.00  0.00     0.009 A 
ENDBRANCH  28  29
ENDBRANCH   3  28
TORSDOF 7
ENDMDL
