MODEL 1
REMARK VINA RESULT:      -9.8      0.000      0.000
REMARK  7 active torsions:
REMARK  status: ('A' for Active; 'I' for Inactive)
REMARK    1  A    between atoms: C_2  and  C_3 
REMARK    2  A    between atoms: N_21  and  N_23 
REMARK       I    between atoms: N_23  and  C_24 
REMARK    3  A    between atoms: C_24  and  C_25 
REMARK    4  A    between atoms: C_25  and  N_26 
REMARK    5  A    between atoms: C_25  and  C_34 
REMARK       I    between atoms: N_26  and  C_27 
REMARK    6  A    between atoms: C_27  and  O_28 
REMARK    7  A    between atoms: O_28  and  C_29 
ROOT
HETATM    1  C   UNL     1      42.916 -14.639   6.287  1.00  0.00    -0.041 C 
HETATM    2  C   UNL     1      43.286 -13.217   6.244  1.00  0.00     0.005 C 
HETATM    3  C   UNL     1      42.305 -12.292   5.877  1.00  0.00     0.091 C 
HETATM    4  C   UNL     1      42.399 -10.957   6.266  1.00  0.00     0.075 C 
HETATM    5  C   UNL     1      43.542 -10.545   6.947  1.00  0.00     0.079 C 
HETATM    6  C   UNL     1      44.663 -11.375   7.016  1.00  0.00    -0.024 C 
HETATM    7  C   UNL     1      45.981 -10.858   7.529  1.00  0.00     0.044 C 
HETATM    8  C   UNL     1      45.863  -9.413   8.006  1.00  0.00     0.043 C 
HETATM    9  C   UNL     1      44.485  -9.176   8.647  1.00  0.00     0.068 C 
HETATM   10  C   UNL     1      44.247 -10.124   9.860  1.00  0.00     0.038 C 
HETATM   11  C   UNL     1      42.942  -9.841  10.594  1.00  0.00     0.003 C 
HETATM   12  C   UNL     1      42.894  -8.398  11.072  1.00  0.00     0.000 C 
HETATM   13  C   UNL     1      43.095  -7.430   9.911  1.00  0.00     0.003 C 
HETATM   14  C   UNL     1      44.388  -7.715   9.138  1.00  0.00     0.038 C 
HETATM   15  O   UNL     1      43.483  -9.342   7.606  1.00  0.00    -0.340 OA
HETATM   16  C   UNL     1      44.513 -12.731   6.704  1.00  0.00     0.024 C 
HETATM   17  O   UNL     1      41.179 -12.689   5.122  1.00  0.00    -0.292 OA
HETATM   18  C   UNL     1      40.976 -14.037   4.953  1.00  0.00     0.163 C 
HETATM   19  N   UNL     1      40.033 -14.373   4.154  1.00  0.00    -0.277 N 
HETATM   20  H   UNL     1      39.765 -15.368   4.116  1.00  0.00     0.189 HD
HETATM   21  C   UNL     1      41.770 -15.011   5.699  1.00  0.00     0.065 C 
ENDROOT
BRANCH  19  22
HETATM   22  N   UNL     1      39.434 -13.547   3.187  1.00  0.00    -0.266 N 
HETATM   23  C   UNL     1      39.735 -13.918   1.885  1.00  0.00     0.263 C 
HETATM   24  O   UNL     1      40.143 -15.067   1.671  1.00  0.00    -0.269 OA
HETATM   25  H   UNL     1      39.204 -12.591   3.456  1.00  0.00     0.190 HD
BRANCH  23  26
HETATM   26  C   UNL     1      39.790 -12.814   0.809  1.00  0.00     0.214 C 
BRANCH  26  27
HETATM   27  N   UNL     1      39.239 -11.575   1.337  1.00  0.00    -0.319 N 
HETATM   28  C   UNL     1      39.818 -10.353   1.195  1.00  0.00     0.362 C 
HETATM   29  O   UNL     1      40.818 -10.149   0.521  1.00  0.00    -0.238 OA
HETATM   30  H   UNL     1      38.478 -11.617   2.005  1.00  0.00     0.166 HD
BRANCH  28  31
HETATM   31  O   UNL     1      39.109  -9.447   1.892  1.00  0.00    -0.294 OA
BRANCH  31  32
HETATM   32  C   UNL     1      39.438  -9.116   3.268  1.00  0.00     0.061 C 
HETATM   33  C   UNL     1      40.954  -9.145   3.497  1.00  0.00     0.046 C 
HETATM   34  C   UNL     1      38.940  -7.675   3.459  1.00  0.00     0.046 C 
HETATM   35  C   UNL     1      38.695 -10.031   4.246  1.00  0.00     0.046 C 
ENDBRANCH  31  32
ENDBRANCH  28  31
ENDBRANCH  26  27
BRANCH  26  36
HETATM   36  C   UNL     1      39.286 -13.205  -0.565  1.00  0.00    -0.026 A 
HETATM   37  C   UNL     1      38.094 -12.621  -1.034  1.00  0.00     0.010 A 
HETATM   38  C   UNL     1      37.569 -12.965  -2.280  1.00  0.00     0.001 A 
HETATM   39  C   UNL     1      38.228 -13.892  -3.080  1.00  0.00     0.000 A 
HETATM   40  C   UNL     1      39.414 -14.471  -2.639  1.00  0.00     0.001 A 
HETATM   41  C   UNL     1      39.943 -14.130  -1.391  1.00  0.00     0.010 A 
ENDBRANCH  26  36
ENDBRANCH  23  26
ENDBRANCH  19  22
BRANCH   1  42
HETATM   42  C   UNL     1      43.690 -15.598   7.164  1.00  0.00     0.035 C 
HETATM   43  C   UNL     1      44.668 -16.468   6.392  1.00  0.00     0.010 C 
ENDBRANCH   1  42
TORSDOF 7
ENDMDL
MODEL 2
REMARK VINA RESULT:      -9.4      1.126      3.851
REMARK  7 active torsions:
REMARK  status: ('A' for Active; 'I' for Inactive)
REMARK    1  A    between atoms: C_2  and  C_3 
REMARK    2  A    between atoms: N_21  and  N_23 
REMARK       I    between atoms: N_23  and  C_24 
REMARK    3  A    between atoms: C_24  and  C_25 
REMARK    4  A    between atoms: C_25  and  N_26 
REMARK    5  A    between atoms: C_25  and  C_34 
REMARK       I    between atoms: N_26  and  C_27 
REMARK    6  A    between atoms: C_27  and  O_28 
REMARK    7  A    between atoms: O_28  and  C_29 
ROOT
HETATM    1  C   UNL     1      43.392 -14.568   6.145  1.00  0.00    -0.041 C 
HETATM    2  C   UNL     1      43.545 -13.110   6.254  1.00  0.00     0.005 C 
HETATM    3  C   UNL     1      42.393 -12.321   6.194  1.00  0.00     0.091 C 
HETATM    4  C   UNL     1      42.369 -11.046   6.756  1.00  0.00     0.075 C 
HETATM    5  C   UNL     1      43.549 -10.538   7.295  1.00  0.00     0.079 C 
HETATM    6  C   UNL     1      44.769 -11.175   7.056  1.00  0.00    -0.024 C 
HETATM    7  C   UNL     1      46.073 -10.515   7.418  1.00  0.00     0.044 C 
HETATM    8  C   UNL     1      45.844  -9.178   8.117  1.00  0.00     0.043 C 
HETATM    9  C   UNL     1      44.587  -9.250   9.003  1.00  0.00     0.068 C 
HETATM   10  C   UNL     1      44.712 -10.365  10.083  1.00  0.00     0.038 C 
HETATM   11  C   UNL     1      43.538 -10.391  11.055  1.00  0.00     0.003 C 
HETATM   12  C   UNL     1      43.377  -9.045  11.743  1.00  0.00     0.000 C 
HETATM   13  C   UNL     1      43.224  -7.922  10.722  1.00  0.00     0.003 C 
HETATM   14  C   UNL     1      44.379  -7.896   9.715  1.00  0.00     0.038 C 
HETATM   15  O   UNL     1      43.444  -9.451   8.127  1.00  0.00    -0.340 OA
HETATM   16  C   UNL     1      44.755 -12.488   6.574  1.00  0.00     0.024 C 
HETATM   17  O   UNL     1      41.214 -12.802   5.582  1.00  0.00    -0.292 OA
HETATM   18  C   UNL     1      41.174 -14.134   5.250  1.00  0.00     0.163 C 
HETATM   19  N   UNL     1      40.157 -14.521   4.575  1.00  0.00    -0.277 N 
HETATM   20  H   UNL     1      40.029 -15.534   4.434  1.00  0.00     0.189 HD
HETATM   21  C   UNL     1      42.221 -15.048   5.703  1.00  0.00     0.065 C 
ENDROOT
BRANCH  19  22
HETATM   22  N   UNL     1      39.280 -13.692   3.852  1.00  0.00    -0.266 N 
HETATM   23  C   UNL     1      39.730 -13.400   2.573  1.00  0.00     0.263 C 
HETATM   24  O   UNL     1      40.589 -14.129   2.060  1.00  0.00    -0.269 OA
HETATM   25  H   UNL     1      38.664 -13.078   4.381  1.00  0.00     0.190 HD
BRANCH  23  26
HETATM   26  C   UNL     1      39.331 -12.044   1.955  1.00  0.00     0.214 C 
BRANCH  26  27
HETATM   27  N   UNL     1      39.666 -12.023   0.538  1.00  0.00    -0.319 N 
HETATM   28  C   UNL     1      38.754 -11.972  -0.468  1.00  0.00     0.362 C 
HETATM   29  O   UNL     1      37.551 -11.838  -0.289  1.00  0.00    -0.238 OA
HETATM   30  H   UNL     1      40.614 -12.238   0.252  1.00  0.00     0.166 HD
BRANCH  28  31
HETATM   31  O   UNL     1      39.394 -12.075  -1.647  1.00  0.00    -0.294 OA
BRANCH  31  32
HETATM   32  C   UNL     1      39.514 -13.348  -2.339  1.00  0.00     0.061 C 
HETATM   33  C   UNL     1      40.837 -13.438  -3.108  1.00  0.00     0.046 C 
HETATM   34  C   UNL     1      39.521 -14.405  -1.224  1.00  0.00     0.046 C 
HETATM   35  C   UNL     1      38.306 -13.595  -3.248  1.00  0.00     0.046 C 
ENDBRANCH  31  32
ENDBRANCH  28  31
ENDBRANCH  26  27
BRANCH  26  36
HETATM   36  C   UNL     1      39.752 -10.814   2.731  1.00  0.00    -0.026 A 
HETATM   37  C   UNL     1      38.750  -9.964   3.236  1.00  0.00     0.010 A 
HETATM   38  C   UNL     1      39.081  -8.802   3.935  1.00  0.00     0.001 A 
HETATM   39  C   UNL     1      40.416  -8.474   4.146  1.00  0.00     0.000 A 
HETATM   40  C   UNL     1      41.420  -9.308   3.664  1.00  0.00     0.001 A 
HETATM   41  C   UNL     1      41.093 -10.472   2.964  1.00  0.00     0.010 A 
ENDBRANCH  26  36
ENDBRANCH  23  26
ENDBRANCH  19  22
BRANCH   1  42
HETATM   42  C   UNL     1      44.441 -15.487   6.731  1.00  0.00     0.035 C 
HETATM   43  C   UNL     1      43.866 -16.765   7.316  1.00  0.00     0.010 C 
ENDBRANCH   1  42
TORSDOF 7
ENDMDL
MODEL 3
REMARK VINA RESULT:      -9.3      3.041      8.583
REMARK  7 active torsions:
REMARK  status: ('A' for Active; 'I' for Inactive)
REMARK    1  A    between atoms: C_2  and  C_3 
REMARK    2  A    between atoms: N_21  and  N_23 
REMARK       I    between atoms: N_23  and  C_24 
REMARK    3  A    between atoms: C_24  and  C_25 
REMARK    4  A    between atoms: C_25  and  N_26 
REMARK    5  A    between atoms: C_25  and  C_34 
REMARK       I    between atoms: N_26  and  C_27 
REMARK    6  A    between atoms: C_27  and  O_28 
REMARK    7  A    between atoms: O_28  and  C_29 
ROOT
HETATM    1  C   UNL     1      39.182 -13.111  -1.554  1.00  0.00    -0.041 C 
HETATM    2  C   UNL     1      39.299 -11.812  -0.875  1.00  0.00     0.005 C 
HETATM    3  C   UNL     1      40.200 -11.704   0.188  1.00  0.00     0.091 C 
HETATM    4  C   UNL     1      40.728 -10.468   0.556  1.00  0.00     0.075 C 
HETATM    5  C   UNL     1      40.265  -9.329  -0.099  1.00  0.00     0.079 C 
HETATM    6  C   UNL     1      39.132  -9.392  -0.914  1.00  0.00    -0.024 C 
HETATM    7  C   UNL     1      38.476  -8.138  -1.429  1.00  0.00     0.044 C 
HETATM    8  C   UNL     1      39.254  -6.893  -1.013  1.00  0.00     0.043 C 
HETATM    9  C   UNL     1      40.764  -7.189  -1.006  1.00  0.00     0.068 C 
HETATM   10  C   UNL     1      41.265  -7.647  -2.407  1.00  0.00     0.038 C 
HETATM   11  C   UNL     1      42.776  -7.837  -2.470  1.00  0.00     0.003 C 
HETATM   12  C   UNL     1      43.497  -6.557  -2.077  1.00  0.00     0.000 C 
HETATM   13  C   UNL     1      43.058  -6.083  -0.696  1.00  0.00     0.003 C 
HETATM   14  C   UNL     1      41.538  -5.915  -0.599  1.00  0.00     0.038 C 
HETATM   15  O   UNL     1      41.011  -8.183   0.026  1.00  0.00    -0.340 OA
HETATM   16  C   UNL     1      38.681 -10.647  -1.337  1.00  0.00     0.024 C 
HETATM   17  O   UNL     1      40.617 -12.848   0.905  1.00  0.00    -0.292 OA
HETATM   18  C   UNL     1      40.282 -14.074   0.387  1.00  0.00     0.163 C 
HETATM   19  N   UNL     1      40.548 -15.091   1.118  1.00  0.00    -0.277 N 
HETATM   20  H   UNL     1      40.440 -16.027   0.700  1.00  0.00     0.189 HD
HETATM   21  C   UNL     1      39.706 -14.187  -0.952  1.00  0.00     0.065 C 
ENDROOT
BRANCH  19  22
HETATM   22  N   UNL     1      40.810 -15.071   2.500  1.00  0.00    -0.266 N 
HETATM   23  C   UNL     1      42.157 -15.201   2.805  1.00  0.00     0.263 C 
HETATM   24  O   UNL     1      42.995 -14.954   1.928  1.00  0.00    -0.269 OA
HETATM   25  H   UNL     1      40.064 -15.364   3.128  1.00  0.00     0.190 HD
BRANCH  23  26
HETATM   26  C   UNL     1      42.537 -15.887   4.133  1.00  0.00     0.214 C 
BRANCH  26  27
HETATM   27  N   UNL     1      43.337 -14.986   4.950  1.00  0.00    -0.319 N 
HETATM   28  C   UNL     1      42.824 -14.025   5.763  1.00  0.00     0.362 C 
HETATM   29  O   UNL     1      41.627 -13.879   5.972  1.00  0.00    -0.238 OA
HETATM   30  H   UNL     1      44.335 -14.927   4.789  1.00  0.00     0.166 HD
BRANCH  28  31
HETATM   31  O   UNL     1      43.834 -13.305   6.285  1.00  0.00    -0.294 OA
BRANCH  31  32
HETATM   32  C   UNL     1      44.005 -11.896   5.974  1.00  0.00     0.061 C 
HETATM   33  C   UNL     1      43.037 -11.028   6.785  1.00  0.00     0.046 C 
HETATM   34  C   UNL     1      45.442 -11.566   6.408  1.00  0.00     0.046 C 
HETATM   35  C   UNL     1      43.874 -11.646   4.469  1.00  0.00     0.046 C 
ENDBRANCH  31  32
ENDBRANCH  28  31
ENDBRANCH  26  27
BRANCH  26  36
HETATM   36  C   UNL     1      43.079 -17.296   4.017  1.00  0.00    -0.026 A 
HETATM   37  C   UNL     1      43.575 -17.922   5.177  1.00  0.00     0.010 A 
HETATM   38  C   UNL     1      44.112 -19.209   5.123  1.00  0.00     0.001 A 
HETATM   39  C   UNL     1      44.156 -19.894   3.913  1.00  0.00     0.000 A 
HETATM   40  C   UNL     1      43.660 -19.296   2.759  1.00  0.00     0.001 A 
HETATM   41  C   UNL     1      43.121 -18.008   2.808  1.00  0.00     0.010 A 
ENDBRANCH  26  36
ENDBRANCH  23  26
ENDBRANCH  19  22
BRANCH   1  42
HETATM   42  C   UNL     1      38.691 -13.177  -2.983  1.00  0.00     0.035 C 
HETATM   43  C   UNL     1      38.340 -14.584  -3.437  1.00  0.00     0.010 C 
ENDBRANCH   1  42
TORSDOF 7
ENDMDL
MODEL 4
REMARK VINA RESULT:      -9.0      3.438      8.229
REMARK  7 active torsions:
REMARK  status: ('A' for Active; 'I' for Inactive)
REMARK    1  A    between atoms: C_2  and  C_3 
REMARK    2  A    between atoms: N_21  and  N_23 
REMARK       I    between atoms: N_23  and  C_24 
REMARK    3  A    between atoms: C_24  and  C_25 
REMARK    4  A    between atoms: C_25  and  N_26 
REMARK    5  A    between atoms: C_25  and  C_34 
REMARK       I    between atoms: N_26  and  C_27 
REMARK    6  A    between atoms: C_27  and  O_28 
REMARK    7  A    between atoms: O_28  and  C_29 
ROOT
HETATM    1  C   UNL     1      38.448 -11.851  -1.256  1.00  0.00    -0.041 C 
HETATM    2  C   UNL     1      39.162 -10.808  -0.504  1.00  0.00     0.005 C 
HETATM    3  C   UNL     1      40.477 -11.066  -0.108  1.00  0.00     0.091 C 
HETATM    4  C   UNL     1      41.363 -10.022   0.153  1.00  0.00     0.075 C 
HETATM    5  C   UNL     1      40.881  -8.716   0.103  1.00  0.00     0.079 C 
HETATM    6  C   UNL     1      39.508  -8.470   0.044  1.00  0.00    -0.024 C 
HETATM    7  C   UNL     1      38.960  -7.081   0.235  1.00  0.00     0.044 C 
HETATM    8  C   UNL     1      40.081  -6.059   0.402  1.00  0.00     0.043 C 
HETATM    9  C   UNL     1      41.286  -6.446  -0.474  1.00  0.00     0.068 C 
HETATM   10  C   UNL     1      40.898  -6.522  -1.981  1.00  0.00     0.038 C 
HETATM   11  C   UNL     1      42.090  -6.787  -2.893  1.00  0.00     0.003 C 
HETATM   12  C   UNL     1      43.159  -5.723  -2.707  1.00  0.00     0.000 C 
HETATM   13  C   UNL     1      43.592  -5.630  -1.247  1.00  0.00     0.003 C 
HETATM   14  C   UNL     1      42.405  -5.394  -0.307  1.00  0.00     0.038 C 
HETATM   15  O   UNL     1      41.808  -7.706   0.030  1.00  0.00    -0.340 OA
HETATM   16  C   UNL     1      38.654  -9.521  -0.309  1.00  0.00     0.024 C 
HETATM   17  O   UNL     1      40.951 -12.391   0.018  1.00  0.00    -0.292 OA
HETATM   18  C   UNL     1      40.152 -13.395  -0.470  1.00  0.00     0.163 C 
HETATM   19  N   UNL     1      40.533 -14.593  -0.225  1.00  0.00    -0.277 N 
HETATM   20  H   UNL     1      40.035 -15.363  -0.695  1.00  0.00     0.189 HD
HETATM   21  C   UNL     1      38.967 -13.086  -1.269  1.00  0.00     0.065 C 
ENDROOT
BRANCH  19  22
HETATM   22  N   UNL     1      41.457 -14.982   0.761  1.00  0.00    -0.266 N 
HETATM   23  C   UNL     1      40.903 -15.784   1.748  1.00  0.00     0.263 C 
HETATM   24  O   UNL     1      39.839 -16.372   1.512  1.00  0.00    -0.269 OA
HETATM   25  H   UNL     1      42.264 -14.380   0.918  1.00  0.00     0.190 HD
BRANCH  23  26
HETATM   26  C   UNL     1      41.500 -15.704   3.168  1.00  0.00     0.214 C 
BRANCH  26  27
HETATM   27  N   UNL     1      41.848 -14.327   3.486  1.00  0.00    -0.319 N 
HETATM   28  C   UNL     1      41.323 -13.620   4.521  1.00  0.00     0.362 C 
HETATM   29  O   UNL     1      40.571 -14.098   5.360  1.00  0.00    -0.238 OA
HETATM   30  H   UNL     1      42.371 -13.781   2.812  1.00  0.00     0.166 HD
BRANCH  28  31
HETATM   31  O   UNL     1      41.776 -12.354   4.464  1.00  0.00    -0.294 OA
BRANCH  31  32
HETATM   32  C   UNL     1      40.868 -11.225   4.344  1.00  0.00     0.061 C 
HETATM   33  C   UNL     1      40.349 -10.784   5.717  1.00  0.00     0.046 C 
HETATM   34  C   UNL     1      41.723 -10.092   3.755  1.00  0.00     0.046 C 
HETATM   35  C   UNL     1      39.726 -11.539   3.374  1.00  0.00     0.046 C 
ENDBRANCH  31  32
ENDBRANCH  28  31
ENDBRANCH  26  27
BRANCH  26  36
HETATM   36  C   UNL     1      42.567 -16.727   3.495  1.00  0.00    -0.026 A 
HETATM   37  C   UNL     1      42.850 -17.728   2.546  1.00  0.00     0.010 A 
HETATM   38  C   UNL     1      43.804 -18.712   2.806  1.00  0.00     0.001 A 
HETATM   39  C   UNL     1      44.495 -18.710   4.014  1.00  0.00     0.000 A 
HETATM   40  C   UNL     1      44.237 -17.722   4.959  1.00  0.00     0.001 A 
HETATM   41  C   UNL     1      43.283 -16.734   4.702  1.00  0.00     0.010 A 
ENDBRANCH  26  36
ENDBRANCH  23  26
ENDBRANCH  19  22
BRANCH   1  42
HETATM   42  C   UNL     1      37.299 -11.477  -2.166  1.00  0.00     0.035 C 
HETATM   43  C   UNL     1      36.791 -12.637  -3.005  1.00  0.00     0.010 C 
ENDBRANCH   1  42
TORSDOF 7
ENDMDL
MODEL 5
REMARK VINA RESULT:      -8.7      2.574      7.612
REMARK  7 active torsions:
REMARK  status: ('A' for Active; 'I' for Inactive)
REMARK    1  A    between atoms: C_2  and  C_3 
REMARK    2  A    between atoms: N_21  and  N_23 
REMARK       I    between atoms: N_23  and  C_24 
REMARK    3  A    between atoms: C_24  and  C_25 
REMARK    4  A    between atoms: C_25  and  N_26 
REMARK    5  A    between atoms: C_25  and  C_34 
REMARK       I    between atoms: N_26  and  C_27 
REMARK    6  A    between atoms: C_27  and  O_28 
REMARK    7  A    between atoms: O_28  and  C_29 
ROOT
HETATM    1  C   UNL     1      38.404 -11.957  -0.789  1.00  0.00    -0.041 C 
HETATM    2  C   UNL     1      38.666 -11.161   0.419  1.00  0.00     0.005 C 
HETATM    3  C   UNL     1      39.918 -11.280   1.027  1.00  0.00     0.091 C 
HETATM    4  C   UNL     1      40.422 -10.261   1.833  1.00  0.00     0.075 C 
HETATM    5  C   UNL     1      39.607  -9.161   2.097  1.00  0.00     0.079 C 
HETATM    6  C   UNL     1      38.248  -9.194   1.776  1.00  0.00    -0.024 C 
HETATM    7  C   UNL     1      37.309  -8.126   2.270  1.00  0.00     0.044 C 
HETATM    8  C   UNL     1      38.056  -7.043   3.043  1.00  0.00     0.043 C 
HETATM    9  C   UNL     1      39.446  -6.812   2.423  1.00  0.00     0.068 C 
HETATM   10  C   UNL     1      39.343  -6.382   0.930  1.00  0.00     0.038 C 
HETATM   11  C   UNL     1      40.692  -6.031   0.315  1.00  0.00     0.003 C 
HETATM   12  C   UNL     1      41.376  -4.927   1.106  1.00  0.00     0.000 C 
HETATM   13  C   UNL     1      41.523  -5.315   2.573  1.00  0.00     0.003 C 
HETATM   14  C   UNL     1      40.182  -5.702   3.206  1.00  0.00     0.038 C 
HETATM   15  O   UNL     1      40.212  -8.036   2.598  1.00  0.00    -0.340 OA
HETATM   16  C   UNL     1      37.792 -10.179   0.893  1.00  0.00     0.024 C 
HETATM   17  O   UNL     1      40.719 -12.426   0.824  1.00  0.00    -0.292 OA
HETATM   18  C   UNL     1      40.323 -13.306  -0.153  1.00  0.00     0.163 C 
HETATM   19  N   UNL     1      40.980 -14.403  -0.230  1.00  0.00    -0.277 N 
HETATM   20  H   UNL     1      40.801 -15.017  -1.037  1.00  0.00     0.189 HD
HETATM   21  C   UNL     1      39.244 -12.961  -1.078  1.00  0.00     0.065 C 
ENDROOT
BRANCH  19  22
HETATM   22  N   UNL     1      41.805 -14.944   0.773  1.00  0.00    -0.266 N 
HETATM   23  C   UNL     1      41.110 -15.695   1.710  1.00  0.00     0.263 C 
HETATM   24  O   UNL     1      39.987 -16.125   1.416  1.00  0.00    -0.269 OA
HETATM   25  H   UNL     1      42.679 -14.463   0.979  1.00  0.00     0.190 HD
BRANCH  23  26
HETATM   26  C   UNL     1      41.656 -15.742   3.152  1.00  0.00     0.214 C 
BRANCH  26  27
HETATM   27  N   UNL     1      42.088 -14.414   3.565  1.00  0.00    -0.319 N 
HETATM   28  C   UNL     1      41.409 -13.620   4.434  1.00  0.00     0.362 C 
HETATM   29  O   UNL     1      40.409 -13.976   5.042  1.00  0.00    -0.238 OA
HETATM   30  H   UNL     1      42.836 -13.958   3.058  1.00  0.00     0.166 HD
BRANCH  28  31
HETATM   31  O   UNL     1      42.025 -12.426   4.511  1.00  0.00    -0.294 OA
BRANCH  31  32
HETATM   32  C   UNL     1      42.870 -12.076   5.641  1.00  0.00     0.061 C 
HETATM   33  C   UNL     1      43.225 -13.315   6.471  1.00  0.00     0.046 C 
HETATM   34  C   UNL     1      44.157 -11.519   5.014  1.00  0.00     0.046 C 
HETATM   35  C   UNL     1      42.221 -10.982   6.494  1.00  0.00     0.046 C 
ENDBRANCH  31  32
ENDBRANCH  28  31
ENDBRANCH  26  27
BRANCH  26  36
HETATM   36  C   UNL     1      42.636 -16.856   3.451  1.00  0.00    -0.026 A 
HETATM   37  C   UNL     1      43.390 -16.785   4.638  1.00  0.00     0.010 A 
HETATM   38  C   UNL     1      44.328 -17.770   4.951  1.00  0.00     0.001 A 
HETATM   39  C   UNL     1      44.523 -18.844   4.088  1.00  0.00     0.000 A 
HETATM   40  C   UNL     1      43.779 -18.937   2.917  1.00  0.00     0.001 A 
HETATM   41  C   UNL     1      42.839 -17.953   2.600  1.00  0.00     0.010 A 
ENDBRANCH  26  36
ENDBRANCH  23  26
ENDBRANCH  19  22
BRANCH   1  42
HETATM   42  C   UNL     1      37.359 -11.504  -1.784  1.00  0.00     0.035 C 
HETATM   43  C   UNL     1      36.947 -12.589  -2.765  1.00  0.00     0.010 C 
ENDBRANCH   1  42
TORSDOF 7
ENDMDL
MODEL 6
REMARK VINA RESULT:      -8.6      3.334      6.797
REMARK  7 active torsions:
REMARK  status: ('A' for Active; 'I' for Inactive)
REMARK    1  A    between atoms: C_2  and  C_3 
REMARK    2  A    between atoms: N_21  and  N_23 
REMARK       I    between atoms: N_23  and  C_24 
REMARK    3  A    between atoms: C_24  and  C_25 
REMARK    4  A    between atoms: C_25  and  N_26 
REMARK    5  A    between atoms: C_25  and  C_34 
REMARK       I    between atoms: N_26  and  C_27 
REMARK    6  A    between atoms: C_27  and  O_28 
REMARK    7  A    between atoms: O_28  and  C_29 
ROOT
HETATM    1  C   UNL     1      39.411  -7.282   6.814  1.00  0.00    -0.041 C 
HETATM    2  C   UNL     1      39.184  -7.814   8.166  1.00  0.00     0.005 C 
HETATM    3  C   UNL     1      39.640  -9.104   8.450  1.00  0.00     0.091 C 
HETATM    4  C   UNL     1      39.912  -9.494   9.761  1.00  0.00     0.075 C 
HETATM    5  C   UNL     1      39.627  -8.600  10.790  1.00  0.00     0.079 C 
HETATM    6  C   UNL     1      38.864  -7.457  10.544  1.00  0.00    -0.024 C 
HETATM    7  C   UNL     1      38.341  -6.614  11.677  1.00  0.00     0.044 C 
HETATM    8  C   UNL     1      38.828  -7.134  13.027  1.00  0.00     0.043 C 
HETATM    9  C   UNL     1      40.255  -7.694  12.896  1.00  0.00     0.068 C 
HETATM   10  C   UNL     1      41.252  -6.610  12.389  1.00  0.00     0.038 C 
HETATM   11  C   UNL     1      42.697  -7.093  12.359  1.00  0.00     0.003 C 
HETATM   12  C   UNL     1      43.136  -7.569  13.734  1.00  0.00     0.000 C 
HETATM   13  C   UNL     1      42.203  -8.654  14.262  1.00  0.00     0.003 C 
HETATM   14  C   UNL     1      40.738  -8.201  14.273  1.00  0.00     0.038 C 
HETATM   15  O   UNL     1      40.194  -8.849  12.015  1.00  0.00    -0.340 OA
HETATM   16  C   UNL     1      38.685  -7.043   9.219  1.00  0.00     0.024 C 
HETATM   17  O   UNL     1      39.861 -10.041   7.416  1.00  0.00    -0.292 OA
HETATM   18  C   UNL     1      39.822  -9.576   6.125  1.00  0.00     0.163 C 
HETATM   19  N   UNL     1      39.887 -10.460   5.201  1.00  0.00    -0.277 N 
HETATM   20  H   UNL     1      40.002 -10.135   4.230  1.00  0.00     0.189 HD
HETATM   21  C   UNL     1      39.766  -8.141   5.849  1.00  0.00     0.065 C 
ENDROOT
BRANCH  19  22
HETATM   22  N   UNL     1      39.641 -11.837   5.354  1.00  0.00    -0.266 N 
HETATM   23  C   UNL     1      40.782 -12.616   5.228  1.00  0.00     0.263 C 
HETATM   24  O   UNL     1      41.889 -12.080   5.368  1.00  0.00    -0.269 OA
HETATM   25  H   UNL     1      38.705 -12.178   5.142  1.00  0.00     0.190 HD
BRANCH  23  26
HETATM   26  C   UNL     1      40.626 -14.045   4.670  1.00  0.00     0.214 C 
BRANCH  26  27
HETATM   27  N   UNL     1      41.548 -14.947   5.346  1.00  0.00    -0.319 N 
HETATM   28  C   UNL     1      41.189 -16.126   5.919  1.00  0.00     0.362 C 
HETATM   29  O   UNL     1      40.066 -16.606   5.842  1.00  0.00    -0.238 OA
HETATM   30  H   UNL     1      42.479 -14.622   5.575  1.00  0.00     0.166 HD
BRANCH  28  31
HETATM   31  O   UNL     1      42.257 -16.653   6.546  1.00  0.00    -0.294 OA
BRANCH  31  32
HETATM   32  C   UNL     1      43.299 -17.355   5.816  1.00  0.00     0.061 C 
HETATM   33  C   UNL     1      43.073 -17.263   4.302  1.00  0.00     0.046 C 
HETATM   34  C   UNL     1      44.597 -16.610   6.165  1.00  0.00     0.046 C 
HETATM   35  C   UNL     1      43.419 -18.807   6.289  1.00  0.00     0.046 C 
ENDBRANCH  31  32
ENDBRANCH  28  31
ENDBRANCH  26  27
BRANCH  26  36
HETATM   36  C   UNL     1      40.602 -14.167   3.161  1.00  0.00    -0.026 A 
HETATM   37  C   UNL     1      40.131 -15.366   2.592  1.00  0.00     0.010 A 
HETATM   38  C   UNL     1      40.113 -15.543   1.209  1.00  0.00     0.001 A 
HETATM   39  C   UNL     1      40.558 -14.526   0.370  1.00  0.00     0.000 A 
HETATM   40  C   UNL     1      41.016 -13.330   0.914  1.00  0.00     0.001 A 
HETATM   41  C   UNL     1      41.036 -13.148   2.299  1.00  0.00     0.010 A 
ENDBRANCH  26  36
ENDBRANCH  23  26
ENDBRANCH  19  22
BRANCH   1  42
HETATM   42  C   UNL     1      39.463  -5.787   6.587  1.00  0.00     0.035 C 
HETATM   43  C   UNL     1      40.829  -5.182   6.864  1.00  0.00     0.010 C 
ENDBRANCH   1  42
TORSDOF 7
ENDMDL
MODEL 7
REMARK VINA RESULT:      -8.4      2.100      9.757
REMARK  7 active torsions:
REMARK  status: ('A' for Active; 'I' for Inactive)
REMARK    1  A    between atoms: C_2  and  C_3 
REMARK    2  A    between atoms: N_21  and  N_23 
REMARK       I    between atoms: N_23  and  C_24 
REMARK    3  A    between atoms: C_24  and  C_25 
REMARK    4  A    between atoms: C_25  and  N_26 
REMARK    5  A    between atoms: C_25  and  C_34 
REMARK       I    between atoms: N_26  and  C_27 
REMARK    6  A    between atoms: C_27  and  O_28 
REMARK    7  A    between atoms: O_28  and  C_29 
ROOT
HETATM    1  C   UNL     1      38.307  -8.729   3.075  1.00  0.00    -0.041 C 
HETATM    2  C   UNL     1      39.290  -9.359   2.181  1.00  0.00     0.005 C 
HETATM    3  C   UNL     1      39.883 -10.556   2.594  1.00  0.00     0.091 C 
HETATM    4  C   UNL     1      40.417 -11.447   1.665  1.00  0.00     0.075 C 
HETATM    5  C   UNL     1      40.433 -11.074   0.322  1.00  0.00     0.079 C 
HETATM    6  C   UNL     1      40.158  -9.756  -0.049  1.00  0.00    -0.024 C 
HETATM    7  C   UNL     1      40.408  -9.279  -1.456  1.00  0.00     0.044 C 
HETATM    8  C   UNL     1      40.889 -10.417  -2.351  1.00  0.00     0.043 C 
HETATM    9  C   UNL     1      40.204 -11.735  -1.949  1.00  0.00     0.068 C 
HETATM   10  C   UNL     1      38.654 -11.632  -2.061  1.00  0.00     0.038 C 
HETATM   11  C   UNL     1      37.945 -12.952  -1.784  1.00  0.00     0.003 C 
HETATM   12  C   UNL     1      38.441 -14.039  -2.725  1.00  0.00     0.000 C 
HETATM   13  C   UNL     1      39.955 -14.195  -2.631  1.00  0.00     0.003 C 
HETATM   14  C   UNL     1      40.689 -12.872  -2.875  1.00  0.00     0.038 C 
HETATM   15  O   UNL     1      40.644 -12.065  -0.604  1.00  0.00    -0.340 OA
HETATM   16  C   UNL     1      39.539  -8.913   0.880  1.00  0.00     0.024 C 
HETATM   17  O   UNL     1      39.936 -10.906   3.961  1.00  0.00    -0.292 OA
HETATM   18  C   UNL     1      39.201 -10.145   4.836  1.00  0.00     0.163 C 
HETATM   19  N   UNL     1      39.369 -10.390   6.082  1.00  0.00    -0.277 N 
HETATM   20  H   UNL     1      38.732  -9.937   6.753  1.00  0.00     0.189 HD
HETATM   21  C   UNL     1      38.244  -9.155   4.344  1.00  0.00     0.065 C 
ENDROOT
BRANCH  19  22
HETATM   22  N   UNL     1      40.453 -11.084   6.649  1.00  0.00    -0.266 N 
HETATM   23  C   UNL     1      41.481 -10.252   7.067  1.00  0.00     0.263 C 
HETATM   24  O   UNL     1      41.238  -9.053   7.258  1.00  0.00    -0.269 OA
HETATM   25  H   UNL     1      40.598 -12.051   6.363  1.00  0.00     0.190 HD
BRANCH  23  26
HETATM   26  C   UNL     1      42.921 -10.801   7.028  1.00  0.00     0.214 C 
BRANCH  26  27
HETATM   27  N   UNL     1      42.901 -12.242   6.824  1.00  0.00    -0.319 N 
HETATM   28  C   UNL     1      43.231 -12.859   5.659  1.00  0.00     0.362 C 
HETATM   29  O   UNL     1      43.678 -12.273   4.682  1.00  0.00    -0.238 OA
HETATM   30  H   UNL     1      42.448 -12.832   7.512  1.00  0.00     0.166 HD
BRANCH  28  31
HETATM   31  O   UNL     1      42.999 -14.179   5.780  1.00  0.00    -0.294 OA
BRANCH  31  32
HETATM   32  C   UNL     1      42.166 -14.896   4.829  1.00  0.00     0.061 C 
HETATM   33  C   UNL     1      42.944 -15.230   3.551  1.00  0.00     0.046 C 
HETATM   34  C   UNL     1      41.798 -16.209   5.537  1.00  0.00     0.046 C 
HETATM   35  C   UNL     1      40.881 -14.119   4.529  1.00  0.00     0.046 C 
ENDBRANCH  31  32
ENDBRANCH  28  31
ENDBRANCH  26  27
BRANCH  26  36
HETATM   36  C   UNL     1      43.840 -10.324   8.133  1.00  0.00    -0.026 A 
HETATM   37  C   UNL     1      45.081  -9.760   7.778  1.00  0.00     0.010 A 
HETATM   38  C   UNL     1      45.978  -9.329   8.755  1.00  0.00     0.001 A 
HETATM   39  C   UNL     1      45.651  -9.449  10.102  1.00  0.00     0.000 A 
HETATM   40  C   UNL     1      44.425  -9.993  10.472  1.00  0.00     0.001 A 
HETATM   41  C   UNL     1      43.523 -10.425   9.497  1.00  0.00     0.010 A 
ENDBRANCH  26  36
ENDBRANCH  23  26
ENDBRANCH  19  22
BRANCH   1  42
HETATM   42  C   UNL     1      37.256  -7.799   2.510  1.00  0.00     0.035 C 
HETATM   43  C   UNL     1      37.560  -6.329   2.747  1.00  0.00     0.010 C 
ENDBRANCH   1  42
TORSDOF 7
ENDMDL
MODEL 8
REMARK VINA RESULT:      -8.2      2.720      5.953
REMARK  7 active torsions:
REMARK  status: ('A' for Active; 'I' for Inactive)
REMARK    1  A    between atoms: C_2  and  C_3 
REMARK    2  A    between atoms: N_21  and  N_23 
REMARK       I    between atoms: N_23  and  C_24 
REMARK    3  A    between atoms: C_24  and  C_25 
REMARK    4  A    between atoms: C_25  and  N_26 
REMARK    5  A    between atoms: C_25  and  C_34 
REMARK       I    between atoms: N_26  and  C_27 
REMARK    6  A    between atoms: C_27  and  O_28 
REMARK    7  A    between atoms: O_28  and  C_29 
ROOT
HETATM    1  C   UNL     1      40.343  -7.011   5.084  1.00  0.00    -0.041 C 
HETATM    2  C   UNL     1      40.028  -7.822   6.271  1.00  0.00     0.005 C 
HETATM    3  C   UNL     1      40.526  -9.127   6.327  1.00  0.00     0.091 C 
HETATM    4  C   UNL     1      40.703  -9.772   7.549  1.00  0.00     0.075 C 
HETATM    5  C   UNL     1      40.283  -9.123   8.708  1.00  0.00     0.079 C 
HETATM    6  C   UNL     1      39.485  -7.980   8.629  1.00  0.00    -0.024 C 
HETATM    7  C   UNL     1      38.822  -7.410   9.856  1.00  0.00     0.044 C 
HETATM    8  C   UNL     1      39.217  -8.184  11.111  1.00  0.00     0.043 C 
HETATM    9  C   UNL     1      40.678  -8.656  11.005  1.00  0.00     0.068 C 
HETATM   10  C   UNL     1      41.656  -7.458  10.829  1.00  0.00     0.038 C 
HETATM   11  C   UNL     1      43.122  -7.875  10.839  1.00  0.00     0.003 C 
HETATM   12  C   UNL     1      43.464  -8.613  12.123  1.00  0.00     0.000 C 
HETATM   13  C   UNL     1      42.547  -9.814  12.326  1.00  0.00     0.003 C 
HETATM   14  C   UNL     1      41.066  -9.424  12.289  1.00  0.00     0.038 C 
HETATM   15  O   UNL     1      40.754  -9.603   9.905  1.00  0.00    -0.340 OA
HETATM   16  C   UNL     1      39.400  -7.305   7.407  1.00  0.00     0.024 C 
HETATM   17  O   UNL     1      40.884  -9.819   5.149  1.00  0.00    -0.292 OA
HETATM   18  C   UNL     1      40.933  -9.096   3.983  1.00  0.00     0.163 C 
HETATM   19  N   UNL     1      41.124  -9.764   2.907  1.00  0.00    -0.277 N 
HETATM   20  H   UNL     1      41.306  -9.240   2.039  1.00  0.00     0.189 HD
HETATM   21  C   UNL     1      40.826  -7.638   4.002  1.00  0.00     0.065 C 
ENDROOT
BRANCH  19  22
HETATM   22  N   UNL     1      40.939 -11.150   2.751  1.00  0.00    -0.266 N 
HETATM   23  C   UNL     1      42.109 -11.830   2.446  1.00  0.00     0.263 C 
HETATM   24  O   UNL     1      43.195 -11.290   2.695  1.00  0.00    -0.269 OA
HETATM   25  H   UNL     1      40.015 -11.477   2.474  1.00  0.00     0.190 HD
BRANCH  23  26
HETATM   26  C   UNL     1      42.005 -13.105   1.585  1.00  0.00     0.214 C 
BRANCH  26  27
HETATM   27  N   UNL     1      40.778 -13.079   0.801  1.00  0.00    -0.319 N 
HETATM   28  C   UNL     1      40.620 -12.385  -0.357  1.00  0.00     0.362 C 
HETATM   29  O   UNL     1      41.526 -11.784  -0.919  1.00  0.00    -0.238 OA
HETATM   30  H   UNL     1      39.924 -13.441   1.207  1.00  0.00     0.166 HD
BRANCH  28  31
HETATM   31  O   UNL     1      39.341 -12.489  -0.760  1.00  0.00    -0.294 OA
BRANCH  31  32
HETATM   32  C   UNL     1      39.000 -12.901  -2.112  1.00  0.00     0.061 C 
HETATM   33  C   UNL     1      37.534 -13.340  -2.204  1.00  0.00     0.046 C 
HETATM   34  C   UNL     1      39.190 -11.640  -2.969  1.00  0.00     0.046 C 
HETATM   35  C   UNL     1      39.955 -13.989  -2.612  1.00  0.00     0.046 C 
ENDBRANCH  31  32
ENDBRANCH  28  31
ENDBRANCH  26  27
BRANCH  26  36
HETATM   36  C   UNL     1      42.279 -14.410   2.302  1.00  0.00    -0.026 A 
HETATM   37  C   UNL     1      42.928 -15.441   1.595  1.00  0.00     0.010 A 
HETATM   38  C   UNL     1      43.181 -16.674   2.196  1.00  0.00     0.001 A 
HETATM   39  C   UNL     1      42.795 -16.897   3.515  1.00  0.00     0.000 A 
HETATM   40  C   UNL     1      42.163 -15.887   4.233  1.00  0.00     0.001 A 
HETATM   41  C   UNL     1      41.908 -14.650   3.634  1.00  0.00     0.010 A 
ENDBRANCH  26  36
ENDBRANCH  23  26
ENDBRANCH  19  22
BRANCH   1  42
HETATM   42  C   UNL     1      40.337  -5.501   5.174  1.00  0.00     0.035 C 
HETATM   43  C   UNL     1      41.658  -4.918   5.645  1.00  0.00     0.010 C 
ENDBRANCH   1  42
TORSDOF 7
ENDMDL
MODEL 9
REMARK VINA RESULT:      -8.2      2.778      5.694
REMARK  7 active torsions:
REMARK  status: ('A' for Active; 'I' for Inactive)
REMARK    1  A    between atoms: C_2  and  C_3 
REMARK    2  A    between atoms: N_21  and  N_23 
REMARK       I    between atoms: N_23  and  C_24 
REMARK    3  A    between atoms: C_24  and  C_25 
REMARK    4  A    between atoms: C_25  and  N_26 
REMARK    5  A    between atoms: C_25  and  C_34 
REMARK       I    between atoms: N_26  and  C_27 
REMARK    6  A    between atoms: C_27  and  O_28 
REMARK    7  A    between atoms: O_28  and  C_29 
ROOT
HETATM    1  C   UNL     1      44.562  -9.540   8.266  1.00  0.00    -0.041 C 
HETATM    2  C   UNL     1      43.441  -8.590   8.294  1.00  0.00     0.005 C 
HETATM    3  C   UNL     1      42.189  -9.036   7.862  1.00  0.00     0.091 C 
HETATM    4  C   UNL     1      41.020  -8.411   8.292  1.00  0.00     0.075 C 
HETATM    5  C   UNL     1      41.131  -7.272   9.087  1.00  0.00     0.079 C 
HETATM    6  C   UNL     1      42.363  -6.632   9.237  1.00  0.00    -0.024 C 
HETATM    7  C   UNL     1      42.458  -5.275   9.883  1.00  0.00     0.044 C 
HETATM    8  C   UNL     1      41.097  -4.801  10.384  1.00  0.00     0.043 C 
HETATM    9  C   UNL     1      40.277  -5.996  10.901  1.00  0.00     0.068 C 
HETATM   10  C   UNL     1      41.008  -6.734  12.062  1.00  0.00     0.038 C 
HETATM   11  C   UNL     1      40.176  -7.851  12.680  1.00  0.00     0.003 C 
HETATM   12  C   UNL     1      38.847  -7.316  13.188  1.00  0.00     0.000 C 
HETATM   13  C   UNL     1      38.080  -6.607  12.077  1.00  0.00     0.003 C 
HETATM   14  C   UNL     1      38.909  -5.498  11.419  1.00  0.00     0.038 C 
HETATM   15  O   UNL     1      40.010  -6.868   9.769  1.00  0.00    -0.340 OA
HETATM   16  C   UNL     1      43.525  -7.323   8.877  1.00  0.00     0.024 C 
HETATM   17  O   UNL     1      42.072 -10.146   6.996  1.00  0.00    -0.292 OA
HETATM   18  C   UNL     1      43.202 -10.894   6.775  1.00  0.00     0.163 C 
HETATM   19  N   UNL     1      43.111 -11.810   5.884  1.00  0.00    -0.277 N 
HETATM   20  H   UNL     1      43.893 -12.476   5.795  1.00  0.00     0.189 HD
HETATM   21  C   UNL     1      44.412 -10.673   7.565  1.00  0.00     0.065 C 
ENDROOT
BRANCH  19  22
HETATM   22  N   UNL     1      42.123 -11.898   4.887  1.00  0.00    -0.266 N 
HETATM   23  C   UNL     1      41.190 -12.897   5.125  1.00  0.00     0.263 C 
HETATM   24  O   UNL     1      41.068 -13.338   6.276  1.00  0.00    -0.269 OA
HETATM   25  H   UNL     1      42.361 -11.567   3.953  1.00  0.00     0.190 HD
BRANCH  23  26
HETATM   26  C   UNL     1      40.535 -13.583   3.910  1.00  0.00     0.214 C 
BRANCH  26  27
HETATM   27  N   UNL     1      41.132 -14.893   3.694  1.00  0.00    -0.319 N 
HETATM   28  C   UNL     1      40.603 -15.858   2.896  1.00  0.00     0.362 C 
HETATM   29  O   UNL     1      39.615 -15.693   2.193  1.00  0.00    -0.238 OA
HETATM   30  H   UNL     1      41.886 -15.198   4.297  1.00  0.00     0.166 HD
BRANCH  28  31
HETATM   31  O   UNL     1      41.344 -16.976   3.008  1.00  0.00    -0.294 OA
BRANCH  31  32
HETATM   32  C   UNL     1      42.763 -16.982   2.695  1.00  0.00     0.061 C 
HETATM   33  C   UNL     1      43.605 -16.660   3.935  1.00  0.00     0.046 C 
HETATM   34  C   UNL     1      43.065 -18.424   2.258  1.00  0.00     0.046 C 
HETATM   35  C   UNL     1      43.074 -16.037   1.531  1.00  0.00     0.046 C 
ENDBRANCH  31  32
ENDBRANCH  28  31
ENDBRANCH  26  27
BRANCH  26  36
HETATM   36  C   UNL     1      40.394 -12.731   2.666  1.00  0.00    -0.026 A 
HETATM   37  C   UNL     1      39.181 -12.049   2.453  1.00  0.00     0.010 A 
HETATM   38  C   UNL     1      38.987 -11.272   1.310  1.00  0.00     0.001 A 
HETATM   39  C   UNL     1      40.001 -11.159   0.365  1.00  0.00     0.000 A 
HETATM   40  C   UNL     1      41.211 -11.816   0.564  1.00  0.00     0.001 A 
HETATM   41  C   UNL     1      41.410 -12.595   1.707  1.00  0.00     0.010 A 
ENDBRANCH  26  36
ENDBRANCH  23  26
ENDBRANCH  19  22
BRANCH   1  42
HETATM   42  C   UNL     1      45.747  -9.343   9.185  1.00  0.00     0.035 C 
HETATM   43  C   UNL     1      45.567  -9.985  10.550  1.00  0.00     0.010 C 
ENDBRANCH   1  42
TORSDOF 7
ENDMDL
MODEL 10
REMARK VINA RESULT:      -8.1      2.826      5.148
REMARK  7 active torsions:
REMARK  status: ('A' for Active; 'I' for Inactive)
REMARK    1  A    between atoms: C_2  and  C_3 
REMARK    2  A    between atoms: N_21  and  N_23 
REMARK       I    between atoms: N_23  and  C_24 
REMARK    3  A    between atoms: C_24  and  C_25 
REMARK    4  A    between atoms: C_25  and  N_26 
REMARK    5  A    between atoms: C_25  and  C_34 
REMARK       I    between atoms: N_26  and  C_27 
REMARK    6  A    between atoms: C_27  and  O_28 
REMARK    7  A    between atoms: O_28  and  C_29 
ROOT
HETATM    1  C   UNL     1      44.864  -9.457   8.553  1.00  0.00    -0.041 C 
HETATM    2  C   UNL     1      43.763  -8.483   8.505  1.00  0.00     0.005 C 
HETATM    3  C   UNL     1      42.583  -8.856   7.855  1.00  0.00     0.091 C 
HETATM    4  C   UNL     1      41.371  -8.242   8.167  1.00  0.00     0.075 C 
HETATM    5  C   UNL     1      41.377  -7.183   9.072  1.00  0.00     0.079 C 
HETATM    6  C   UNL     1      42.582  -6.592   9.460  1.00  0.00    -0.024 C 
HETATM    7  C   UNL     1      42.597  -5.302  10.237  1.00  0.00     0.044 C 
HETATM    8  C   UNL     1      41.183  -4.840  10.576  1.00  0.00     0.043 C 
HETATM    9  C   UNL     1      40.280  -6.055  10.853  1.00  0.00     0.068 C 
HETATM   10  C   UNL     1      40.822  -6.914  12.034  1.00  0.00     0.038 C 
HETATM   11  C   UNL     1      39.894  -8.060  12.416  1.00  0.00     0.003 C 
HETATM   12  C   UNL     1      38.511  -7.539  12.773  1.00  0.00     0.000 C 
HETATM   13  C   UNL     1      37.926  -6.712  11.633  1.00  0.00     0.003 C 
HETATM   14  C   UNL     1      38.857  -5.571  11.210  1.00  0.00     0.038 C 
HETATM   15  O   UNL     1      40.173  -6.814   9.617  1.00  0.00    -0.340 OA
HETATM   16  C   UNL     1      43.775  -7.277   9.211  1.00  0.00     0.024 C 
HETATM   17  O   UNL     1      42.582  -9.879   6.881  1.00  0.00    -0.292 OA
HETATM   18  C   UNL     1      43.722 -10.633   6.759  1.00  0.00     0.163 C 
HETATM   19  N   UNL     1      43.753 -11.462   5.782  1.00  0.00    -0.277 N 
HETATM   20  H   UNL     1      44.530 -12.137   5.747  1.00  0.00     0.189 HD
HETATM   21  C   UNL     1      44.804 -10.517   7.735  1.00  0.00     0.065 C 
ENDROOT
BRANCH  19  22
HETATM   22  N   UNL     1      42.922 -11.433   4.647  1.00  0.00    -0.266 N 
HETATM   23  C   UNL     1      42.208 -12.608   4.460  1.00  0.00     0.263 C 
HETATM   24  O   UNL     1      42.061 -13.377   5.419  1.00  0.00    -0.269 OA
HETATM   25  H   UNL     1      43.182 -10.809   3.885  1.00  0.00     0.190 HD
BRANCH  23  26
HETATM   26  C   UNL     1      41.854 -13.019   3.016  1.00  0.00     0.214 C 
BRANCH  26  27
HETATM   27  N   UNL     1      40.528 -12.531   2.669  1.00  0.00    -0.319 N 
HETATM   28  C   UNL     1      40.259 -11.266   2.250  1.00  0.00     0.362 C 
HETATM   29  O   UNL     1      41.120 -10.427   2.024  1.00  0.00    -0.238 OA
HETATM   30  H   UNL     1      39.717 -13.086   2.914  1.00  0.00     0.166 HD
BRANCH  28  31
HETATM   31  O   UNL     1      38.927 -11.120   2.121  1.00  0.00    -0.294 OA
BRANCH  31  32
HETATM   32  C   UNL     1      38.309 -10.891   0.826  1.00  0.00     0.061 C 
HETATM   33  C   UNL     1      38.865 -11.852  -0.231  1.00  0.00     0.046 C 
HETATM   34  C   UNL     1      36.819 -11.204   1.038  1.00  0.00     0.046 C 
HETATM   35  C   UNL     1      38.451  -9.427   0.399  1.00  0.00     0.046 C 
ENDBRANCH  31  32
ENDBRANCH  28  31
ENDBRANCH  26  27
BRANCH  26  36
HETATM   36  C   UNL     1      42.118 -14.467   2.658  1.00  0.00    -0.026 A 
HETATM   37  C   UNL     1      43.268 -14.774   1.906  1.00  0.00     0.010 A 
HETATM   38  C   UNL     1      43.545 -16.087   1.524  1.00  0.00     0.001 A 
HETATM   39  C   UNL     1      42.683 -17.115   1.892  1.00  0.00     0.000 A 
HETATM   40  C   UNL     1      41.548 -16.833   2.645  1.00  0.00     0.001 A 
HETATM   41  C   UNL     1      41.266 -15.519   3.030  1.00  0.00     0.010 A 
ENDBRANCH  26  36
ENDBRANCH  23  26
ENDBRANCH  19  22
BRANCH   1  42
HETATM   42  C   UNL     1      45.902  -9.374   9.650  1.00  0.00     0.035 C 
HETATM   43  C   UNL     1      45.485 -10.078  10.930  1.00  0.00     0.010 C 
ENDBRANCH   1  42
TORSDOF 7
ENDMDL
