MODEL 1
REMARK VINA RESULT:      -7.9      0.000      0.000
REMARK  6 active torsions:
REMARK  status: ('A' for Active; 'I' for Inactive)
REMARK    1  A    between atoms: C_2  and  N_3 
REMARK    2  A    between atoms: C_10  and  N_11 
REMARK       I    between atoms: N_11  and  C_12 
REMARK       I    between atoms: C_12  and  N_13 
REMARK    3  A    between atoms: N_13  and  C_14 
REMARK    4  A    between atoms: C_14  and  C_15 
REMARK    5  A    between atoms: C_15  and  C_16 
REMARK    6  A    between atoms: C_19  and  O_20 
ROOT
HETATM    1  N   UNL     1      42.933 -12.234   5.076  1.00  0.00    -0.307 N 
HETATM    2  C   UNL     1      43.514 -12.184   3.842  1.00  0.00     0.320 C 
HETATM    3  N   UNL     1      43.157 -13.183   2.982  1.00  0.00    -0.343 N 
HETATM    4  O   UNL     1      44.273 -11.323   3.412  1.00  0.00    -0.247 OA
HETATM    5  H   UNL     1      42.192 -12.898   5.200  1.00  0.00     0.170 HD
HETATM    6  H   UNL     1      43.552 -13.037   2.060  1.00  0.00     0.164 HD
ENDROOT
BRANCH   1   7
HETATM    7  C   UNL     1      43.035 -11.287   6.083  1.00  0.00     0.064 A 
HETATM    8  C   UNL     1      44.137 -10.785   6.849  1.00  0.00     0.019 A 
HETATM    9  C   UNL     1      43.630  -9.781   7.692  1.00  0.00     0.046 A 
HETATM   10  C   UNL     1      45.513 -11.085   6.950  1.00  0.00     0.016 A 
HETATM   11  N   UNL     1      42.277  -9.692   7.446  1.00  0.00    -0.354 N 
HETATM   12  C   UNL     1      44.447  -9.065   8.585  1.00  0.00     0.030 A 
HETATM   13  C   UNL     1      41.903 -10.633   6.525  1.00  0.00     0.121 A 
HETATM   14  C   UNL     1      45.806  -9.379   8.642  1.00  0.00     0.002 A 
HETATM   15  C   UNL     1      46.333 -10.380   7.838  1.00  0.00     0.001 A 
BRANCH  11  16
HETATM   16  C   UNL     1      41.366  -8.728   8.038  1.00  0.00     0.124 C 
HETATM   17  C   UNL     1      40.866  -9.163   9.402  1.00  0.00     0.027 C 
ENDBRANCH  11  16
ENDBRANCH   1   7
BRANCH   3  18
HETATM   18  C   UNL     1      42.230 -14.291   3.141  1.00  0.00     0.129 C 
BRANCH  18  19
HETATM   19  C   UNL     1      42.514 -15.500   2.239  1.00  0.00     0.058 C 
BRANCH  19  20
HETATM   20  C   UNL     1      43.070 -16.704   2.957  1.00  0.00    -0.057 A 
HETATM   21  C   UNL     1      43.154 -17.944   2.317  1.00  0.00     0.010 A 
HETATM   22  C   UNL     1      43.714 -19.041   2.978  1.00  0.00     0.037 A 
HETATM   23  C   UNL     1      44.197 -18.918   4.283  1.00  0.00     0.068 A 
HETATM   24  C   UNL     1      44.089 -17.691   4.935  1.00  0.00     0.037 A 
HETATM   25  C   UNL     1      43.532 -16.592   4.275  1.00  0.00     0.010 A 
BRANCH  23  26
HETATM   26  O   UNL     1      44.740 -20.059   4.806  1.00  0.00    -0.356 OA
HETATM   27  C   UNL     1      43.824 -21.018   5.324  1.00  0.00     0.210 C 
ENDBRANCH  23  26
ENDBRANCH  19  20
ENDBRANCH  18  19
ENDBRANCH   3  18
TORSDOF 6
ENDMDL
MODEL 2
REMARK VINA RESULT:      -7.7      2.787      9.021
REMARK  6 active torsions:
REMARK  status: ('A' for Active; 'I' for Inactive)
REMARK    1  A    between atoms: C_2  and  N_3 
REMARK    2  A    between atoms: C_10  and  N_11 
REMARK       I    between atoms: N_11  and  C_12 
REMARK       I    between atoms: C_12  and  N_13 
REMARK    3  A    between atoms: N_13  and  C_14 
REMARK    4  A    between atoms: C_14  and  C_15 
REMARK    5  A    between atoms: C_15  and  C_16 
REMARK    6  A    between atoms: C_19  and  O_20 
ROOT
HETATM    1  N   UNL     1      43.230 -14.453   5.253  1.00  0.00    -0.307 N 
HETATM    2  C   UNL     1      42.549 -14.126   6.390  1.00  0.00     0.320 C 
HETATM    3  N   UNL     1      43.122 -13.154   7.160  1.00  0.00    -0.343 N 
HETATM    4  O   UNL     1      41.469 -14.567   6.762  1.00  0.00    -0.247 OA
HETATM    5  H   UNL     1      44.001 -13.862   5.002  1.00  0.00     0.170 HD
HETATM    6  H   UNL     1      42.525 -12.897   7.937  1.00  0.00     0.164 HD
ENDROOT
BRANCH   1   7
HETATM    7  C   UNL     1      42.811 -15.314   4.250  1.00  0.00     0.064 A 
HETATM    8  C   UNL     1      43.207 -16.636   3.865  1.00  0.00     0.019 A 
HETATM    9  C   UNL     1      42.377 -17.022   2.800  1.00  0.00     0.046 A 
HETATM   10  C   UNL     1      44.202 -17.550   4.279  1.00  0.00     0.016 A 
HETATM   11  N   UNL     1      41.523 -15.969   2.552  1.00  0.00    -0.354 N 
HETATM   12  C   UNL     1      42.488 -18.277   2.175  1.00  0.00     0.030 A 
HETATM   13  C   UNL     1      41.818 -14.919   3.379  1.00  0.00     0.121 A 
HETATM   14  C   UNL     1      43.471 -19.159   2.624  1.00  0.00     0.002 A 
HETATM   15  C   UNL     1      44.322 -18.800   3.660  1.00  0.00     0.001 A 
BRANCH  11  16
HETATM   16  C   UNL     1      40.439 -15.961   1.585  1.00  0.00     0.124 C 
HETATM   17  C   UNL     1      40.551 -14.816   0.596  1.00  0.00     0.027 C 
ENDBRANCH  11  16
ENDBRANCH   1   7
BRANCH   3  18
HETATM   18  C   UNL     1      44.333 -12.374   6.966  1.00  0.00     0.129 C 
BRANCH  18  19
HETATM   19  C   UNL     1      44.122 -10.855   6.946  1.00  0.00     0.058 C 
BRANCH  19  20
HETATM   20  C   UNL     1      44.078 -10.207   8.307  1.00  0.00    -0.057 A 
HETATM   21  C   UNL     1      42.921  -9.563   8.757  1.00  0.00     0.010 A 
HETATM   22  C   UNL     1      42.878  -9.007  10.038  1.00  0.00     0.037 A 
HETATM   23  C   UNL     1      43.984  -9.085  10.889  1.00  0.00     0.068 A 
HETATM   24  C   UNL     1      45.148  -9.701  10.435  1.00  0.00     0.037 A 
HETATM   25  C   UNL     1      45.193 -10.260   9.154  1.00  0.00     0.010 A 
BRANCH  23  26
HETATM   26  O   UNL     1      43.803  -8.522  12.122  1.00  0.00    -0.356 OA
HETATM   27  C   UNL     1      42.716  -7.611  12.251  1.00  0.00     0.210 C 
ENDBRANCH  23  26
ENDBRANCH  19  20
ENDBRANCH  18  19
ENDBRANCH   3  18
TORSDOF 6
ENDMDL
MODEL 3
REMARK VINA RESULT:      -7.7      3.086      7.446
REMARK  6 active torsions:
REMARK  status: ('A' for Active; 'I' for Inactive)
REMARK    1  A    between atoms: C_2  and  N_3 
REMARK    2  A    between atoms: C_10  and  N_11 
REMARK       I    between atoms: N_11  and  C_12 
REMARK       I    between atoms: C_12  and  N_13 
REMARK    3  A    between atoms: N_13  and  C_14 
REMARK    4  A    between atoms: C_14  and  C_15 
REMARK    5  A    between atoms: C_15  and  C_16 
REMARK    6  A    between atoms: C_19  and  O_20 
ROOT
HETATM    1  N   UNL     1      41.606 -14.882   2.697  1.00  0.00    -0.307 N 
HETATM    2  C   UNL     1      40.298 -15.040   2.341  1.00  0.00     0.320 C 
HETATM    3  N   UNL     1      39.783 -14.061   1.539  1.00  0.00    -0.343 N 
HETATM    4  O   UNL     1      39.561 -15.979   2.617  1.00  0.00    -0.247 OA
HETATM    5  H   UNL     1      42.116 -14.155   2.230  1.00  0.00     0.170 HD
HETATM    6  H   UNL     1      38.841 -14.284   1.240  1.00  0.00     0.164 HD
ENDROOT
BRANCH   1   7
HETATM    7  C   UNL     1      42.392 -15.781   3.400  1.00  0.00     0.064 A 
HETATM    8  C   UNL     1      42.823 -17.122   3.135  1.00  0.00     0.019 A 
HETATM    9  C   UNL     1      43.662 -17.503   4.196  1.00  0.00     0.046 A 
HETATM   10  C   UNL     1      42.576 -18.078   2.125  1.00  0.00     0.016 A 
HETATM   11  N   UNL     1      43.723 -16.436   5.065  1.00  0.00    -0.354 N 
HETATM   12  C   UNL     1      44.271 -18.769   4.256  1.00  0.00     0.030 A 
HETATM   13  C   UNL     1      42.917 -15.422   4.624  1.00  0.00     0.121 A 
HETATM   14  C   UNL     1      44.016 -19.679   3.230  1.00  0.00     0.002 A 
HETATM   15  C   UNL     1      43.176 -19.342   2.178  1.00  0.00     0.001 A 
BRANCH  11  16
HETATM   16  C   UNL     1      44.542 -16.359   6.263  1.00  0.00     0.124 C 
HETATM   17  C   UNL     1      43.748 -16.628   7.527  1.00  0.00     0.027 C 
ENDBRANCH  11  16
ENDBRANCH   1   7
BRANCH   3  18
HETATM   18  C   UNL     1      40.400 -12.876   0.966  1.00  0.00     0.129 C 
BRANCH  18  19
HETATM   19  C   UNL     1      40.257 -11.605   1.813  1.00  0.00     0.058 C 
BRANCH  19  20
HETATM   20  C   UNL     1      41.241 -11.493   2.951  1.00  0.00    -0.057 A 
HETATM   21  C   UNL     1      40.799 -11.415   4.275  1.00  0.00     0.010 A 
HETATM   22  C   UNL     1      41.722 -11.358   5.323  1.00  0.00     0.037 A 
HETATM   23  C   UNL     1      43.096 -11.379   5.067  1.00  0.00     0.068 A 
HETATM   24  C   UNL     1      43.540 -11.428   3.748  1.00  0.00     0.037 A 
HETATM   25  C   UNL     1      42.619 -11.487   2.698  1.00  0.00     0.010 A 
BRANCH  23  26
HETATM   26  O   UNL     1      43.889 -11.341   6.181  1.00  0.00    -0.356 OA
HETATM   27  C   UNL     1      44.267 -12.597   6.733  1.00  0.00     0.210 C 
ENDBRANCH  23  26
ENDBRANCH  19  20
ENDBRANCH  18  19
ENDBRANCH   3  18
TORSDOF 6
ENDMDL
MODEL 4
REMARK VINA RESULT:      -7.7      4.988      9.089
REMARK  6 active torsions:
REMARK  status: ('A' for Active; 'I' for Inactive)
REMARK    1  A    between atoms: C_2  and  N_3 
REMARK    2  A    between atoms: C_10  and  N_11 
REMARK       I    between atoms: N_11  and  C_12 
REMARK       I    between atoms: C_12  and  N_13 
REMARK    3  A    between atoms: N_13  and  C_14 
REMARK    4  A    between atoms: C_14  and  C_15 
REMARK    5  A    between atoms: C_15  and  C_16 
REMARK    6  A    between atoms: C_19  and  O_20 
ROOT
HETATM    1  N   UNL     1      41.934 -16.047   2.334  1.00  0.00    -0.307 N 
HETATM    2  C   UNL     1      42.554 -15.076   1.602  1.00  0.00     0.320 C 
HETATM    3  N   UNL     1      41.731 -14.292   0.845  1.00  0.00    -0.343 N 
HETATM    4  O   UNL     1      43.749 -14.803   1.591  1.00  0.00    -0.247 OA
HETATM    5  H   UNL     1      40.932 -16.011   2.373  1.00  0.00     0.170 HD
HETATM    6  H   UNL     1      42.243 -13.539   0.399  1.00  0.00     0.164 HD
ENDROOT
BRANCH   1   7
HETATM    7  C   UNL     1      42.519 -16.891   3.264  1.00  0.00     0.064 A 
HETATM    8  C   UNL     1      43.038 -18.225   3.188  1.00  0.00     0.019 A 
HETATM    9  C   UNL     1      43.564 -18.536   4.453  1.00  0.00     0.046 A 
HETATM   10  C   UNL     1      43.098 -19.226   2.193  1.00  0.00     0.016 A 
HETATM   11  N   UNL     1      43.360 -17.435   5.256  1.00  0.00    -0.354 N 
HETATM   12  C   UNL     1      44.163 -19.777   4.734  1.00  0.00     0.030 A 
HETATM   13  C   UNL     1      42.681 -16.467   4.567  1.00  0.00     0.121 A 
HETATM   14  C   UNL     1      44.219 -20.734   3.720  1.00  0.00     0.002 A 
HETATM   15  C   UNL     1      43.689 -20.466   2.465  1.00  0.00     0.001 A 
BRANCH  11  16
HETATM   16  C   UNL     1      43.820 -17.285   6.627  1.00  0.00     0.124 C 
HETATM   17  C   UNL     1      42.995 -16.280   7.408  1.00  0.00     0.027 C 
ENDBRANCH  11  16
ENDBRANCH   1   7
BRANCH   3  18
HETATM   18  C   UNL     1      40.285 -14.290   0.699  1.00  0.00     0.129 C 
BRANCH  18  19
HETATM   19  C   UNL     1      39.782 -14.594  -0.718  1.00  0.00     0.058 C 
BRANCH  19  20
HETATM   20  C   UNL     1      39.523 -13.376  -1.569  1.00  0.00    -0.057 A 
HETATM   21  C   UNL     1      38.257 -12.784  -1.607  1.00  0.00     0.010 A 
HETATM   22  C   UNL     1      38.042 -11.629  -2.364  1.00  0.00     0.037 A 
HETATM   23  C   UNL     1      39.083 -11.048  -3.092  1.00  0.00     0.068 A 
HETATM   24  C   UNL     1      40.340 -11.650  -3.080  1.00  0.00     0.037 A 
HETATM   25  C   UNL     1      40.558 -12.805  -2.322  1.00  0.00     0.010 A 
BRANCH  23  26
HETATM   26  O   UNL     1      38.746  -9.909  -3.770  1.00  0.00    -0.356 OA
HETATM   27  C   UNL     1      37.358  -9.599  -3.839  1.00  0.00     0.210 C 
ENDBRANCH  23  26
ENDBRANCH  19  20
ENDBRANCH  18  19
ENDBRANCH   3  18
TORSDOF 6
ENDMDL
MODEL 5
REMARK VINA RESULT:      -7.6      4.132      7.314
REMARK  6 active torsions:
REMARK  status: ('A' for Active; 'I' for Inactive)
REMARK    1  A    between atoms: C_2  and  N_3 
REMARK    2  A    between atoms: C_10  and  N_11 
REMARK       I    between atoms: N_11  and  C_12 
REMARK       I    between atoms: C_12  and  N_13 
REMARK    3  A    between atoms: N_13  and  C_14 
REMARK    4  A    between atoms: C_14  and  C_15 
REMARK    5  A    between atoms: C_15  and  C_16 
REMARK    6  A    between atoms: C_19  and  O_20 
ROOT
HETATM    1  N   UNL     1      41.949 -12.691   2.904  1.00  0.00    -0.307 N 
HETATM    2  C   UNL     1      42.760 -11.597   2.993  1.00  0.00     0.320 C 
HETATM    3  N   UNL     1      42.350 -10.500   2.289  1.00  0.00    -0.343 N 
HETATM    4  O   UNL     1      43.777 -11.478   3.667  1.00  0.00    -0.247 OA
HETATM    5  H   UNL     1      41.058 -12.558   2.462  1.00  0.00     0.170 HD
HETATM    6  H   UNL     1      42.946  -9.701   2.469  1.00  0.00     0.164 HD
ENDROOT
BRANCH   1   7
HETATM    7  C   UNL     1      42.074 -13.880   3.606  1.00  0.00     0.064 A 
HETATM    8  C   UNL     1      42.572 -15.177   3.256  1.00  0.00     0.019 A 
HETATM    9  C   UNL     1      42.500 -15.973   4.412  1.00  0.00     0.046 A 
HETATM   10  C   UNL     1      43.054 -15.786   2.076  1.00  0.00     0.016 A 
HETATM   11  N   UNL     1      41.972 -15.185   5.411  1.00  0.00    -0.354 N 
HETATM   12  C   UNL     1      42.917 -17.315   4.428  1.00  0.00     0.030 A 
HETATM   13  C   UNL     1      41.659 -13.946   4.920  1.00  0.00     0.121 A 
HETATM   14  C   UNL     1      43.403 -17.876   3.246  1.00  0.00     0.002 A 
HETATM   15  C   UNL     1      43.468 -17.123   2.082  1.00  0.00     0.001 A 
BRANCH  11  16
HETATM   16  C   UNL     1      41.796 -15.576   6.800  1.00  0.00     0.124 C 
HETATM   17  C   UNL     1      43.044 -15.347   7.630  1.00  0.00     0.027 C 
ENDBRANCH  11  16
ENDBRANCH   1   7
BRANCH   3  18
HETATM   18  C   UNL     1      41.168 -10.280   1.473  1.00  0.00     0.129 C 
BRANCH  18  19
HETATM   19  C   UNL     1      41.444 -10.138  -0.030  1.00  0.00     0.058 C 
BRANCH  19  20
HETATM   20  C   UNL     1      41.018 -11.320  -0.863  1.00  0.00    -0.057 A 
HETATM   21  C   UNL     1      40.325 -12.390  -0.287  1.00  0.00     0.010 A 
HETATM   22  C   UNL     1      39.896 -13.459  -1.079  1.00  0.00     0.037 A 
HETATM   23  C   UNL     1      40.149 -13.477  -2.453  1.00  0.00     0.068 A 
HETATM   24  C   UNL     1      40.863 -12.426  -3.026  1.00  0.00     0.037 A 
HETATM   25  C   UNL     1      41.292 -11.355  -2.237  1.00  0.00     0.010 A 
BRANCH  23  26
HETATM   26  O   UNL     1      39.656 -14.567  -3.115  1.00  0.00    -0.356 OA
HETATM   27  C   UNL     1      38.264 -14.553  -3.413  1.00  0.00     0.210 C 
ENDBRANCH  23  26
ENDBRANCH  19  20
ENDBRANCH  18  19
ENDBRANCH   3  18
TORSDOF 6
ENDMDL
MODEL 6
REMARK VINA RESULT:      -7.5      3.037      7.440
REMARK  6 active torsions:
REMARK  status: ('A' for Active; 'I' for Inactive)
REMARK    1  A    between atoms: C_2  and  N_3 
REMARK    2  A    between atoms: C_10  and  N_11 
REMARK       I    between atoms: N_11  and  C_12 
REMARK       I    between atoms: C_12  and  N_13 
REMARK    3  A    between atoms: N_13  and  C_14 
REMARK    4  A    between atoms: C_14  and  C_15 
REMARK    5  A    between atoms: C_15  and  C_16 
REMARK    6  A    between atoms: C_19  and  O_20 
ROOT
HETATM    1  N   UNL     1      41.984 -15.082   2.532  1.00  0.00    -0.307 N 
HETATM    2  C   UNL     1      40.744 -15.049   1.962  1.00  0.00     0.320 C 
HETATM    3  N   UNL     1      40.462 -13.932   1.229  1.00  0.00    -0.343 N 
HETATM    4  O   UNL     1      39.888 -15.925   1.994  1.00  0.00    -0.247 OA
HETATM    5  H   UNL     1      42.630 -14.368   2.250  1.00  0.00     0.170 HD
HETATM    6  H   UNL     1      39.566 -14.011   0.762  1.00  0.00     0.164 HD
ENDROOT
BRANCH   1   7
HETATM    7  C   UNL     1      42.556 -16.140   3.220  1.00  0.00     0.064 A 
HETATM    8  C   UNL     1      42.757 -16.410   4.613  1.00  0.00     0.019 A 
HETATM    9  C   UNL     1      43.344 -17.683   4.707  1.00  0.00     0.046 A 
HETATM   10  C   UNL     1      42.535 -15.705   5.818  1.00  0.00     0.016 A 
HETATM   11  N   UNL     1      43.495 -18.153   3.421  1.00  0.00    -0.354 N 
HETATM   12  C   UNL     1      43.676 -18.269   5.942  1.00  0.00     0.030 A 
HETATM   13  C   UNL     1      43.080 -17.208   2.522  1.00  0.00     0.121 A 
HETATM   14  C   UNL     1      43.424 -17.549   7.110  1.00  0.00     0.002 A 
HETATM   15  C   UNL     1      42.865 -16.280   7.051  1.00  0.00     0.001 A 
BRANCH  11  16
HETATM   16  C   UNL     1      43.989 -19.467   3.047  1.00  0.00     0.124 C 
HETATM   17  C   UNL     1      43.195 -20.084   1.912  1.00  0.00     0.027 C 
ENDBRANCH  11  16
ENDBRANCH   1   7
BRANCH   3  18
HETATM   18  C   UNL     1      41.272 -12.765   0.920  1.00  0.00     0.129 C 
BRANCH  18  19
HETATM   19  C   UNL     1      41.098 -11.588   1.889  1.00  0.00     0.058 C 
BRANCH  19  20
HETATM   20  C   UNL     1      41.840 -11.730   3.193  1.00  0.00    -0.057 A 
HETATM   21  C   UNL     1      43.227 -11.560   3.251  1.00  0.00     0.010 A 
HETATM   22  C   UNL     1      43.897 -11.650   4.474  1.00  0.00     0.037 A 
HETATM   23  C   UNL     1      43.197 -11.909   5.655  1.00  0.00     0.068 A 
HETATM   24  C   UNL     1      41.819 -12.108   5.598  1.00  0.00     0.037 A 
HETATM   25  C   UNL     1      41.146 -12.017   4.376  1.00  0.00     0.010 A 
BRANCH  23  26
HETATM   26  O   UNL     1      43.968 -11.949   6.784  1.00  0.00    -0.356 OA
HETATM   27  C   UNL     1      45.328 -11.557   6.638  1.00  0.00     0.210 C 
ENDBRANCH  23  26
ENDBRANCH  19  20
ENDBRANCH  18  19
ENDBRANCH   3  18
TORSDOF 6
ENDMDL
MODEL 7
REMARK VINA RESULT:      -7.5      4.277      7.601
REMARK  6 active torsions:
REMARK  status: ('A' for Active; 'I' for Inactive)
REMARK    1  A    between atoms: C_2  and  N_3 
REMARK    2  A    between atoms: C_10  and  N_11 
REMARK       I    between atoms: N_11  and  C_12 
REMARK       I    between atoms: C_12  and  N_13 
REMARK    3  A    between atoms: N_13  and  C_14 
REMARK    4  A    between atoms: C_14  and  C_15 
REMARK    5  A    between atoms: C_15  and  C_16 
REMARK    6  A    between atoms: C_19  and  O_20 
ROOT
HETATM    1  N   UNL     1      41.087 -13.028   1.323  1.00  0.00    -0.307 N 
HETATM    2  C   UNL     1      40.443 -13.002   2.526  1.00  0.00     0.320 C 
HETATM    3  N   UNL     1      41.220 -13.272   3.617  1.00  0.00    -0.343 N 
HETATM    4  O   UNL     1      39.270 -12.716   2.735  1.00  0.00    -0.247 OA
HETATM    5  H   UNL     1      42.088 -13.094   1.348  1.00  0.00     0.170 HD
HETATM    6  H   UNL     1      40.703 -13.149   4.480  1.00  0.00     0.164 HD
ENDROOT
BRANCH   1   7
HETATM    7  C   UNL     1      40.561 -12.680   0.089  1.00  0.00     0.064 A 
HETATM    8  C   UNL     1      39.872 -13.419  -0.927  1.00  0.00     0.019 A 
HETATM    9  C   UNL     1      39.527 -12.507  -1.939  1.00  0.00     0.046 A 
HETATM   10  C   UNL     1      39.522 -14.773  -1.125  1.00  0.00     0.016 A 
HETATM   11  N   UNL     1      39.998 -11.273  -1.547  1.00  0.00    -0.354 N 
HETATM   12  C   UNL     1      38.831 -12.895  -3.097  1.00  0.00     0.030 A 
HETATM   13  C   UNL     1      40.671 -11.380  -0.360  1.00  0.00     0.121 A 
HETATM   14  C   UNL     1      38.487 -14.239  -3.247  1.00  0.00     0.002 A 
HETATM   15  C   UNL     1      38.832 -15.170  -2.277  1.00  0.00     0.001 A 
BRANCH  11  16
HETATM   16  C   UNL     1      39.794 -10.020  -2.254  1.00  0.00     0.124 C 
HETATM   17  C   UNL     1      40.862  -9.764  -3.301  1.00  0.00     0.027 C 
ENDBRANCH  11  16
ENDBRANCH   1   7
BRANCH   3  18
HETATM   18  C   UNL     1      42.641 -13.560   3.727  1.00  0.00     0.129 C 
BRANCH  18  19
HETATM   19  C   UNL     1      43.001 -14.621   4.775  1.00  0.00     0.058 C 
BRANCH  19  20
HETATM   20  C   UNL     1      43.228 -16.004   4.218  1.00  0.00    -0.057 A 
HETATM   21  C   UNL     1      42.963 -16.288   2.875  1.00  0.00     0.010 A 
HETATM   22  C   UNL     1      43.221 -17.562   2.360  1.00  0.00     0.037 A 
HETATM   23  C   UNL     1      43.745 -18.569   3.175  1.00  0.00     0.068 A 
HETATM   24  C   UNL     1      43.983 -18.298   4.521  1.00  0.00     0.037 A 
HETATM   25  C   UNL     1      43.729 -17.024   5.038  1.00  0.00     0.010 A 
BRANCH  23  26
HETATM   26  O   UNL     1      43.972 -19.760   2.544  1.00  0.00    -0.356 OA
HETATM   27  C   UNL     1      43.872 -20.932   3.345  1.00  0.00     0.210 C 
ENDBRANCH  23  26
ENDBRANCH  19  20
ENDBRANCH  18  19
ENDBRANCH   3  18
TORSDOF 6
ENDMDL
MODEL 8
REMARK VINA RESULT:      -7.5      1.684      2.095
REMARK  6 active torsions:
REMARK  status: ('A' for Active; 'I' for Inactive)
REMARK    1  A    between atoms: C_2  and  N_3 
REMARK    2  A    between atoms: C_10  and  N_11 
REMARK       I    between atoms: N_11  and  C_12 
REMARK       I    between atoms: C_12  and  N_13 
REMARK    3  A    between atoms: N_13  and  C_14 
REMARK    4  A    between atoms: C_14  and  C_15 
REMARK    5  A    between atoms: C_15  and  C_16 
REMARK    6  A    between atoms: C_19  and  O_20 
ROOT
HETATM    1  N   UNL     1      41.449 -12.627   5.120  1.00  0.00    -0.307 N 
HETATM    2  C   UNL     1      40.655 -13.687   5.452  1.00  0.00     0.320 C 
HETATM    3  N   UNL     1      40.444 -14.600   4.458  1.00  0.00    -0.343 N 
HETATM    4  O   UNL     1      40.159 -13.930   6.546  1.00  0.00    -0.247 OA
HETATM    5  H   UNL     1      41.926 -12.680   4.239  1.00  0.00     0.170 HD
HETATM    6  H   UNL     1      39.924 -15.401   4.795  1.00  0.00     0.164 HD
ENDROOT
BRANCH   1   7
HETATM    7  C   UNL     1      41.908 -11.633   5.969  1.00  0.00     0.064 A 
HETATM    8  C   UNL     1      43.193 -11.341   6.532  1.00  0.00     0.019 A 
HETATM    9  C   UNL     1      43.059 -10.159   7.278  1.00  0.00     0.046 A 
HETATM   10  C   UNL     1      44.462 -11.963   6.521  1.00  0.00     0.016 A 
HETATM   11  N   UNL     1      41.743  -9.763   7.172  1.00  0.00    -0.354 N 
HETATM   12  C   UNL     1      44.137  -9.577   7.968  1.00  0.00     0.030 A 
HETATM   13  C   UNL     1      41.034 -10.675   6.438  1.00  0.00     0.121 A 
HETATM   14  C   UNL     1      45.379 -10.212   7.918  1.00  0.00     0.002 A 
HETATM   15  C   UNL     1      45.541 -11.393   7.208  1.00  0.00     0.001 A 
BRANCH  11  16
HETATM   16  C   UNL     1      41.174  -8.544   7.722  1.00  0.00     0.124 C 
HETATM   17  C   UNL     1      41.489  -7.325   6.876  1.00  0.00     0.027 C 
ENDBRANCH  11  16
ENDBRANCH   1   7
BRANCH   3  18
HETATM   18  C   UNL     1      40.948 -14.659   3.096  1.00  0.00     0.129 C 
BRANCH  18  19
HETATM   19  C   UNL     1      42.468 -14.830   2.980  1.00  0.00     0.058 C 
BRANCH  19  20
HETATM   20  C   UNL     1      42.964 -16.234   3.215  1.00  0.00    -0.057 A 
HETATM   21  C   UNL     1      43.535 -16.597   4.439  1.00  0.00     0.010 A 
HETATM   22  C   UNL     1      43.948 -17.914   4.660  1.00  0.00     0.037 A 
HETATM   23  C   UNL     1      43.798 -18.886   3.667  1.00  0.00     0.068 A 
HETATM   24  C   UNL     1      43.256 -18.522   2.436  1.00  0.00     0.037 A 
HETATM   25  C   UNL     1      42.839 -17.206   2.214  1.00  0.00     0.010 A 
BRANCH  23  26
HETATM   26  O   UNL     1      44.221 -20.138   4.019  1.00  0.00    -0.356 OA
HETATM   27  C   UNL     1      44.037 -20.511   5.380  1.00  0.00     0.210 C 
ENDBRANCH  23  26
ENDBRANCH  19  20
ENDBRANCH  18  19
ENDBRANCH   3  18
TORSDOF 6
ENDMDL
MODEL 9
REMARK VINA RESULT:      -7.5      3.898      9.363
REMARK  6 active torsions:
REMARK  status: ('A' for Active; 'I' for Inactive)
REMARK    1  A    between atoms: C_2  and  N_3 
REMARK    2  A    between atoms: C_10  and  N_11 
REMARK       I    between atoms: N_11  and  C_12 
REMARK       I    between atoms: C_12  and  N_13 
REMARK    3  A    between atoms: N_13  and  C_14 
REMARK    4  A    between atoms: C_14  and  C_15 
REMARK    5  A    between atoms: C_15  and  C_16 
REMARK    6  A    between atoms: C_19  and  O_20 
ROOT
HETATM    1  N   UNL     1      43.653 -12.036   7.322  1.00  0.00    -0.307 N 
HETATM    2  C   UNL     1      44.811 -11.317   7.398  1.00  0.00     0.320 C 
HETATM    3  N   UNL     1      44.995 -10.616   8.556  1.00  0.00    -0.343 N 
HETATM    4  O   UNL     1      45.714 -11.273   6.571  1.00  0.00    -0.247 OA
HETATM    5  H   UNL     1      43.113 -12.112   8.164  1.00  0.00     0.170 HD
HETATM    6  H   UNL     1      45.908 -10.179   8.584  1.00  0.00     0.164 HD
ENDROOT
BRANCH   1   7
HETATM    7  C   UNL     1      43.284 -12.915   6.316  1.00  0.00     0.064 A 
HETATM    8  C   UNL     1      43.540 -14.306   6.087  1.00  0.00     0.019 A 
HETATM    9  C   UNL     1      42.848 -14.666   4.919  1.00  0.00     0.046 A 
HETATM   10  C   UNL     1      44.308 -15.307   6.723  1.00  0.00     0.016 A 
HETATM   11  N   UNL     1      42.210 -13.534   4.462  1.00  0.00    -0.354 N 
HETATM   12  C   UNL     1      42.875 -15.973   4.401  1.00  0.00     0.030 A 
HETATM   13  C   UNL     1      42.515 -12.466   5.262  1.00  0.00     0.121 A 
HETATM   14  C   UNL     1      43.631 -16.938   5.067  1.00  0.00     0.002 A 
HETATM   15  C   UNL     1      44.344 -16.610   6.212  1.00  0.00     0.001 A 
BRANCH  11  16
HETATM   16  C   UNL     1      41.312 -13.463   3.322  1.00  0.00     0.124 C 
HETATM   17  C   UNL     1      39.881 -13.162   3.728  1.00  0.00     0.027 C 
ENDBRANCH  11  16
ENDBRANCH   1   7
BRANCH   3  18
HETATM   18  C   UNL     1      44.175 -10.522   9.753  1.00  0.00     0.129 C 
BRANCH  18  19
HETATM   19  C   UNL     1      44.286  -9.189  10.504  1.00  0.00     0.058 C 
BRANCH  19  20
HETATM   20  C   UNL     1      43.439  -9.094  11.748  1.00  0.00    -0.057 A 
HETATM   21  C   UNL     1      43.574  -8.015  12.627  1.00  0.00     0.010 A 
HETATM   22  C   UNL     1      42.751  -7.916  13.752  1.00  0.00     0.037 A 
HETATM   23  C   UNL     1      41.783  -8.888  14.017  1.00  0.00     0.068 A 
HETATM   24  C   UNL     1      41.663  -9.979  13.159  1.00  0.00     0.037 A 
HETATM   25  C   UNL     1      42.484 -10.080  12.032  1.00  0.00     0.010 A 
BRANCH  23  26
HETATM   26  O   UNL     1      41.029  -8.660  15.135  1.00  0.00    -0.356 OA
HETATM   27  C   UNL     1      41.558  -7.735  16.079  1.00  0.00     0.210 C 
ENDBRANCH  23  26
ENDBRANCH  19  20
ENDBRANCH  18  19
ENDBRANCH   3  18
TORSDOF 6
ENDMDL
MODEL 10
REMARK VINA RESULT:      -7.4      5.500      8.918
REMARK  6 active torsions:
REMARK  status: ('A' for Active; 'I' for Inactive)
REMARK    1  A    between atoms: C_2  and  N_3 
REMARK    2  A    between atoms: C_10  and  N_11 
REMARK       I    between atoms: N_11  and  C_12 
REMARK       I    between atoms: C_12  and  N_13 
REMARK    3  A    between atoms: N_13  and  C_14 
REMARK    4  A    between atoms: C_14  and  C_15 
REMARK    5  A    between atoms: C_15  and  C_16 
REMARK    6  A    between atoms: C_19  and  O_20 
ROOT
HETATM    1  N   UNL     1      41.485 -14.650   1.998  1.00  0.00    -0.307 N 
HETATM    2  C   UNL     1      40.321 -15.080   1.431  1.00  0.00     0.320 C 
HETATM    3  N   UNL     1      39.897 -14.368   0.345  1.00  0.00    -0.343 N 
HETATM    4  O   UNL     1      39.651 -16.054   1.754  1.00  0.00    -0.247 OA
HETATM    5  H   UNL     1      42.004 -13.955   1.494  1.00  0.00     0.170 HD
HETATM    6  H   UNL     1      39.080 -14.791  -0.080  1.00  0.00     0.164 HD
ENDROOT
BRANCH   1   7
HETATM    7  C   UNL     1      42.186 -15.262   3.026  1.00  0.00     0.064 A 
HETATM    8  C   UNL     1      42.843 -16.529   3.146  1.00  0.00     0.019 A 
HETATM    9  C   UNL     1      43.437 -16.568   4.419  1.00  0.00     0.046 A 
HETATM   10  C   UNL     1      42.983 -17.673   2.328  1.00  0.00     0.016 A 
HETATM   11  N   UNL     1      43.140 -15.374   5.039  1.00  0.00    -0.354 N 
HETATM   12  C   UNL     1      44.175 -17.676   4.872  1.00  0.00     0.030 A 
HETATM   13  C   UNL     1      42.340 -14.610   4.232  1.00  0.00     0.121 A 
HETATM   14  C   UNL     1      44.305 -18.779   4.027  1.00  0.00     0.002 A 
HETATM   15  C   UNL     1      43.713 -18.782   2.772  1.00  0.00     0.001 A 
BRANCH  11  16
HETATM   16  C   UNL     1      43.620 -14.949   6.343  1.00  0.00     0.124 C 
HETATM   17  C   UNL     1      43.686 -13.439   6.472  1.00  0.00     0.027 C 
ENDBRANCH  11  16
ENDBRANCH   1   7
BRANCH   3  18
HETATM   18  C   UNL     1      40.490 -13.232  -0.341  1.00  0.00     0.129 C 
BRANCH  18  19
HETATM   19  C   UNL     1      40.241 -13.194  -1.855  1.00  0.00     0.058 C 
BRANCH  19  20
HETATM   20  C   UNL     1      38.898 -12.639  -2.258  1.00  0.00    -0.057 A 
HETATM   21  C   UNL     1      38.717 -11.265  -2.442  1.00  0.00     0.010 A 
HETATM   22  C   UNL     1      37.479 -10.768  -2.860  1.00  0.00     0.037 A 
HETATM   23  C   UNL     1      36.407 -11.632  -3.102  1.00  0.00     0.068 A 
HETATM   24  C   UNL     1      36.576 -12.999  -2.893  1.00  0.00     0.037 A 
HETATM   25  C   UNL     1      37.813 -13.498  -2.476  1.00  0.00     0.010 A 
BRANCH  23  26
HETATM   26  O   UNL     1      35.261 -11.020  -3.529  1.00  0.00    -0.356 OA
HETATM   27  C   UNL     1      34.270 -11.863  -4.108  1.00  0.00     0.210 C 
ENDBRANCH  23  26
ENDBRANCH  19  20
ENDBRANCH  18  19
ENDBRANCH   3  18
TORSDOF 6
ENDMDL
