MODEL 1
REMARK VINA RESULT:      -8.2      0.000      0.000
REMARK  9 active torsions:
REMARK  status: ('A' for Active; 'I' for Inactive)
REMARK    1  A    between atoms: C_2  and  N_3 
REMARK    2  A    between atoms: C_4  and  S_5 
REMARK    3  A    between atoms: S_5  and  C_6 
REMARK    4  A    between atoms: C_6  and  C_7 
REMARK       I    between atoms: C_7  and  N_8 
REMARK    5  A    between atoms: N_8  and  C_9 
REMARK    6  A    between atoms: C_9  and  C_10 
REMARK    7  A    between atoms: C_10  and  O_11 
REMARK    8  A    between atoms: O_11  and  C_12 
REMARK    9  A    between atoms: C_21  and  C_22 
ROOT
HETATM    1  S   UNL     1      40.391 -12.774   4.191  1.00  0.00    -0.081 SA
ENDROOT
BRANCH   1   2
HETATM    2  C   UNL     1      41.622 -13.883   3.692  1.00  0.00     0.192 A 
HETATM    3  N   UNL     1      41.606 -15.228   3.947  1.00  0.00    -0.308 N 
HETATM    4  C   UNL     1      42.750 -15.731   3.357  1.00  0.00     0.165 A 
HETATM    5  N   UNL     1      43.399 -14.728   2.790  1.00  0.00    -0.128 NA
HETATM    6  N   UNL     1      42.695 -13.571   3.008  1.00  0.00    -0.122 NA
BRANCH   3   7
HETATM    7  C   UNL     1      40.566 -15.987   4.613  1.00  0.00     0.128 C 
HETATM    8  C   UNL     1      40.812 -16.156   6.104  1.00  0.00     0.027 C 
ENDBRANCH   3   7
BRANCH   4   9
HETATM    9  C   UNL     1      43.160 -17.136   3.315  1.00  0.00     0.018 A 
HETATM   10  C   UNL     1      43.950 -17.701   4.340  1.00  0.00    -0.048 A 
HETATM   11  C   UNL     1      44.381 -16.902   5.541  1.00  0.00     0.049 C 
HETATM   12  C   UNL     1      44.314 -19.057   4.261  1.00  0.00     0.007 A 
HETATM   13  C   UNL     1      43.907 -19.844   3.183  1.00  0.00     0.001 A 
HETATM   14  C   UNL     1      43.118 -19.292   2.180  1.00  0.00     0.001 A 
HETATM   15  C   UNL     1      42.740 -17.950   2.250  1.00  0.00     0.016 A 
ENDBRANCH   4   9
ENDBRANCH   1   2
BRANCH   1  16
HETATM   16  C   UNL     1      40.846 -12.562   5.939  1.00  0.00     0.185 C 
BRANCH  16  17
HETATM   17  C   UNL     1      42.203 -11.882   6.031  1.00  0.00     0.227 C 
HETATM   18  N   UNL     1      43.059 -12.422   6.969  1.00  0.00    -0.358 N 
HETATM   19  H   UNL     1      42.762 -13.219   7.519  1.00  0.00     0.162 HD
HETATM   20  O   UNL     1      42.513 -10.930   5.317  1.00  0.00    -0.273 OA
BRANCH  18  21
HETATM   21  C   UNL     1      44.418 -11.938   7.136  1.00  0.00     0.149 C 
BRANCH  21  22
HETATM   22  C   UNL     1      44.532 -10.742   8.085  1.00  0.00     0.195 C 
BRANCH  22  23
HETATM   23  O   UNL     1      44.352 -11.230   9.417  1.00  0.00    -0.350 OA
BRANCH  23  24
HETATM   24  C   UNL     1      43.913 -10.350  10.365  1.00  0.00     0.068 A 
HETATM   25  C   UNL     1      43.843  -8.962  10.232  1.00  0.00     0.037 A 
HETATM   26  C   UNL     1      43.354  -8.181  11.287  1.00  0.00     0.003 A 
HETATM   27  C   UNL     1      42.939  -8.782  12.476  1.00  0.00     0.000 A 
HETATM   28  C   UNL     1      43.010 -10.166  12.613  1.00  0.00     0.003 A 
HETATM   29  C   UNL     1      43.494 -10.943  11.560  1.00  0.00     0.037 A 
ENDBRANCH  23  24
ENDBRANCH  22  23
ENDBRANCH  21  22
ENDBRANCH  18  21
ENDBRANCH  16  17
ENDBRANCH   1  16
TORSDOF 9
ENDMDL
MODEL 2
REMARK VINA RESULT:      -8.0      1.781      2.389
REMARK  9 active torsions:
REMARK  status: ('A' for Active; 'I' for Inactive)
REMARK    1  A    between atoms: C_2  and  N_3 
REMARK    2  A    between atoms: C_4  and  S_5 
REMARK    3  A    between atoms: S_5  and  C_6 
REMARK    4  A    between atoms: C_6  and  C_7 
REMARK       I    between atoms: C_7  and  N_8 
REMARK    5  A    between atoms: N_8  and  C_9 
REMARK    6  A    between atoms: C_9  and  C_10 
REMARK    7  A    between atoms: C_10  and  O_11 
REMARK    8  A    between atoms: O_11  and  C_12 
REMARK    9  A    between atoms: C_21  and  C_22 
ROOT
HETATM    1  S   UNL     1      40.826 -13.410   2.240  1.00  0.00    -0.081 SA
ENDROOT
BRANCH   1   2
HETATM    2  C   UNL     1      42.005 -14.675   2.199  1.00  0.00     0.192 A 
HETATM    3  N   UNL     1      41.886 -15.871   2.857  1.00  0.00    -0.308 N 
HETATM    4  C   UNL     1      43.024 -16.586   2.535  1.00  0.00     0.165 A 
HETATM    5  N   UNL     1      43.767 -15.843   1.733  1.00  0.00    -0.128 NA
HETATM    6  N   UNL     1      43.132 -14.645   1.531  1.00  0.00    -0.122 NA
BRANCH   3   7
HETATM    7  C   UNL     1      40.763 -16.333   3.648  1.00  0.00     0.128 C 
HETATM    8  C   UNL     1      40.924 -16.051   5.133  1.00  0.00     0.027 C 
ENDBRANCH   3   7
BRANCH   4   9
HETATM    9  C   UNL     1      43.342 -17.951   2.960  1.00  0.00     0.018 A 
HETATM   10  C   UNL     1      43.964 -18.207   4.202  1.00  0.00    -0.048 A 
HETATM   11  C   UNL     1      44.300 -17.099   5.164  1.00  0.00     0.049 C 
HETATM   12  C   UNL     1      44.243 -19.535   4.570  1.00  0.00     0.007 A 
HETATM   13  C   UNL     1      43.916 -20.595   3.724  1.00  0.00     0.001 A 
HETATM   14  C   UNL     1      43.291 -20.345   2.507  1.00  0.00     0.001 A 
HETATM   15  C   UNL     1      42.999 -19.033   2.132  1.00  0.00     0.016 A 
ENDBRANCH   4   9
ENDBRANCH   1   2
BRANCH   1  16
HETATM   16  C   UNL     1      41.920 -11.961   2.332  1.00  0.00     0.185 C 
BRANCH  16  17
HETATM   17  C   UNL     1      42.167 -11.603   3.788  1.00  0.00     0.227 C 
HETATM   18  N   UNL     1      42.118 -12.670   4.663  1.00  0.00    -0.358 N 
HETATM   19  H   UNL     1      41.942 -13.601   4.308  1.00  0.00     0.162 HD
HETATM   20  O   UNL     1      42.400 -10.453   4.154  1.00  0.00    -0.273 OA
BRANCH  18  21
HETATM   21  C   UNL     1      42.403 -12.514   6.079  1.00  0.00     0.149 C 
BRANCH  21  22
HETATM   22  C   UNL     1      43.884 -12.694   6.429  1.00  0.00     0.195 C 
BRANCH  22  23
HETATM   23  O   UNL     1      44.050 -12.329   7.801  1.00  0.00    -0.350 OA
BRANCH  23  24
HETATM   24  C   UNL     1      44.468 -11.058   8.076  1.00  0.00     0.068 A 
HETATM   25  C   UNL     1      43.701 -10.044   8.651  1.00  0.00     0.037 A 
HETATM   26  C   UNL     1      44.268  -8.786   8.891  1.00  0.00     0.003 A 
HETATM   27  C   UNL     1      45.599  -8.537   8.554  1.00  0.00     0.000 A 
HETATM   28  C   UNL     1      46.367  -9.546   7.978  1.00  0.00     0.003 A 
HETATM   29  C   UNL     1      45.801 -10.799   7.743  1.00  0.00     0.037 A 
ENDBRANCH  23  24
ENDBRANCH  22  23
ENDBRANCH  21  22
ENDBRANCH  18  21
ENDBRANCH  16  17
ENDBRANCH   1  16
TORSDOF 9
ENDMDL
MODEL 3
REMARK VINA RESULT:      -8.0      2.530     10.611
REMARK  9 active torsions:
REMARK  status: ('A' for Active; 'I' for Inactive)
REMARK    1  A    between atoms: C_2  and  N_3 
REMARK    2  A    between atoms: C_4  and  S_5 
REMARK    3  A    between atoms: S_5  and  C_6 
REMARK    4  A    between atoms: C_6  and  C_7 
REMARK       I    between atoms: C_7  and  N_8 
REMARK    5  A    between atoms: N_8  and  C_9 
REMARK    6  A    between atoms: C_9  and  C_10 
REMARK    7  A    between atoms: C_10  and  O_11 
REMARK    8  A    between atoms: O_11  and  C_12 
REMARK    9  A    between atoms: C_21  and  C_22 
ROOT
HETATM    1  S   UNL     1      43.452 -10.170   7.612  1.00  0.00    -0.081 SA
ENDROOT
BRANCH   1   2
HETATM    2  C   UNL     1      43.491 -10.150   9.341  1.00  0.00     0.192 A 
HETATM    3  N   UNL     1      42.951  -9.162  10.120  1.00  0.00    -0.308 N 
HETATM    4  C   UNL     1      43.181  -9.551  11.426  1.00  0.00     0.165 A 
HETATM    5  N   UNL     1      43.823 -10.706  11.407  1.00  0.00    -0.128 NA
HETATM    6  N   UNL     1      44.024 -11.075  10.101  1.00  0.00    -0.122 NA
BRANCH   3   7
HETATM    7  C   UNL     1      42.210  -7.998   9.678  1.00  0.00     0.128 C 
HETATM    8  C   UNL     1      43.097  -6.792   9.410  1.00  0.00     0.027 C 
ENDBRANCH   3   7
BRANCH   4   9
HETATM    9  C   UNL     1      42.748  -8.843  12.633  1.00  0.00     0.018 A 
HETATM   10  C   UNL     1      41.551  -9.188  13.297  1.00  0.00    -0.048 A 
HETATM   11  C   UNL     1      40.679 -10.319  12.823  1.00  0.00     0.049 C 
HETATM   12  C   UNL     1      41.180  -8.484  14.457  1.00  0.00     0.007 A 
HETATM   13  C   UNL     1      41.977  -7.451  14.951  1.00  0.00     0.001 A 
HETATM   14  C   UNL     1      43.163  -7.120  14.305  1.00  0.00     0.001 A 
HETATM   15  C   UNL     1      43.550  -7.816  13.159  1.00  0.00     0.016 A 
ENDBRANCH   4   9
ENDBRANCH   1   2
BRANCH   1  16
HETATM   16  C   UNL     1      44.353 -11.716   7.292  1.00  0.00     0.185 C 
BRANCH  16  17
HETATM   17  C   UNL     1      43.483 -12.648   6.464  1.00  0.00     0.227 C 
HETATM   18  N   UNL     1      43.771 -13.990   6.609  1.00  0.00    -0.358 N 
HETATM   19  H   UNL     1      44.506 -14.280   7.242  1.00  0.00     0.162 HD
HETATM   20  O   UNL     1      42.588 -12.236   5.730  1.00  0.00    -0.273 OA
BRANCH  18  21
HETATM   21  C   UNL     1      42.988 -15.019   5.946  1.00  0.00     0.149 C 
BRANCH  21  22
HETATM   22  C   UNL     1      43.787 -16.285   5.625  1.00  0.00     0.195 C 
BRANCH  22  23
HETATM   23  O   UNL     1      43.659 -16.532   4.223  1.00  0.00    -0.350 OA
BRANCH  23  24
HETATM   24  C   UNL     1      43.658 -17.832   3.802  1.00  0.00     0.068 A 
HETATM   25  C   UNL     1      43.268 -18.291   2.543  1.00  0.00     0.037 A 
HETATM   26  C   UNL     1      43.334 -19.658   2.244  1.00  0.00     0.003 A 
HETATM   27  C   UNL     1      43.783 -20.568   3.201  1.00  0.00     0.000 A 
HETATM   28  C   UNL     1      44.170 -20.114   4.459  1.00  0.00     0.003 A 
HETATM   29  C   UNL     1      44.107 -18.752   4.755  1.00  0.00     0.037 A 
ENDBRANCH  23  24
ENDBRANCH  22  23
ENDBRANCH  21  22
ENDBRANCH  18  21
ENDBRANCH  16  17
ENDBRANCH   1  16
TORSDOF 9
ENDMDL
MODEL 4
REMARK VINA RESULT:      -7.8      4.962      7.868
REMARK  9 active torsions:
REMARK  status: ('A' for Active; 'I' for Inactive)
REMARK    1  A    between atoms: C_2  and  N_3 
REMARK    2  A    between atoms: C_4  and  S_5 
REMARK    3  A    between atoms: S_5  and  C_6 
REMARK    4  A    between atoms: C_6  and  C_7 
REMARK       I    between atoms: C_7  and  N_8 
REMARK    5  A    between atoms: N_8  and  C_9 
REMARK    6  A    between atoms: C_9  and  C_10 
REMARK    7  A    between atoms: C_10  and  O_11 
REMARK    8  A    between atoms: O_11  and  C_12 
REMARK    9  A    between atoms: C_21  and  C_22 
ROOT
HETATM    1  S   UNL     1      40.312 -12.883   4.285  1.00  0.00    -0.081 SA
ENDROOT
BRANCH   1   2
HETATM    2  C   UNL     1      41.543 -13.967   3.735  1.00  0.00     0.192 A 
HETATM    3  N   UNL     1      41.578 -15.308   4.011  1.00  0.00    -0.308 N 
HETATM    4  C   UNL     1      42.701 -15.791   3.365  1.00  0.00     0.165 A 
HETATM    5  N   UNL     1      43.289 -14.781   2.747  1.00  0.00    -0.128 NA
HETATM    6  N   UNL     1      42.568 -13.640   2.987  1.00  0.00    -0.122 NA
BRANCH   3   7
HETATM    7  C   UNL     1      40.597 -16.082   4.746  1.00  0.00     0.128 C 
HETATM    8  C   UNL     1      40.831 -16.070   6.248  1.00  0.00     0.027 C 
ENDBRANCH   3   7
BRANCH   4   9
HETATM    9  C   UNL     1      43.146 -17.185   3.322  1.00  0.00     0.018 A 
HETATM   10  C   UNL     1      43.960 -17.728   4.341  1.00  0.00    -0.048 A 
HETATM   11  C   UNL     1      44.381 -16.916   5.536  1.00  0.00     0.049 C 
HETATM   12  C   UNL     1      44.356 -19.075   4.260  1.00  0.00     0.007 A 
HETATM   13  C   UNL     1      43.960 -19.873   3.188  1.00  0.00     0.001 A 
HETATM   14  C   UNL     1      43.146 -19.343   2.191  1.00  0.00     0.001 A 
HETATM   15  C   UNL     1      42.736 -18.011   2.262  1.00  0.00     0.016 A 
ENDBRANCH   4   9
ENDBRANCH   1   2
BRANCH   1  16
HETATM   16  C   UNL     1      39.144 -12.999   2.897  1.00  0.00     0.185 C 
BRANCH  16  17
HETATM   17  C   UNL     1      39.240 -11.743   2.047  1.00  0.00     0.227 C 
HETATM   18  N   UNL     1      40.526 -11.367   1.713  1.00  0.00    -0.358 N 
HETATM   19  H   UNL     1      41.309 -11.927   2.025  1.00  0.00     0.162 HD
HETATM   20  O   UNL     1      38.248 -11.118   1.680  1.00  0.00    -0.273 OA
BRANCH  18  21
HETATM   21  C   UNL     1      40.793 -10.232   0.846  1.00  0.00     0.149 C 
BRANCH  21  22
HETATM   22  C   UNL     1      41.157 -10.630  -0.588  1.00  0.00     0.195 C 
BRANCH  22  23
HETATM   23  O   UNL     1      39.942 -10.703  -1.337  1.00  0.00    -0.350 OA
BRANCH  23  24
HETATM   24  C   UNL     1      39.564 -11.923  -1.820  1.00  0.00     0.068 A 
HETATM   25  C   UNL     1      40.417 -12.956  -2.212  1.00  0.00     0.037 A 
HETATM   26  C   UNL     1      39.886 -14.166  -2.676  1.00  0.00     0.003 A 
HETATM   27  C   UNL     1      38.505 -14.345  -2.756  1.00  0.00     0.000 A 
HETATM   28  C   UNL     1      37.651 -13.316  -2.369  1.00  0.00     0.003 A 
HETATM   29  C   UNL     1      38.181 -12.113  -1.903  1.00  0.00     0.037 A 
ENDBRANCH  23  24
ENDBRANCH  22  23
ENDBRANCH  21  22
ENDBRANCH  18  21
ENDBRANCH  16  17
ENDBRANCH   1  16
TORSDOF 9
ENDMDL
MODEL 5
REMARK VINA RESULT:      -7.7      1.662      2.324
REMARK  9 active torsions:
REMARK  status: ('A' for Active; 'I' for Inactive)
REMARK    1  A    between atoms: C_2  and  N_3 
REMARK    2  A    between atoms: C_4  and  S_5 
REMARK    3  A    between atoms: S_5  and  C_6 
REMARK    4  A    between atoms: C_6  and  C_7 
REMARK       I    between atoms: C_7  and  N_8 
REMARK    5  A    between atoms: N_8  and  C_9 
REMARK    6  A    between atoms: C_9  and  C_10 
REMARK    7  A    between atoms: C_10  and  O_11 
REMARK    8  A    between atoms: O_11  and  C_12 
REMARK    9  A    between atoms: C_21  and  C_22 
ROOT
HETATM    1  S   UNL     1      40.241 -12.998   4.218  1.00  0.00    -0.081 SA
ENDROOT
BRANCH   1   2
HETATM    2  C   UNL     1      41.474 -14.076   3.661  1.00  0.00     0.192 A 
HETATM    3  N   UNL     1      41.538 -15.409   3.967  1.00  0.00    -0.308 N 
HETATM    4  C   UNL     1      42.651 -15.889   3.303  1.00  0.00     0.165 A 
HETATM    5  N   UNL     1      43.207 -14.885   2.646  1.00  0.00    -0.128 NA
HETATM    6  N   UNL     1      42.474 -13.750   2.878  1.00  0.00    -0.122 NA
BRANCH   3   7
HETATM    7  C   UNL     1      40.589 -16.181   4.744  1.00  0.00     0.128 C 
HETATM    8  C   UNL     1      40.809 -16.060   6.244  1.00  0.00     0.027 C 
ENDBRANCH   3   7
BRANCH   4   9
HETATM    9  C   UNL     1      43.118 -17.277   3.280  1.00  0.00     0.018 A 
HETATM   10  C   UNL     1      43.940 -17.792   4.306  1.00  0.00    -0.048 A 
HETATM   11  C   UNL     1      44.350 -16.956   5.489  1.00  0.00     0.049 C 
HETATM   12  C   UNL     1      44.357 -19.133   4.245  1.00  0.00     0.007 A 
HETATM   13  C   UNL     1      43.973 -19.954   3.185  1.00  0.00     0.001 A 
HETATM   14  C   UNL     1      43.151 -19.451   2.181  1.00  0.00     0.001 A 
HETATM   15  C   UNL     1      42.721 -18.125   2.232  1.00  0.00     0.016 A 
ENDBRANCH   4   9
ENDBRANCH   1   2
BRANCH   1  16
HETATM   16  C   UNL     1      41.137 -12.159   5.559  1.00  0.00     0.185 C 
BRANCH  16  17
HETATM   17  C   UNL     1      40.149 -11.405   6.435  1.00  0.00     0.227 C 
HETATM   18  N   UNL     1      40.717 -10.465   7.271  1.00  0.00    -0.358 N 
HETATM   19  H   UNL     1      41.718 -10.318   7.253  1.00  0.00     0.162 HD
HETATM   20  O   UNL     1      38.938 -11.613   6.394  1.00  0.00    -0.273 OA
BRANCH  18  21
HETATM   21  C   UNL     1      39.910  -9.606   8.120  1.00  0.00     0.149 C 
BRANCH  21  22
HETATM   22  C   UNL     1      40.732  -8.613   8.946  1.00  0.00     0.195 C 
BRANCH  22  23
HETATM   23  O   UNL     1      41.464  -9.362   9.919  1.00  0.00    -0.350 OA
BRANCH  23  24
HETATM   24  C   UNL     1      42.827  -9.375   9.821  1.00  0.00     0.068 A 
HETATM   25  C   UNL     1      43.698 -10.192  10.541  1.00  0.00     0.037 A 
HETATM   26  C   UNL     1      45.079 -10.107  10.325  1.00  0.00     0.003 A 
HETATM   27  C   UNL     1      45.593  -9.204   9.395  1.00  0.00     0.000 A 
HETATM   28  C   UNL     1      44.727  -8.384   8.676  1.00  0.00     0.003 A 
HETATM   29  C   UNL     1      43.352  -8.472   8.889  1.00  0.00     0.037 A 
ENDBRANCH  23  24
ENDBRANCH  22  23
ENDBRANCH  21  22
ENDBRANCH  18  21
ENDBRANCH  16  17
ENDBRANCH   1  16
TORSDOF 9
ENDMDL
MODEL 6
REMARK VINA RESULT:      -7.6      3.176      7.033
REMARK  9 active torsions:
REMARK  status: ('A' for Active; 'I' for Inactive)
REMARK    1  A    between atoms: C_2  and  N_3 
REMARK    2  A    between atoms: C_4  and  S_5 
REMARK    3  A    between atoms: S_5  and  C_6 
REMARK    4  A    between atoms: C_6  and  C_7 
REMARK       I    between atoms: C_7  and  N_8 
REMARK    5  A    between atoms: N_8  and  C_9 
REMARK    6  A    between atoms: C_9  and  C_10 
REMARK    7  A    between atoms: C_10  and  O_11 
REMARK    8  A    between atoms: O_11  and  C_12 
REMARK    9  A    between atoms: C_21  and  C_22 
ROOT
HETATM    1  S   UNL     1      41.228 -12.161   5.392  1.00  0.00    -0.081 SA
ENDROOT
BRANCH   1   2
HETATM    2  C   UNL     1      41.503 -12.697   3.771  1.00  0.00     0.192 A 
HETATM    3  N   UNL     1      40.529 -12.815   2.814  1.00  0.00    -0.308 N 
HETATM    4  C   UNL     1      41.180 -13.245   1.673  1.00  0.00     0.165 A 
HETATM    5  N   UNL     1      42.466 -13.374   1.953  1.00  0.00    -0.128 NA
HETATM    6  N   UNL     1      42.664 -13.039   3.268  1.00  0.00    -0.122 NA
BRANCH   3   7
HETATM    7  C   UNL     1      39.127 -12.471   2.938  1.00  0.00     0.128 C 
HETATM    8  C   UNL     1      38.835 -11.021   2.585  1.00  0.00     0.027 C 
ENDBRANCH   3   7
BRANCH   4   9
HETATM    9  C   UNL     1      40.572 -13.475   0.361  1.00  0.00     0.018 A 
HETATM   10  C   UNL     1      40.520 -12.453  -0.613  1.00  0.00    -0.048 A 
HETATM   11  C   UNL     1      41.114 -11.092  -0.367  1.00  0.00     0.049 C 
HETATM   12  C   UNL     1      39.932 -12.722  -1.861  1.00  0.00     0.007 A 
HETATM   13  C   UNL     1      39.400 -13.980  -2.144  1.00  0.00     0.001 A 
HETATM   14  C   UNL     1      39.463 -14.991  -1.191  1.00  0.00     0.001 A 
HETATM   15  C   UNL     1      40.052 -14.742   0.050  1.00  0.00     0.016 A 
ENDBRANCH   4   9
ENDBRANCH   1   2
BRANCH   1  16
HETATM   16  C   UNL     1      42.926 -11.726   5.874  1.00  0.00     0.185 C 
BRANCH  16  17
HETATM   17  C   UNL     1      43.503 -12.828   6.748  1.00  0.00     0.227 C 
HETATM   18  N   UNL     1      42.639 -13.872   7.009  1.00  0.00    -0.358 N 
HETATM   19  H   UNL     1      41.707 -13.863   6.613  1.00  0.00     0.162 HD
HETATM   20  O   UNL     1      44.653 -12.793   7.179  1.00  0.00    -0.273 OA
BRANCH  18  21
HETATM   21  C   UNL     1      43.054 -15.040   7.766  1.00  0.00     0.149 C 
BRANCH  21  22
HETATM   22  C   UNL     1      43.047 -16.335   6.948  1.00  0.00     0.195 C 
BRANCH  22  23
HETATM   23  O   UNL     1      42.018 -16.217   5.963  1.00  0.00    -0.350 OA
BRANCH  23  24
HETATM   24  C   UNL     1      42.265 -16.724   4.719  1.00  0.00     0.068 A 
HETATM   25  C   UNL     1      41.543 -16.449   3.557  1.00  0.00     0.037 A 
HETATM   26  C   UNL     1      41.922 -17.032   2.341  1.00  0.00     0.003 A 
HETATM   27  C   UNL     1      43.017 -17.894   2.284  1.00  0.00     0.000 A 
HETATM   28  C   UNL     1      43.739 -18.174   3.442  1.00  0.00     0.003 A 
HETATM   29  C   UNL     1      43.362 -17.589   4.651  1.00  0.00     0.037 A 
ENDBRANCH  23  24
ENDBRANCH  22  23
ENDBRANCH  21  22
ENDBRANCH  18  21
ENDBRANCH  16  17
ENDBRANCH   1  16
TORSDOF 9
ENDMDL
MODEL 7
REMARK VINA RESULT:      -7.5      2.278      3.415
REMARK  9 active torsions:
REMARK  status: ('A' for Active; 'I' for Inactive)
REMARK    1  A    between atoms: C_2  and  N_3 
REMARK    2  A    between atoms: C_4  and  S_5 
REMARK    3  A    between atoms: S_5  and  C_6 
REMARK    4  A    between atoms: C_6  and  C_7 
REMARK       I    between atoms: C_7  and  N_8 
REMARK    5  A    between atoms: N_8  and  C_9 
REMARK    6  A    between atoms: C_9  and  C_10 
REMARK    7  A    between atoms: C_10  and  O_11 
REMARK    8  A    between atoms: O_11  and  C_12 
REMARK    9  A    between atoms: C_21  and  C_22 
ROOT
HETATM    1  S   UNL     1      41.211 -11.714   6.007  1.00  0.00    -0.081 SA
ENDROOT
BRANCH   1   2
HETATM    2  C   UNL     1      41.217 -13.416   5.699  1.00  0.00     0.192 A 
HETATM    3  N   UNL     1      42.103 -14.054   4.871  1.00  0.00    -0.308 N 
HETATM    4  C   UNL     1      41.770 -15.394   4.934  1.00  0.00     0.165 A 
HETATM    5  N   UNL     1      40.742 -15.528   5.754  1.00  0.00    -0.128 NA
HETATM    6  N   UNL     1      40.392 -14.289   6.226  1.00  0.00    -0.122 NA
BRANCH   3   7
HETATM    7  C   UNL     1      43.216 -13.467   4.153  1.00  0.00     0.128 C 
HETATM    8  C   UNL     1      42.852 -13.032   2.741  1.00  0.00     0.027 C 
ENDBRANCH   3   7
BRANCH   4   9
HETATM    9  C   UNL     1      42.460 -16.492   4.254  1.00  0.00     0.018 A 
HETATM   10  C   UNL     1      42.100 -16.888   2.947  1.00  0.00    -0.048 A 
HETATM   11  C   UNL     1      41.018 -16.181   2.174  1.00  0.00     0.049 C 
HETATM   12  C   UNL     1      42.796 -17.943   2.331  1.00  0.00     0.007 A 
HETATM   13  C   UNL     1      43.829 -18.603   2.998  1.00  0.00     0.001 A 
HETATM   14  C   UNL     1      44.192 -18.205   4.280  1.00  0.00     0.001 A 
HETATM   15  C   UNL     1      43.518 -17.152   4.900  1.00  0.00     0.016 A 
ENDBRANCH   4   9
ENDBRANCH   1   2
BRANCH   1  16
HETATM   16  C   UNL     1      39.424 -11.387   5.945  1.00  0.00     0.185 C 
BRANCH  16  17
HETATM   17  C   UNL     1      39.083 -10.247   6.890  1.00  0.00     0.227 C 
HETATM   18  N   UNL     1      39.599 -10.378   8.164  1.00  0.00    -0.358 N 
HETATM   19  H   UNL     1      40.167 -11.184   8.395  1.00  0.00     0.162 HD
HETATM   20  O   UNL     1      38.407  -9.282   6.543  1.00  0.00    -0.273 OA
BRANCH  18  21
HETATM   21  C   UNL     1      39.430  -9.344   9.170  1.00  0.00     0.149 C 
BRANCH  21  22
HETATM   22  C   UNL     1      40.738  -8.648   9.559  1.00  0.00     0.195 C 
BRANCH  22  23
HETATM   23  O   UNL     1      41.576  -9.623  10.184  1.00  0.00    -0.350 OA
BRANCH  23  24
HETATM   24  C   UNL     1      42.920  -9.552   9.951  1.00  0.00     0.068 A 
HETATM   25  C   UNL     1      43.933  -9.763  10.887  1.00  0.00     0.037 A 
HETATM   26  C   UNL     1      45.276  -9.672  10.501  1.00  0.00     0.003 A 
HETATM   27  C   UNL     1      45.610  -9.365   9.182  1.00  0.00     0.000 A 
HETATM   28  C   UNL     1      44.603  -9.150   8.245  1.00  0.00     0.003 A 
HETATM   29  C   UNL     1      43.266  -9.245   8.630  1.00  0.00     0.037 A 
ENDBRANCH  23  24
ENDBRANCH  22  23
ENDBRANCH  21  22
ENDBRANCH  18  21
ENDBRANCH  16  17
ENDBRANCH   1  16
TORSDOF 9
ENDMDL
MODEL 8
REMARK VINA RESULT:      -7.5      2.337      3.528
REMARK  9 active torsions:
REMARK  status: ('A' for Active; 'I' for Inactive)
REMARK    1  A    between atoms: C_2  and  N_3 
REMARK    2  A    between atoms: C_4  and  S_5 
REMARK    3  A    between atoms: S_5  and  C_6 
REMARK    4  A    between atoms: C_6  and  C_7 
REMARK       I    between atoms: C_7  and  N_8 
REMARK    5  A    between atoms: N_8  and  C_9 
REMARK    6  A    between atoms: C_9  and  C_10 
REMARK    7  A    between atoms: C_10  and  O_11 
REMARK    8  A    between atoms: O_11  and  C_12 
REMARK    9  A    between atoms: C_21  and  C_22 
ROOT
HETATM    1  S   UNL     1      41.098 -11.388   5.834  1.00  0.00    -0.081 SA
ENDROOT
BRANCH   1   2
HETATM    2  C   UNL     1      41.095 -13.100   5.590  1.00  0.00     0.192 A 
HETATM    3  N   UNL     1      41.983 -13.774   4.793  1.00  0.00    -0.308 N 
HETATM    4  C   UNL     1      41.641 -15.109   4.903  1.00  0.00     0.165 A 
HETATM    5  N   UNL     1      40.607 -15.206   5.720  1.00  0.00    -0.128 NA
HETATM    6  N   UNL     1      40.261 -13.948   6.142  1.00  0.00    -0.122 NA
BRANCH   3   7
HETATM    7  C   UNL     1      43.104 -13.221   4.061  1.00  0.00     0.128 C 
HETATM    8  C   UNL     1      42.751 -12.826   2.636  1.00  0.00     0.027 C 
ENDBRANCH   3   7
BRANCH   4   9
HETATM    9  C   UNL     1      42.329 -16.236   4.270  1.00  0.00     0.018 A 
HETATM   10  C   UNL     1      41.964 -16.690   2.983  1.00  0.00    -0.048 A 
HETATM   11  C   UNL     1      40.878 -16.020   2.185  1.00  0.00     0.049 C 
HETATM   12  C   UNL     1      42.658 -17.771   2.413  1.00  0.00     0.007 A 
HETATM   13  C   UNL     1      43.695 -18.400   3.104  1.00  0.00     0.001 A 
HETATM   14  C   UNL     1      44.064 -17.944   4.365  1.00  0.00     0.001 A 
HETATM   15  C   UNL     1      43.391 -16.865   4.940  1.00  0.00     0.016 A 
ENDBRANCH   4   9
ENDBRANCH   1   2
BRANCH   1  16
HETATM   16  C   UNL     1      39.488 -11.183   6.653  1.00  0.00     0.185 C 
BRANCH  16  17
HETATM   17  C   UNL     1      39.568 -10.038   7.650  1.00  0.00     0.227 C 
HETATM   18  N   UNL     1      40.678 -10.061   8.470  1.00  0.00    -0.358 N 
HETATM   19  H   UNL     1      41.363 -10.799   8.366  1.00  0.00     0.162 HD
HETATM   20  O   UNL     1      38.714  -9.156   7.712  1.00  0.00    -0.273 OA
BRANCH  18  21
HETATM   21  C   UNL     1      40.946  -9.002   9.428  1.00  0.00     0.149 C 
BRANCH  21  22
HETATM   22  C   UNL     1      40.588  -9.375  10.870  1.00  0.00     0.195 C 
BRANCH  22  23
HETATM   23  O   UNL     1      41.812  -9.568  11.583  1.00  0.00    -0.350 OA
BRANCH  23  24
HETATM   24  C   UNL     1      41.980  -8.890  12.756  1.00  0.00     0.068 A 
HETATM   25  C   UNL     1      41.229  -9.057  13.921  1.00  0.00     0.037 A 
HETATM   26  C   UNL     1      41.525  -8.299  15.060  1.00  0.00     0.003 A 
HETATM   27  C   UNL     1      42.565  -7.370  15.038  1.00  0.00     0.000 A 
HETATM   28  C   UNL     1      43.315  -7.198  13.877  1.00  0.00     0.003 A 
HETATM   29  C   UNL     1      43.021  -7.956  12.744  1.00  0.00     0.037 A 
ENDBRANCH  23  24
ENDBRANCH  22  23
ENDBRANCH  21  22
ENDBRANCH  18  21
ENDBRANCH  16  17
ENDBRANCH   1  16
TORSDOF 9
ENDMDL
MODEL 9
REMARK VINA RESULT:      -7.4      1.584      2.419
REMARK  9 active torsions:
REMARK  status: ('A' for Active; 'I' for Inactive)
REMARK    1  A    between atoms: C_2  and  N_3 
REMARK    2  A    between atoms: C_4  and  S_5 
REMARK    3  A    between atoms: S_5  and  C_6 
REMARK    4  A    between atoms: C_6  and  C_7 
REMARK       I    between atoms: C_7  and  N_8 
REMARK    5  A    between atoms: N_8  and  C_9 
REMARK    6  A    between atoms: C_9  and  C_10 
REMARK    7  A    between atoms: C_10  and  O_11 
REMARK    8  A    between atoms: O_11  and  C_12 
REMARK    9  A    between atoms: C_21  and  C_22 
ROOT
HETATM    1  S   UNL     1      41.046 -12.010   6.385  1.00  0.00    -0.081 SA
ENDROOT
BRANCH   1   2
HETATM    2  C   UNL     1      41.880 -13.039   5.272  1.00  0.00     0.192 A 
HETATM    3  N   UNL     1      42.057 -14.387   5.442  1.00  0.00    -0.308 N 
HETATM    4  C   UNL     1      42.745 -14.815   4.322  1.00  0.00     0.165 A 
HETATM    5  N   UNL     1      42.958 -13.769   3.542  1.00  0.00    -0.128 NA
HETATM    6  N   UNL     1      42.424 -12.657   4.142  1.00  0.00    -0.122 NA
BRANCH   3   7
HETATM    7  C   UNL     1      41.550 -15.213   6.519  1.00  0.00     0.128 C 
HETATM    8  C   UNL     1      40.229 -15.886   6.184  1.00  0.00     0.027 C 
ENDBRANCH   3   7
BRANCH   4   9
HETATM    9  C   UNL     1      43.132 -16.193   4.014  1.00  0.00     0.018 A 
HETATM   10  C   UNL     1      42.596 -16.875   2.899  1.00  0.00    -0.048 A 
HETATM   11  C   UNL     1      41.631 -16.211   1.953  1.00  0.00     0.049 C 
HETATM   12  C   UNL     1      43.003 -18.195   2.640  1.00  0.00     0.007 A 
HETATM   13  C   UNL     1      43.922 -18.836   3.471  1.00  0.00     0.001 A 
HETATM   14  C   UNL     1      44.460 -18.161   4.561  1.00  0.00     0.001 A 
HETATM   15  C   UNL     1      44.074 -16.846   4.826  1.00  0.00     0.016 A 
ENDBRANCH   4   9
ENDBRANCH   1   2
BRANCH   1  16
HETATM   16  C   UNL     1      42.063 -10.509   6.251  1.00  0.00     0.185 C 
BRANCH  16  17
HETATM   17  C   UNL     1      43.286 -10.644   7.143  1.00  0.00     0.227 C 
HETATM   18  N   UNL     1      43.085 -10.284   8.460  1.00  0.00    -0.358 N 
HETATM   19  H   UNL     1      42.169  -9.973   8.761  1.00  0.00     0.162 HD
HETATM   20  O   UNL     1      44.367 -11.051   6.723  1.00  0.00    -0.273 OA
BRANCH  18  21
HETATM   21  C   UNL     1      44.128 -10.422   9.461  1.00  0.00     0.149 C 
BRANCH  21  22
HETATM   22  C   UNL     1      43.597 -10.763  10.857  1.00  0.00     0.195 C 
BRANCH  22  23
HETATM   23  O   UNL     1      42.478  -9.911  11.112  1.00  0.00    -0.350 OA
BRANCH  23  24
HETATM   24  C   UNL     1      42.492  -9.167  12.258  1.00  0.00     0.068 A 
HETATM   25  C   UNL     1      43.351  -8.105  12.541  1.00  0.00     0.037 A 
HETATM   26  C   UNL     1      43.241  -7.419  13.757  1.00  0.00     0.003 A 
HETATM   27  C   UNL     1      42.277  -7.794  14.693  1.00  0.00     0.000 A 
HETATM   28  C   UNL     1      41.419  -8.854  14.415  1.00  0.00     0.003 A 
HETATM   29  C   UNL     1      41.528  -9.535  13.202  1.00  0.00     0.037 A 
ENDBRANCH  23  24
ENDBRANCH  22  23
ENDBRANCH  21  22
ENDBRANCH  18  21
ENDBRANCH  16  17
ENDBRANCH   1  16
TORSDOF 9
ENDMDL
MODEL 10
REMARK VINA RESULT:      -7.3      2.924     10.556
REMARK  9 active torsions:
REMARK  status: ('A' for Active; 'I' for Inactive)
REMARK    1  A    between atoms: C_2  and  N_3 
REMARK    2  A    between atoms: C_4  and  S_5 
REMARK    3  A    between atoms: S_5  and  C_6 
REMARK    4  A    between atoms: C_6  and  C_7 
REMARK       I    between atoms: C_7  and  N_8 
REMARK    5  A    between atoms: N_8  and  C_9 
REMARK    6  A    between atoms: C_9  and  C_10 
REMARK    7  A    between atoms: C_10  and  O_11 
REMARK    8  A    between atoms: O_11  and  C_12 
REMARK    9  A    between atoms: C_21  and  C_22 
ROOT
HETATM    1  S   UNL     1      44.727 -10.053   8.561  1.00  0.00    -0.081 SA
ENDROOT
BRANCH   1   2
HETATM    2  C   UNL     1      43.848  -9.970  10.048  1.00  0.00     0.192 A 
HETATM    3  N   UNL     1      42.940  -8.993  10.361  1.00  0.00    -0.308 N 
HETATM    4  C   UNL     1      42.462  -9.320  11.616  1.00  0.00     0.165 A 
HETATM    5  N   UNL     1      43.062 -10.428  12.013  1.00  0.00    -0.128 NA
HETATM    6  N   UNL     1      43.935 -10.829  11.034  1.00  0.00    -0.122 NA
BRANCH   3   7
HETATM    7  C   UNL     1      42.499  -7.898   9.520  1.00  0.00     0.128 C 
HETATM    8  C   UNL     1      43.243  -6.600   9.793  1.00  0.00     0.027 C 
ENDBRANCH   3   7
BRANCH   4   9
HETATM    9  C   UNL     1      41.431  -8.600  12.367  1.00  0.00     0.018 A 
HETATM   10  C   UNL     1      41.771  -7.685  13.388  1.00  0.00    -0.048 A 
HETATM   11  C   UNL     1      43.203  -7.376  13.732  1.00  0.00     0.049 C 
HETATM   12  C   UNL     1      40.746  -7.012  14.077  1.00  0.00     0.007 A 
HETATM   13  C   UNL     1      39.406  -7.241  13.767  1.00  0.00     0.001 A 
HETATM   14  C   UNL     1      39.071  -8.132  12.752  1.00  0.00     0.001 A 
HETATM   15  C   UNL     1      40.077  -8.800  12.052  1.00  0.00     0.016 A 
ENDBRANCH   4   9
ENDBRANCH   1   2
BRANCH   1  16
HETATM   16  C   UNL     1      43.474 -10.825   7.494  1.00  0.00     0.185 C 
BRANCH  16  17
HETATM   17  C   UNL     1      43.986 -12.169   7.001  1.00  0.00     0.227 C 
HETATM   18  N   UNL     1      43.044 -13.178   6.988  1.00  0.00    -0.358 N 
HETATM   19  H   UNL     1      42.095 -12.982   7.281  1.00  0.00     0.162 HD
HETATM   20  O   UNL     1      45.146 -12.338   6.635  1.00  0.00    -0.273 OA
BRANCH  18  21
HETATM   21  C   UNL     1      43.347 -14.503   6.477  1.00  0.00     0.149 C 
BRANCH  21  22
HETATM   22  C   UNL     1      42.958 -14.698   5.009  1.00  0.00     0.195 C 
BRANCH  22  23
HETATM   23  O   UNL     1      42.252 -15.937   4.909  1.00  0.00    -0.350 OA
BRANCH  23  24
HETATM   24  C   UNL     1      42.885 -16.984   4.303  1.00  0.00     0.068 A 
HETATM   25  C   UNL     1      43.876 -17.788   4.867  1.00  0.00     0.037 A 
HETATM   26  C   UNL     1      44.429 -18.842   4.129  1.00  0.00     0.003 A 
HETATM   27  C   UNL     1      43.997 -19.093   2.826  1.00  0.00     0.000 A 
HETATM   28  C   UNL     1      43.010 -18.291   2.258  1.00  0.00     0.003 A 
HETATM   29  C   UNL     1      42.458 -17.244   2.996  1.00  0.00     0.037 A 
ENDBRANCH  23  24
ENDBRANCH  22  23
ENDBRANCH  21  22
ENDBRANCH  18  21
ENDBRANCH  16  17
ENDBRANCH   1  16
TORSDOF 9
ENDMDL
