MODEL 1
REMARK VINA RESULT:      -9.6      0.000      0.000
REMARK  7 active torsions:
REMARK  status: ('A' for Active; 'I' for Inactive)
REMARK    1  A    between atoms: C_4  and  C_5 
REMARK    2  A    between atoms: C_9  and  C_10 
REMARK       I    between atoms: C_10  and  N_11 
REMARK    3  A    between atoms: N_11  and  N_12 
REMARK       I    between atoms: N_12  and  C_13 
REMARK    4  A    between atoms: C_13  and  C_14 
REMARK    5  A    between atoms: C_14  and  C_15 
REMARK    6  A    between atoms: C_15  and  N_16 
REMARK    7  A    between atoms: C_15  and  C_20 
REMARK       I    between atoms: N_16  and  C_17 
REMARK       I    between atoms: C_17  and  N_18 
ROOT
HETATM    1  N   UNL     1      44.058 -13.086   6.737  1.00  0.00    -0.267 N 
HETATM    2  C   UNL     1      43.718 -14.370   7.099  1.00  0.00     0.238 C 
HETATM    3  O   UNL     1      43.187 -14.640   8.177  1.00  0.00    -0.272 OA
HETATM    4  H   UNL     1      44.250 -12.836   5.760  1.00  0.00     0.190 HD
ENDROOT
BRANCH   1   5
HETATM    5  N   UNL     1      43.684 -12.059   7.612  1.00  0.00    -0.262 N 
HETATM    6  C   UNL     1      44.615 -11.133   8.028  1.00  0.00     0.288 C 
HETATM    7  O   UNL     1      45.748 -11.068   7.556  1.00  0.00    -0.264 OA
HETATM    8  H   UNL     1      42.778 -12.172   8.059  1.00  0.00     0.190 HD
BRANCH   6   9
HETATM    9  C   UNL     1      44.162 -10.245   9.066  1.00  0.00     0.121 A 
HETATM   10  N   UNL     1      44.161  -8.888   8.904  1.00  0.00    -0.272 N 
HETATM   11  N   UNL     1      43.734  -8.206   9.976  1.00  0.00    -0.174 NA
HETATM   12  H   UNL     1      44.456  -8.374   8.079  1.00  0.00     0.189 HD
HETATM   13  C   UNL     1      43.425  -9.149  10.882  1.00  0.00     0.089 A 
HETATM   14  C   UNL     1      43.679 -10.443  10.343  1.00  0.00     0.071 A 
BRANCH  13  15
HETATM   15  C   UNL     1      42.920  -8.806  12.217  1.00  0.00    -0.006 A 
HETATM   16  C   UNL     1      41.892  -9.548  12.818  1.00  0.00     0.014 A 
HETATM   17  C   UNL     1      41.427  -9.220  14.096  1.00  0.00     0.001 A 
HETATM   18  C   UNL     1      41.983  -8.148  14.788  1.00  0.00     0.000 A 
HETATM   19  C   UNL     1      43.001  -7.398  14.204  1.00  0.00     0.001 A 
HETATM   20  C   UNL     1      43.464  -7.725  12.926  1.00  0.00     0.014 A 
ENDBRANCH  13  15
ENDBRANCH   6   9
ENDBRANCH   1   5
BRANCH   2  21
HETATM   21  C   UNL     1      44.043 -15.426   6.077  1.00  0.00     0.134 C 
BRANCH  21  22
HETATM   22  C   UNL     1      42.759 -16.060   5.534  1.00  0.00     0.128 C 
BRANCH  22  23
HETATM   23  N   UNL     1      41.758 -15.169   4.946  1.00  0.00    -0.334 N 
HETATM   24  C   UNL     1      40.596 -14.765   5.514  1.00  0.00     0.314 C 
HETATM   25  N   UNL     1      39.953 -13.822   4.784  1.00  0.00    -0.352 N 
HETATM   26  O   UNL     1      40.109 -15.210   6.542  1.00  0.00    -0.248 OA
HETATM   27  H   UNL     1      40.505 -13.129   4.301  1.00  0.00     0.160 HD
HETATM   28  H   UNL     1      39.118 -13.461   5.231  1.00  0.00     0.160 HD
HETATM   29  H   UNL     1      42.022 -14.711   4.086  1.00  0.00     0.165 HD
ENDBRANCH  22  23
BRANCH  22  30
HETATM   30  C   UNL     1      43.089 -17.181   4.558  1.00  0.00    -0.035 A 
HETATM   31  C   UNL     1      42.610 -17.126   3.239  1.00  0.00     0.011 A 
HETATM   32  C   UNL     1      42.885 -18.158   2.339  1.00  0.00     0.024 A 
HETATM   33  C   UNL     1      43.640 -19.253   2.749  1.00  0.00     0.034 A 
HETATM   34 CL   UNL     1      43.976 -20.524   1.639  1.00  0.00    -0.084 Cl
HETATM   35  C   UNL     1      44.122 -19.327   4.053  1.00  0.00     0.024 A 
HETATM   36  C   UNL     1      43.845 -18.297   4.956  1.00  0.00     0.011 A 
ENDBRANCH  22  30
ENDBRANCH  21  22
ENDBRANCH   2  21
TORSDOF 7
ENDMDL
MODEL 2
REMARK VINA RESULT:      -9.4      3.780     10.800
REMARK  7 active torsions:
REMARK  status: ('A' for Active; 'I' for Inactive)
REMARK    1  A    between atoms: C_4  and  C_5 
REMARK    2  A    between atoms: C_9  and  C_10 
REMARK       I    between atoms: C_10  and  N_11 
REMARK    3  A    between atoms: N_11  and  N_12 
REMARK       I    between atoms: N_12  and  C_13 
REMARK    4  A    between atoms: C_13  and  C_14 
REMARK    5  A    between atoms: C_14  and  C_15 
REMARK    6  A    between atoms: C_15  and  N_16 
REMARK    7  A    between atoms: C_15  and  C_20 
REMARK       I    between atoms: N_16  and  C_17 
REMARK       I    between atoms: C_17  and  N_18 
ROOT
HETATM    1  N   UNL     1      42.704 -11.584   7.300  1.00  0.00    -0.267 N 
HETATM    2  C   UNL     1      42.446 -10.341   6.766  1.00  0.00     0.238 C 
HETATM    3  O   UNL     1      42.250 -10.160   5.564  1.00  0.00    -0.272 OA
HETATM    4  H   UNL     1      42.606 -11.768   8.306  1.00  0.00     0.190 HD
ENDROOT
BRANCH   1   5
HETATM    5  N   UNL     1      42.639 -12.675   6.426  1.00  0.00    -0.262 N 
HETATM    6  C   UNL     1      43.102 -13.910   6.828  1.00  0.00     0.288 C 
HETATM    7  O   UNL     1      43.447 -14.148   7.982  1.00  0.00    -0.264 OA
HETATM    8  H   UNL     1      42.435 -12.450   5.456  1.00  0.00     0.190 HD
BRANCH   6   9
HETATM    9  C   UNL     1      43.156 -14.902   5.787  1.00  0.00     0.121 A 
HETATM   10  N   UNL     1      42.878 -14.596   4.485  1.00  0.00    -0.272 N 
HETATM   11  N   UNL     1      42.949 -15.640   3.647  1.00  0.00    -0.174 NA
HETATM   12  H   UNL     1      42.621 -13.685   4.116  1.00  0.00     0.189 HD
HETATM   13  C   UNL     1      43.301 -16.679   4.423  1.00  0.00     0.089 A 
HETATM   14  C   UNL     1      43.444 -16.252   5.774  1.00  0.00     0.071 A 
BRANCH  13  15
HETATM   15  C   UNL     1      43.478 -18.031   3.876  1.00  0.00    -0.006 A 
HETATM   16  C   UNL     1      43.942 -19.085   4.677  1.00  0.00     0.014 A 
HETATM   17  C   UNL     1      44.094 -20.370   4.149  1.00  0.00     0.001 A 
HETATM   18  C   UNL     1      43.783 -20.619   2.815  1.00  0.00     0.000 A 
HETATM   19  C   UNL     1      43.325 -19.584   2.005  1.00  0.00     0.001 A 
HETATM   20  C   UNL     1      43.175 -18.298   2.532  1.00  0.00     0.014 A 
ENDBRANCH  13  15
ENDBRANCH   6   9
ENDBRANCH   1   5
BRANCH   2  21
HETATM   21  C   UNL     1      42.420  -9.213   7.763  1.00  0.00     0.134 C 
BRANCH  21  22
HETATM   22  C   UNL     1      43.500  -9.416   8.830  1.00  0.00     0.128 C 
BRANCH  22  23
HETATM   23  N   UNL     1      44.883  -9.115   8.462  1.00  0.00    -0.334 N 
HETATM   24  C   UNL     1      45.821  -9.997   8.034  1.00  0.00     0.314 C 
HETATM   25  N   UNL     1      46.963  -9.394   7.627  1.00  0.00    -0.352 N 
HETATM   26  O   UNL     1      45.716 -11.213   8.047  1.00  0.00    -0.248 OA
HETATM   27  H   UNL     1      46.895  -8.511   7.144  1.00  0.00     0.160 HD
HETATM   28  H   UNL     1      47.646 -10.035   7.241  1.00  0.00     0.160 HD
HETATM   29  H   UNL     1      45.123  -8.137   8.398  1.00  0.00     0.165 HD
ENDBRANCH  22  23
BRANCH  22  30
HETATM   30  C   UNL     1      43.133  -8.673  10.108  1.00  0.00    -0.035 A 
HETATM   31  C   UNL     1      43.860  -8.904  11.287  1.00  0.00     0.011 A 
HETATM   32  C   UNL     1      43.521  -8.247  12.472  1.00  0.00     0.024 A 
HETATM   33  C   UNL     1      42.453  -7.355  12.489  1.00  0.00     0.034 A 
HETATM   34 CL   UNL     1      42.035  -6.550  13.951  1.00  0.00    -0.084 Cl
HETATM   35  C   UNL     1      41.718  -7.115  11.331  1.00  0.00     0.024 A 
HETATM   36  C   UNL     1      42.054  -7.773  10.145  1.00  0.00     0.011 A 
ENDBRANCH  22  30
ENDBRANCH  21  22
ENDBRANCH   2  21
TORSDOF 7
ENDMDL
MODEL 3
REMARK VINA RESULT:      -9.2      3.990     10.432
REMARK  7 active torsions:
REMARK  status: ('A' for Active; 'I' for Inactive)
REMARK    1  A    between atoms: C_4  and  C_5 
REMARK    2  A    between atoms: C_9  and  C_10 
REMARK       I    between atoms: C_10  and  N_11 
REMARK    3  A    between atoms: N_11  and  N_12 
REMARK       I    between atoms: N_12  and  C_13 
REMARK    4  A    between atoms: C_13  and  C_14 
REMARK    5  A    between atoms: C_14  and  C_15 
REMARK    6  A    between atoms: C_15  and  N_16 
REMARK    7  A    between atoms: C_15  and  C_20 
REMARK       I    between atoms: N_16  and  C_17 
REMARK       I    between atoms: C_17  and  N_18 
ROOT
HETATM    1  N   UNL     1      43.822 -11.019   6.276  1.00  0.00    -0.267 N 
HETATM    2  C   UNL     1      44.064 -10.705   7.595  1.00  0.00     0.238 C 
HETATM    3  O   UNL     1      44.345 -11.556   8.440  1.00  0.00    -0.272 OA
HETATM    4  H   UNL     1      43.850 -10.303   5.539  1.00  0.00     0.190 HD
ENDROOT
BRANCH   1   5
HETATM    5  N   UNL     1      44.003 -12.354   5.897  1.00  0.00    -0.262 N 
HETATM    6  C   UNL     1      42.925 -13.210   5.845  1.00  0.00     0.288 C 
HETATM    7  O   UNL     1      41.765 -12.829   5.980  1.00  0.00    -0.264 OA
HETATM    8  H   UNL     1      44.967 -12.676   5.873  1.00  0.00     0.190 HD
BRANCH   6   9
HETATM    9  C   UNL     1      43.261 -14.592   5.627  1.00  0.00     0.121 A 
HETATM   10  N   UNL     1      44.026 -15.296   6.513  1.00  0.00    -0.272 N 
HETATM   11  N   UNL     1      44.267 -16.563   6.147  1.00  0.00    -0.174 NA
HETATM   12  H   UNL     1      44.420 -14.952   7.384  1.00  0.00     0.189 HD
HETATM   13  C   UNL     1      43.626 -16.710   4.976  1.00  0.00     0.089 A 
HETATM   14  C   UNL     1      42.979 -15.492   4.619  1.00  0.00     0.071 A 
BRANCH  13  15
HETATM   15  C   UNL     1      43.652 -17.974   4.230  1.00  0.00    -0.006 A 
HETATM   16  C   UNL     1      44.073 -19.168   4.837  1.00  0.00     0.014 A 
HETATM   17  C   UNL     1      44.082 -20.369   4.121  1.00  0.00     0.001 A 
HETATM   18  C   UNL     1      43.670 -20.393   2.791  1.00  0.00     0.000 A 
HETATM   19  C   UNL     1      43.253 -19.217   2.173  1.00  0.00     0.001 A 
HETATM   20  C   UNL     1      43.246 -18.016   2.887  1.00  0.00     0.014 A 
ENDBRANCH  13  15
ENDBRANCH   6   9
ENDBRANCH   1   5
BRANCH   2  21
HETATM   21  C   UNL     1      43.962  -9.242   7.930  1.00  0.00     0.134 C 
BRANCH  21  22
HETATM   22  C   UNL     1      42.576  -8.917   8.494  1.00  0.00     0.128 C 
BRANCH  22  23
HETATM   23  N   UNL     1      41.527  -9.924   8.340  1.00  0.00    -0.334 N 
HETATM   24  C   UNL     1      40.427  -9.838   7.551  1.00  0.00     0.314 C 
HETATM   25  N   UNL     1      39.720 -10.992   7.507  1.00  0.00    -0.352 N 
HETATM   26  O   UNL     1      40.042  -8.836   6.968  1.00  0.00    -0.248 OA
HETATM   27  H   UNL     1      40.225 -11.866   7.514  1.00  0.00     0.160 HD
HETATM   28  H   UNL     1      38.934 -10.963   6.867  1.00  0.00     0.160 HD
HETATM   29  H   UNL     1      41.707 -10.822   8.764  1.00  0.00     0.165 HD
ENDBRANCH  22  23
BRANCH  22  30
HETATM   30  C   UNL     1      42.680  -8.499   9.955  1.00  0.00    -0.035 A 
HETATM   31  C   UNL     1      42.333  -7.193  10.338  1.00  0.00     0.011 A 
HETATM   32  C   UNL     1      42.445  -6.788  11.670  1.00  0.00     0.024 A 
HETATM   33  C   UNL     1      42.904  -7.685  12.630  1.00  0.00     0.034 A 
HETATM   34 CL   UNL     1      43.044  -7.184  14.270  1.00  0.00    -0.084 Cl
HETATM   35  C   UNL     1      43.255  -8.983  12.271  1.00  0.00     0.024 A 
HETATM   36  C   UNL     1      43.147  -9.388  10.938  1.00  0.00     0.011 A 
ENDBRANCH  22  30
ENDBRANCH  21  22
ENDBRANCH   2  21
TORSDOF 7
ENDMDL
MODEL 4
REMARK VINA RESULT:      -9.2      4.428     10.838
REMARK  7 active torsions:
REMARK  status: ('A' for Active; 'I' for Inactive)
REMARK    1  A    between atoms: C_4  and  C_5 
REMARK    2  A    between atoms: C_9  and  C_10 
REMARK       I    between atoms: C_10  and  N_11 
REMARK    3  A    between atoms: N_11  and  N_12 
REMARK       I    between atoms: N_12  and  C_13 
REMARK    4  A    between atoms: C_13  and  C_14 
REMARK    5  A    between atoms: C_14  and  C_15 
REMARK    6  A    between atoms: C_15  and  N_16 
REMARK    7  A    between atoms: C_15  and  C_20 
REMARK       I    between atoms: N_16  and  C_17 
REMARK       I    between atoms: C_17  and  N_18 
ROOT
HETATM    1  N   UNL     1      43.325 -10.364   8.616  1.00  0.00    -0.267 N 
HETATM    2  C   UNL     1      43.468 -10.235   9.980  1.00  0.00     0.238 C 
HETATM    3  O   UNL     1      43.672 -11.197  10.721  1.00  0.00    -0.272 OA
HETATM    4  H   UNL     1      43.418  -9.557   7.987  1.00  0.00     0.190 HD
ENDROOT
BRANCH   1   5
HETATM    5  N   UNL     1      43.519 -11.640   8.075  1.00  0.00    -0.262 N 
HETATM    6  C   UNL     1      43.020 -11.944   6.827  1.00  0.00     0.288 C 
HETATM    7  O   UNL     1      42.524 -11.101   6.084  1.00  0.00    -0.264 OA
HETATM    8  H   UNL     1      43.850 -12.347   8.726  1.00  0.00     0.190 HD
BRANCH   6   9
HETATM    9  C   UNL     1      43.117 -13.332   6.459  1.00  0.00     0.121 A 
HETATM   10  N   UNL     1      43.088 -14.328   7.394  1.00  0.00    -0.272 N 
HETATM   11  N   UNL     1      43.217 -15.562   6.886  1.00  0.00    -0.174 NA
HETATM   12  H   UNL     1      42.992 -14.217   8.399  1.00  0.00     0.189 HD
HETATM   13  C   UNL     1      43.323 -15.379   5.559  1.00  0.00     0.089 A 
HETATM   14  C   UNL     1      43.261 -13.989   5.254  1.00  0.00     0.071 A 
BRANCH  13  15
HETATM   15  C   UNL     1      43.491 -16.504   4.631  1.00  0.00    -0.006 A 
HETATM   16  C   UNL     1      44.198 -17.657   5.007  1.00  0.00     0.014 A 
HETATM   17  C   UNL     1      44.340 -18.728   4.119  1.00  0.00     0.001 A 
HETATM   18  C   UNL     1      43.778 -18.662   2.848  1.00  0.00     0.000 A 
HETATM   19  C   UNL     1      43.076 -17.524   2.458  1.00  0.00     0.001 A 
HETATM   20  C   UNL     1      42.936 -16.452   3.344  1.00  0.00     0.014 A 
ENDBRANCH  13  15
ENDBRANCH   6   9
ENDBRANCH   1   5
BRANCH   2  21
HETATM   21  C   UNL     1      43.358  -8.828  10.502  1.00  0.00     0.134 C 
BRANCH  21  22
HETATM   22  C   UNL     1      41.959  -8.576  11.072  1.00  0.00     0.128 C 
BRANCH  22  23
HETATM   23  N   UNL     1      40.959  -9.631  10.909  1.00  0.00    -0.334 N 
HETATM   24  C   UNL     1      39.693  -9.486  10.446  1.00  0.00     0.314 C 
HETATM   25  N   UNL     1      39.059 -10.670  10.269  1.00  0.00    -0.352 N 
HETATM   26  O   UNL     1      39.121  -8.426  10.246  1.00  0.00    -0.248 OA
HETATM   27  H   UNL     1      39.595 -11.457   9.934  1.00  0.00     0.160 HD
HETATM   28  H   UNL     1      38.137 -10.580   9.858  1.00  0.00     0.160 HD
HETATM   29  H   UNL     1      41.287 -10.577  11.033  1.00  0.00     0.165 HD
ENDBRANCH  22  23
BRANCH  22  30
HETATM   30  C   UNL     1      42.046  -8.169  12.537  1.00  0.00    -0.035 A 
HETATM   31  C   UNL     1      40.972  -8.431  13.402  1.00  0.00     0.011 A 
HETATM   32  C   UNL     1      41.027  -8.043  14.743  1.00  0.00     0.024 A 
HETATM   33  C   UNL     1      42.156  -7.390  15.229  1.00  0.00     0.034 A 
HETATM   34 CL   UNL     1      42.221  -6.910  16.880  1.00  0.00    -0.084 Cl
HETATM   35  C   UNL     1      43.230  -7.119  14.386  1.00  0.00     0.024 A 
HETATM   36  C   UNL     1      43.174  -7.503  13.044  1.00  0.00     0.011 A 
ENDBRANCH  22  30
ENDBRANCH  21  22
ENDBRANCH   2  21
TORSDOF 7
ENDMDL
MODEL 5
REMARK VINA RESULT:      -9.2      2.063      2.551
REMARK  7 active torsions:
REMARK  status: ('A' for Active; 'I' for Inactive)
REMARK    1  A    between atoms: C_4  and  C_5 
REMARK    2  A    between atoms: C_9  and  C_10 
REMARK       I    between atoms: C_10  and  N_11 
REMARK    3  A    between atoms: N_11  and  N_12 
REMARK       I    between atoms: N_12  and  C_13 
REMARK    4  A    between atoms: C_13  and  C_14 
REMARK    5  A    between atoms: C_14  and  C_15 
REMARK    6  A    between atoms: C_15  and  N_16 
REMARK    7  A    between atoms: C_15  and  C_20 
REMARK       I    between atoms: N_16  and  C_17 
REMARK       I    between atoms: C_17  and  N_18 
ROOT
HETATM    1  N   UNL     1      42.924 -12.385   5.071  1.00  0.00    -0.267 N 
HETATM    2  C   UNL     1      43.415 -12.243   3.793  1.00  0.00     0.238 C 
HETATM    3  O   UNL     1      43.985 -11.221   3.409  1.00  0.00    -0.272 OA
HETATM    4  H   UNL     1      42.694 -13.308   5.459  1.00  0.00     0.190 HD
ENDROOT
BRANCH   1   5
HETATM    5  N   UNL     1      43.183 -11.345   5.971  1.00  0.00    -0.262 N 
HETATM    6  C   UNL     1      44.060 -11.538   7.016  1.00  0.00     0.288 C 
HETATM    7  O   UNL     1      44.751 -12.547   7.128  1.00  0.00    -0.264 OA
HETATM    8  H   UNL     1      42.549 -10.553   5.920  1.00  0.00     0.190 HD
BRANCH   6   9
HETATM    9  C   UNL     1      44.102 -10.466   7.975  1.00  0.00     0.121 A 
HETATM   10  N   UNL     1      45.141  -9.580   8.021  1.00  0.00    -0.272 N 
HETATM   11  N   UNL     1      45.037  -8.660   8.990  1.00  0.00    -0.174 NA
HETATM   12  H   UNL     1      45.957  -9.568   7.415  1.00  0.00     0.189 HD
HETATM   13  C   UNL     1      43.875  -8.937   9.604  1.00  0.00     0.089 A 
HETATM   14  C   UNL     1      43.258 -10.065   8.991  1.00  0.00     0.071 A 
BRANCH  13  15
HETATM   15  C   UNL     1      43.394  -8.150  10.746  1.00  0.00    -0.006 A 
HETATM   16  C   UNL     1      43.610  -8.575  12.066  1.00  0.00     0.014 A 
HETATM   17  C   UNL     1      43.159  -7.809  13.146  1.00  0.00     0.001 A 
HETATM   18  C   UNL     1      42.487  -6.611  12.921  1.00  0.00     0.000 A 
HETATM   19  C   UNL     1      42.261  -6.177  11.618  1.00  0.00     0.001 A 
HETATM   20  C   UNL     1      42.710  -6.942  10.538  1.00  0.00     0.014 A 
ENDBRANCH  13  15
ENDBRANCH   6   9
ENDBRANCH   1   5
BRANCH   2  21
HETATM   21  C   UNL     1      43.206 -13.432   2.895  1.00  0.00     0.134 C 
BRANCH  21  22
HETATM   22  C   UNL     1      42.154 -14.374   3.488  1.00  0.00     0.128 C 
BRANCH  22  23
HETATM   23  N   UNL     1      40.783 -14.259   2.991  1.00  0.00    -0.334 N 
HETATM   24  C   UNL     1      39.843 -13.370   3.397  1.00  0.00     0.314 C 
HETATM   25  N   UNL     1      38.718 -13.414   2.644  1.00  0.00    -0.352 N 
HETATM   26  O   UNL     1      39.930 -12.627   4.362  1.00  0.00    -0.248 OA
HETATM   27  H   UNL     1      38.808 -13.581   1.653  1.00  0.00     0.160 HD
HETATM   28  H   UNL     1      38.034 -12.708   2.893  1.00  0.00     0.160 HD
HETATM   29  H   UNL     1      40.557 -14.812   2.177  1.00  0.00     0.165 HD
ENDBRANCH  22  23
BRANCH  22  30
HETATM   30  C   UNL     1      42.618 -15.821   3.392  1.00  0.00    -0.035 A 
HETATM   31  C   UNL     1      43.404 -16.374   4.416  1.00  0.00     0.011 A 
HETATM   32  C   UNL     1      43.858 -17.693   4.331  1.00  0.00     0.024 A 
HETATM   33  C   UNL     1      43.529 -18.469   3.223  1.00  0.00     0.034 A 
HETATM   34 CL   UNL     1      44.091 -20.092   3.119  1.00  0.00    -0.084 Cl
HETATM   35  C   UNL     1      42.753 -17.937   2.196  1.00  0.00     0.024 A 
HETATM   36  C   UNL     1      42.302 -16.617   2.278  1.00  0.00     0.011 A 
ENDBRANCH  22  30
ENDBRANCH  21  22
ENDBRANCH   2  21
TORSDOF 7
ENDMDL
MODEL 6
REMARK VINA RESULT:      -9.0      1.967      2.269
REMARK  7 active torsions:
REMARK  status: ('A' for Active; 'I' for Inactive)
REMARK    1  A    between atoms: C_4  and  C_5 
REMARK    2  A    between atoms: C_9  and  C_10 
REMARK       I    between atoms: C_10  and  N_11 
REMARK    3  A    between atoms: N_11  and  N_12 
REMARK       I    between atoms: N_12  and  C_13 
REMARK    4  A    between atoms: C_13  and  C_14 
REMARK    5  A    between atoms: C_14  and  C_15 
REMARK    6  A    between atoms: C_15  and  N_16 
REMARK    7  A    between atoms: C_15  and  C_20 
REMARK       I    between atoms: N_16  and  C_17 
REMARK       I    between atoms: C_17  and  N_18 
ROOT
HETATM    1  N   UNL     1      43.588 -12.345   6.327  1.00  0.00    -0.267 N 
HETATM    2  C   UNL     1      42.513 -12.867   5.644  1.00  0.00     0.238 C 
HETATM    3  O   UNL     1      41.348 -12.705   6.012  1.00  0.00    -0.272 OA
HETATM    4  H   UNL     1      44.513 -12.256   5.888  1.00  0.00     0.190 HD
ENDROOT
BRANCH   1   5
HETATM    5  N   UNL     1      43.305 -11.524   7.425  1.00  0.00    -0.262 N 
HETATM    6  C   UNL     1      44.325 -11.091   8.245  1.00  0.00     0.288 C 
HETATM    7  O   UNL     1      45.512 -11.271   7.984  1.00  0.00    -0.264 OA
HETATM    8  H   UNL     1      42.324 -11.454   7.679  1.00  0.00     0.190 HD
BRANCH   6   9
HETATM    9  C   UNL     1      43.894 -10.414   9.439  1.00  0.00     0.121 A 
HETATM   10  N   UNL     1      43.442 -11.098  10.531  1.00  0.00    -0.272 N 
HETATM   11  N   UNL     1      43.054 -10.316  11.549  1.00  0.00    -0.174 NA
HETATM   12  H   UNL     1      43.366 -12.107  10.629  1.00  0.00     0.189 HD
HETATM   13  C   UNL     1      43.271  -9.062  11.120  1.00  0.00     0.089 A 
HETATM   14  C   UNL     1      43.802  -9.084   9.798  1.00  0.00     0.071 A 
BRANCH  13  15
HETATM   15  C   UNL     1      42.962  -7.893  11.953  1.00  0.00    -0.006 A 
HETATM   16  C   UNL     1      42.400  -6.732  11.398  1.00  0.00     0.014 A 
HETATM   17  C   UNL     1      42.098  -5.630  12.204  1.00  0.00     0.001 A 
HETATM   18  C   UNL     1      42.352  -5.673  13.572  1.00  0.00     0.000 A 
HETATM   19  C   UNL     1      42.913  -6.815  14.137  1.00  0.00     0.001 A 
HETATM   20  C   UNL     1      43.218  -7.916  13.332  1.00  0.00     0.014 A 
ENDBRANCH  13  15
ENDBRANCH   6   9
ENDBRANCH   1   5
BRANCH   2  21
HETATM   21  C   UNL     1      42.863 -13.652   4.409  1.00  0.00     0.134 C 
BRANCH  21  22
HETATM   22  C   UNL     1      41.877 -14.806   4.210  1.00  0.00     0.128 C 
BRANCH  22  23
HETATM   23  N   UNL     1      41.106 -14.835   2.967  1.00  0.00    -0.334 N 
HETATM   24  C   UNL     1      40.064 -14.032   2.639  1.00  0.00     0.314 C 
HETATM   25  N   UNL     1      39.653 -14.199   1.360  1.00  0.00    -0.352 N 
HETATM   26  O   UNL     1      39.487 -13.264   3.394  1.00  0.00    -0.248 OA
HETATM   27  H   UNL     1      40.349 -14.378   0.651  1.00  0.00     0.160 HD
HETATM   28  H   UNL     1      38.920 -13.557   1.080  1.00  0.00     0.160 HD
HETATM   29  H   UNL     1      41.469 -15.424   2.233  1.00  0.00     0.165 HD
ENDBRANCH  22  23
BRANCH  22  30
HETATM   30  C   UNL     1      42.575 -16.145   4.415  1.00  0.00    -0.035 A 
HETATM   31  C   UNL     1      43.039 -16.870   3.305  1.00  0.00     0.011 A 
HETATM   32  C   UNL     1      43.660 -18.110   3.475  1.00  0.00     0.024 A 
HETATM   33  C   UNL     1      43.823 -18.634   4.754  1.00  0.00     0.034 A 
HETATM   34 CL   UNL     1      44.586 -20.162   4.962  1.00  0.00    -0.084 Cl
HETATM   35  C   UNL     1      43.368 -17.930   5.867  1.00  0.00     0.024 A 
HETATM   36  C   UNL     1      42.743 -16.692   5.698  1.00  0.00     0.011 A 
ENDBRANCH  22  30
ENDBRANCH  21  22
ENDBRANCH   2  21
TORSDOF 7
ENDMDL
MODEL 7
REMARK VINA RESULT:      -8.8      3.946      9.888
REMARK  7 active torsions:
REMARK  status: ('A' for Active; 'I' for Inactive)
REMARK    1  A    between atoms: C_4  and  C_5 
REMARK    2  A    between atoms: C_9  and  C_10 
REMARK       I    between atoms: C_10  and  N_11 
REMARK    3  A    between atoms: N_11  and  N_12 
REMARK       I    between atoms: N_12  and  C_13 
REMARK    4  A    between atoms: C_13  and  C_14 
REMARK    5  A    between atoms: C_14  and  C_15 
REMARK    6  A    between atoms: C_15  and  N_16 
REMARK    7  A    between atoms: C_15  and  C_20 
REMARK       I    between atoms: N_16  and  C_17 
REMARK       I    between atoms: C_17  and  N_18 
ROOT
HETATM    1  N   UNL     1      40.526 -10.470   7.082  1.00  0.00    -0.267 N 
HETATM    2  C   UNL     1      39.465 -10.273   7.937  1.00  0.00     0.238 C 
HETATM    3  O   UNL     1      38.601 -11.129   8.135  1.00  0.00    -0.272 OA
HETATM    4  H   UNL     1      41.364  -9.877   7.120  1.00  0.00     0.190 HD
ENDROOT
BRANCH   1   5
HETATM    5  N   UNL     1      40.649 -11.739   6.504  1.00  0.00    -0.262 N 
HETATM    6  C   UNL     1      41.897 -12.261   6.244  1.00  0.00     0.288 C 
HETATM    7  O   UNL     1      42.935 -11.728   6.625  1.00  0.00    -0.264 OA
HETATM    8  H   UNL     1      39.794 -12.129   6.117  1.00  0.00     0.190 HD
BRANCH   6   9
HETATM    9  C   UNL     1      41.893 -13.482   5.481  1.00  0.00     0.121 A 
HETATM   10  N   UNL     1      40.785 -13.905   4.804  1.00  0.00    -0.272 N 
HETATM   11  N   UNL     1      40.942 -15.074   4.167  1.00  0.00    -0.174 NA
HETATM   12  H   UNL     1      39.886 -13.434   4.753  1.00  0.00     0.189 HD
HETATM   13  C   UNL     1      42.211 -15.436   4.421  1.00  0.00     0.089 A 
HETATM   14  C   UNL     1      42.841 -14.457   5.242  1.00  0.00     0.071 A 
BRANCH  13  15
HETATM   15  C   UNL     1      42.781 -16.685   3.900  1.00  0.00    -0.006 A 
HETATM   16  C   UNL     1      42.363 -17.217   2.671  1.00  0.00     0.014 A 
HETATM   17  C   UNL     1      42.922 -18.400   2.178  1.00  0.00     0.001 A 
HETATM   18  C   UNL     1      43.905 -19.065   2.906  1.00  0.00     0.000 A 
HETATM   19  C   UNL     1      44.327 -18.553   4.130  1.00  0.00     0.001 A 
HETATM   20  C   UNL     1      43.767 -17.371   4.624  1.00  0.00     0.014 A 
ENDBRANCH  13  15
ENDBRANCH   6   9
ENDBRANCH   1   5
BRANCH   2  21
HETATM   21  C   UNL     1      39.436  -8.931   8.618  1.00  0.00     0.134 C 
BRANCH  21  22
HETATM   22  C   UNL     1      40.225  -8.979   9.930  1.00  0.00     0.128 C 
BRANCH  22  23
HETATM   23  N   UNL     1      39.902 -10.046  10.878  1.00  0.00    -0.334 N 
HETATM   24  C   UNL     1      39.553  -9.898  12.179  1.00  0.00     0.314 C 
HETATM   25  N   UNL     1      39.169 -11.061  12.756  1.00  0.00    -0.352 N 
HETATM   26  O   UNL     1      39.612  -8.862  12.823  1.00  0.00    -0.248 OA
HETATM   27  H   UNL     1      38.646 -11.724  12.202  1.00  0.00     0.160 HD
HETATM   28  H   UNL     1      38.839 -10.954  13.709  1.00  0.00     0.160 HD
HETATM   29  H   UNL     1      39.807 -10.972  10.489  1.00  0.00     0.165 HD
ENDBRANCH  22  23
BRANCH  22  30
HETATM   30  C   UNL     1      41.722  -8.971   9.652  1.00  0.00    -0.035 A 
HETATM   31  C   UNL     1      42.281  -7.961   8.851  1.00  0.00     0.011 A 
HETATM   32  C   UNL     1      43.648  -7.953   8.568  1.00  0.00     0.024 A 
HETATM   33  C   UNL     1      44.469  -8.952   9.083  1.00  0.00     0.034 A 
HETATM   34 CL   UNL     1      46.153  -8.942   8.731  1.00  0.00    -0.084 Cl
HETATM   35  C   UNL     1      43.933  -9.963   9.877  1.00  0.00     0.024 A 
HETATM   36  C   UNL     1      42.565  -9.974  10.158  1.00  0.00     0.011 A 
ENDBRANCH  22  30
ENDBRANCH  21  22
ENDBRANCH   2  21
TORSDOF 7
ENDMDL
MODEL 8
REMARK VINA RESULT:      -8.7      4.566     11.029
REMARK  7 active torsions:
REMARK  status: ('A' for Active; 'I' for Inactive)
REMARK    1  A    between atoms: C_4  and  C_5 
REMARK    2  A    between atoms: C_9  and  C_10 
REMARK       I    between atoms: C_10  and  N_11 
REMARK    3  A    between atoms: N_11  and  N_12 
REMARK       I    between atoms: N_12  and  C_13 
REMARK    4  A    between atoms: C_13  and  C_14 
REMARK    5  A    between atoms: C_14  and  C_15 
REMARK    6  A    between atoms: C_15  and  N_16 
REMARK    7  A    between atoms: C_15  and  C_20 
REMARK       I    between atoms: N_16  and  C_17 
REMARK       I    between atoms: C_17  and  N_18 
ROOT
HETATM    1  N   UNL     1      43.469 -10.401   8.501  1.00  0.00    -0.267 N 
HETATM    2  C   UNL     1      43.728 -10.266   9.846  1.00  0.00     0.238 C 
HETATM    3  O   UNL     1      43.930 -11.231  10.585  1.00  0.00    -0.272 OA
HETATM    4  H   UNL     1      43.562  -9.609   7.853  1.00  0.00     0.190 HD
ENDROOT
BRANCH   1   5
HETATM    5  N   UNL     1      43.540 -11.693   7.966  1.00  0.00    -0.262 N 
HETATM    6  C   UNL     1      43.093 -11.936   6.686  1.00  0.00     0.288 C 
HETATM    7  O   UNL     1      42.757 -11.040   5.916  1.00  0.00    -0.264 OA
HETATM    8  H   UNL     1      43.735 -12.434   8.634  1.00  0.00     0.190 HD
BRANCH   6   9
HETATM    9  C   UNL     1      43.043 -13.326   6.318  1.00  0.00     0.121 A 
HETATM   10  N   UNL     1      42.699 -14.297   7.216  1.00  0.00    -0.272 N 
HETATM   11  N   UNL     1      42.727 -15.542   6.718  1.00  0.00    -0.174 NA
HETATM   12  H   UNL     1      42.446 -14.162   8.190  1.00  0.00     0.189 HD
HETATM   13  C   UNL     1      43.091 -15.390   5.434  1.00  0.00     0.089 A 
HETATM   14  C   UNL     1      43.295 -14.010   5.145  1.00  0.00     0.071 A 
BRANCH  13  15
HETATM   15  C   UNL     1      43.247 -16.537   4.531  1.00  0.00    -0.006 A 
HETATM   16  C   UNL     1      44.053 -17.632   4.878  1.00  0.00     0.014 A 
HETATM   17  C   UNL     1      44.184 -18.725   4.016  1.00  0.00     0.001 A 
HETATM   18  C   UNL     1      43.511 -18.739   2.798  1.00  0.00     0.000 A 
HETATM   19  C   UNL     1      42.710 -17.659   2.436  1.00  0.00     0.001 A 
HETATM   20  C   UNL     1      42.581 -16.565   3.296  1.00  0.00     0.014 A 
ENDBRANCH  13  15
ENDBRANCH   6   9
ENDBRANCH   1   5
BRANCH   2  21
HETATM   21  C   UNL     1      43.747  -8.849  10.352  1.00  0.00     0.134 C 
BRANCH  21  22
HETATM   22  C   UNL     1      42.354  -8.433  10.833  1.00  0.00     0.128 C 
BRANCH  22  23
HETATM   23  N   UNL     1      41.701  -9.276  11.834  1.00  0.00    -0.334 N 
HETATM   24  C   UNL     1      40.528  -9.942  11.695  1.00  0.00     0.314 C 
HETATM   25  N   UNL     1      40.259 -10.759  12.741  1.00  0.00    -0.352 N 
HETATM   26  O   UNL     1      39.737  -9.813  10.773  1.00  0.00    -0.248 OA
HETATM   27  H   UNL     1      41.026 -11.246  13.180  1.00  0.00     0.160 HD
HETATM   28  H   UNL     1      39.420 -11.314  12.619  1.00  0.00     0.160 HD
HETATM   29  H   UNL     1      42.241  -9.485  12.661  1.00  0.00     0.165 HD
ENDBRANCH  22  23
BRANCH  22  30
HETATM   30  C   UNL     1      42.364  -6.985  11.306  1.00  0.00    -0.035 A 
HETATM   31  C   UNL     1      42.612  -5.950  10.389  1.00  0.00     0.011 A 
HETATM   32  C   UNL     1      42.648  -4.619  10.812  1.00  0.00     0.024 A 
HETATM   33  C   UNL     1      42.436  -4.311  12.153  1.00  0.00     0.034 A 
HETATM   34 CL   UNL     1      42.483  -2.672  12.671  1.00  0.00    -0.084 Cl
HETATM   35  C   UNL     1      42.191  -5.324  13.077  1.00  0.00     0.024 A 
HETATM   36  C   UNL     1      42.159  -6.656  12.656  1.00  0.00     0.011 A 
ENDBRANCH  22  30
ENDBRANCH  21  22
ENDBRANCH   2  21
TORSDOF 7
ENDMDL
MODEL 9
REMARK VINA RESULT:      -8.4      5.916      9.640
REMARK  7 active torsions:
REMARK  status: ('A' for Active; 'I' for Inactive)
REMARK    1  A    between atoms: C_4  and  C_5 
REMARK    2  A    between atoms: C_9  and  C_10 
REMARK       I    between atoms: C_10  and  N_11 
REMARK    3  A    between atoms: N_11  and  N_12 
REMARK       I    between atoms: N_12  and  C_13 
REMARK    4  A    between atoms: C_13  and  C_14 
REMARK    5  A    between atoms: C_14  and  C_15 
REMARK    6  A    between atoms: C_15  and  N_16 
REMARK    7  A    between atoms: C_15  and  C_20 
REMARK       I    between atoms: N_16  and  C_17 
REMARK       I    between atoms: C_17  and  N_18 
ROOT
HETATM    1  N   UNL     1      39.688 -14.529   2.707  1.00  0.00    -0.267 N 
HETATM    2  C   UNL     1      40.795 -14.507   3.525  1.00  0.00     0.238 C 
HETATM    3  O   UNL     1      41.713 -13.698   3.382  1.00  0.00    -0.272 OA
HETATM    4  H   UNL     1      38.825 -15.014   2.983  1.00  0.00     0.190 HD
ENDROOT
BRANCH   1   5
HETATM    5  N   UNL     1      39.589 -13.518   1.744  1.00  0.00    -0.262 N 
HETATM    6  C   UNL     1      39.928 -13.777   0.434  1.00  0.00     0.288 C 
HETATM    7  O   UNL     1      40.185 -14.906   0.023  1.00  0.00    -0.264 OA
HETATM    8  H   UNL     1      39.461 -12.578   2.107  1.00  0.00     0.190 HD
BRANCH   6   9
HETATM    9  C   UNL     1      39.966 -12.620  -0.420  1.00  0.00     0.121 A 
HETATM   10  N   UNL     1      38.860 -12.189  -1.098  1.00  0.00    -0.272 N 
HETATM   11  N   UNL     1      39.073 -11.113  -1.869  1.00  0.00    -0.174 NA
HETATM   12  H   UNL     1      37.934 -12.604  -1.077  1.00  0.00     0.189 HD
HETATM   13  C   UNL     1      40.369 -10.809  -1.686  1.00  0.00     0.089 A 
HETATM   14  C   UNL     1      40.961 -11.733  -0.778  1.00  0.00     0.071 A 
BRANCH  13  15
HETATM   15  C   UNL     1      41.005  -9.679  -2.373  1.00  0.00    -0.006 A 
HETATM   16  C   UNL     1      40.677  -9.355  -3.699  1.00  0.00     0.014 A 
HETATM   17  C   UNL     1      41.280  -8.268  -4.339  1.00  0.00     0.001 A 
HETATM   18  C   UNL     1      42.217  -7.491  -3.664  1.00  0.00     0.000 A 
HETATM   19  C   UNL     1      42.558  -7.801  -2.350  1.00  0.00     0.001 A 
HETATM   20  C   UNL     1      41.957  -8.889  -1.710  1.00  0.00     0.014 A 
ENDBRANCH  13  15
ENDBRANCH   6   9
ENDBRANCH   1   5
BRANCH   2  21
HETATM   21  C   UNL     1      40.803 -15.546   4.614  1.00  0.00     0.134 C 
BRANCH  21  22
HETATM   22  C   UNL     1      42.241 -15.890   5.015  1.00  0.00     0.128 C 
BRANCH  22  23
HETATM   23  N   UNL     1      42.515 -16.112   6.435  1.00  0.00    -0.334 N 
HETATM   24  C   UNL     1      43.133 -15.257   7.287  1.00  0.00     0.314 C 
HETATM   25  N   UNL     1      43.106 -15.683   8.572  1.00  0.00    -0.352 N 
HETATM   26  O   UNL     1      43.714 -14.230   6.972  1.00  0.00    -0.248 OA
HETATM   27  H   UNL     1      42.280 -16.160   8.903  1.00  0.00     0.160 HD
HETATM   28  H   UNL     1      43.503 -15.021   9.228  1.00  0.00     0.160 HD
HETATM   29  H   UNL     1      42.088 -16.927   6.848  1.00  0.00     0.165 HD
ENDBRANCH  22  23
BRANCH  22  30
HETATM   30  C   UNL     1      42.754 -17.069   4.200  1.00  0.00    -0.035 A 
HETATM   31  C   UNL     1      42.315 -17.252   2.878  1.00  0.00     0.011 A 
HETATM   32  C   UNL     1      42.758 -18.341   2.125  1.00  0.00     0.024 A 
HETATM   33  C   UNL     1      43.643 -19.258   2.686  1.00  0.00     0.034 A 
HETATM   34 CL   UNL     1      44.186 -20.601   1.758  1.00  0.00    -0.084 Cl
HETATM   35  C   UNL     1      44.088 -19.095   3.996  1.00  0.00     0.024 A 
HETATM   36  C   UNL     1      43.642 -18.008   4.751  1.00  0.00     0.011 A 
ENDBRANCH  22  30
ENDBRANCH  21  22
ENDBRANCH   2  21
TORSDOF 7
ENDMDL
MODEL 10
REMARK VINA RESULT:      -8.1      2.841      3.259
REMARK  7 active torsions:
REMARK  status: ('A' for Active; 'I' for Inactive)
REMARK    1  A    between atoms: C_4  and  C_5 
REMARK    2  A    between atoms: C_9  and  C_10 
REMARK       I    between atoms: C_10  and  N_11 
REMARK    3  A    between atoms: N_11  and  N_12 
REMARK       I    between atoms: N_12  and  C_13 
REMARK    4  A    between atoms: C_13  and  C_14 
REMARK    5  A    between atoms: C_14  and  C_15 
REMARK    6  A    between atoms: C_15  and  N_16 
REMARK    7  A    between atoms: C_15  and  C_20 
REMARK       I    between atoms: N_16  and  C_17 
REMARK       I    between atoms: C_17  and  N_18 
ROOT
HETATM    1  N   UNL     1      42.919 -10.907   6.170  1.00  0.00    -0.267 N 
HETATM    2  C   UNL     1      43.997 -11.713   5.878  1.00  0.00     0.238 C 
HETATM    3  O   UNL     1      44.728 -12.186   6.749  1.00  0.00    -0.272 OA
HETATM    4  H   UNL     1      42.174 -10.736   5.483  1.00  0.00     0.190 HD
ENDROOT
BRANCH   1   5
HETATM    5  N   UNL     1      42.616 -10.716   7.523  1.00  0.00    -0.262 N 
HETATM    6  C   UNL     1      42.535  -9.441   8.039  1.00  0.00     0.288 C 
HETATM    7  O   UNL     1      42.576  -8.434   7.337  1.00  0.00    -0.264 OA
HETATM    8  H   UNL     1      42.669 -11.547   8.105  1.00  0.00     0.190 HD
BRANCH   6   9
HETATM    9  C   UNL     1      42.405  -9.377   9.470  1.00  0.00     0.121 A 
HETATM   10  N   UNL     1      42.915 -10.348  10.285  1.00  0.00    -0.272 N 
HETATM   11  N   UNL     1      42.683 -10.150  11.590  1.00  0.00    -0.174 NA
HETATM   12  H   UNL     1      43.423 -11.179   9.996  1.00  0.00     0.189 HD
HETATM   13  C   UNL     1      42.003  -8.992  11.646  1.00  0.00     0.089 A 
HETATM   14  C   UNL     1      41.812  -8.476  10.332  1.00  0.00     0.071 A 
BRANCH  13  15
HETATM   15  C   UNL     1      41.547  -8.421  12.920  1.00  0.00    -0.006 A 
HETATM   16  C   UNL     1      42.093  -8.842  14.142  1.00  0.00     0.014 A 
HETATM   17  C   UNL     1      41.660  -8.282  15.348  1.00  0.00     0.001 A 
HETATM   18  C   UNL     1      40.679  -7.295  15.348  1.00  0.00     0.000 A 
HETATM   19  C   UNL     1      40.124  -6.869  14.144  1.00  0.00     0.001 A 
HETATM   20  C   UNL     1      40.554  -7.430  12.939  1.00  0.00     0.014 A 
ENDBRANCH  13  15
ENDBRANCH   6   9
ENDBRANCH   1   5
BRANCH   2  21
HETATM   21  C   UNL     1      44.217 -11.977   4.413  1.00  0.00     0.134 C 
BRANCH  21  22
HETATM   22  C   UNL     1      42.920 -12.454   3.753  1.00  0.00     0.128 C 
BRANCH  22  23
HETATM   23  N   UNL     1      42.428 -11.702   2.599  1.00  0.00    -0.334 N 
HETATM   24  C   UNL     1      41.909 -10.449   2.607  1.00  0.00     0.314 C 
HETATM   25  N   UNL     1      41.682  -9.967   1.362  1.00  0.00    -0.352 N 
HETATM   26  O   UNL     1      41.610  -9.805   3.600  1.00  0.00    -0.248 OA
HETATM   27  H   UNL     1      42.335 -10.200   0.629  1.00  0.00     0.160 HD
HETATM   28  H   UNL     1      41.359  -9.006   1.351  1.00  0.00     0.160 HD
HETATM   29  H   UNL     1      42.612 -12.107   1.694  1.00  0.00     0.165 HD
ENDBRANCH  22  23
BRANCH  22  30
HETATM   30  C   UNL     1      43.013 -13.934   3.404  1.00  0.00    -0.035 A 
HETATM   31  C   UNL     1      43.236 -14.327   2.074  1.00  0.00     0.011 A 
HETATM   32  C   UNL     1      43.301 -15.680   1.733  1.00  0.00     0.024 A 
HETATM   33  C   UNL     1      43.144 -16.651   2.718  1.00  0.00     0.034 A 
HETATM   34 CL   UNL     1      43.222 -18.317   2.297  1.00  0.00    -0.084 Cl
HETATM   35  C   UNL     1      42.920 -16.281   4.042  1.00  0.00     0.024 A 
HETATM   36  C   UNL     1      42.852 -14.927   4.383  1.00  0.00     0.011 A 
ENDBRANCH  22  30
ENDBRANCH  21  22
ENDBRANCH   2  21
TORSDOF 7
ENDMDL
