MODEL 1
REMARK VINA RESULT:      -8.2      0.000      0.000
REMARK  3 active torsions:
REMARK  status: ('A' for Active; 'I' for Inactive)
REMARK       I    between atoms: N_2  and  C_3 
REMARK    1  A    between atoms: C_3  and  C_4 
REMARK    2  A    between atoms: C_7  and  N_8 
REMARK       I    between atoms: N_8  and  C_9 
REMARK    3  A    between atoms: C_9  and  C_10 
ROOT
HETATM    1  N   UNL     1      43.612 -13.598   5.982  1.00  0.00    -0.321 N 
HETATM    2  C   UNL     1      43.356 -14.785   6.645  1.00  0.00     0.280 C 
HETATM    3  O   UNL     1      43.085 -14.891   7.836  1.00  0.00    -0.265 OA
HETATM    4  H   UNL     1      43.794 -13.701   4.988  1.00  0.00     0.169 HD
ENDROOT
BRANCH   1   5
HETATM    5  C   UNL     1      43.691 -12.299   6.515  1.00  0.00     0.035 A 
HETATM    6  C   UNL     1      42.636 -11.383   6.499  1.00  0.00     0.030 A 
HETATM    7  C   UNL     1      42.778 -10.121   7.089  1.00  0.00     0.019 A 
HETATM    8  C   UNL     1      43.981  -9.763   7.704  1.00  0.00     0.032 A 
HETATM    9  C   UNL     1      45.050 -10.662   7.695  1.00  0.00     0.019 A 
HETATM   10  C   UNL     1      44.903 -11.924   7.109  1.00  0.00     0.030 A 
BRANCH   8  11
HETATM   11  C   UNL     1      44.163  -8.444   8.366  1.00  0.00     0.251 C 
HETATM   12  N   UNL     1      43.041  -7.899   8.956  1.00  0.00    -0.361 N 
HETATM   13  C   UNL     1      43.136  -6.685   9.725  1.00  0.00     0.149 C 
HETATM   14  H   UNL     1      42.230  -8.486   9.095  1.00  0.00     0.162 HD
HETATM   15  O   UNL     1      45.271  -7.921   8.405  1.00  0.00    -0.268 OA
ENDBRANCH   8  11
ENDBRANCH   1   5
BRANCH   2  16
HETATM   16  C   UNL     1      43.449 -15.943   5.775  1.00  0.00     0.144 A 
HETATM   17  O   UNL     1      42.877 -15.898   4.528  1.00  0.00    -0.304 OA
HETATM   18  C   UNL     1      43.143 -17.088   3.923  1.00  0.00     0.086 A 
HETATM   19  C   UNL     1      43.876 -17.911   4.769  1.00  0.00     0.001 A 
HETATM   20  C   UNL     1      42.749 -17.446   2.636  1.00  0.00     0.038 A 
HETATM   21  C   UNL     1      44.063 -17.168   5.962  1.00  0.00     0.057 A 
HETATM   22  C   UNL     1      44.251 -19.186   4.311  1.00  0.00     0.014 A 
HETATM   23  C   UNL     1      43.871 -19.574   3.017  1.00  0.00     0.001 A 
HETATM   24  C   UNL     1      43.133 -18.717   2.196  1.00  0.00     0.003 A 
ENDBRANCH   2  16
TORSDOF 3
ENDMDL
MODEL 2
REMARK VINA RESULT:      -7.9      2.280      9.063
REMARK  3 active torsions:
REMARK  status: ('A' for Active; 'I' for Inactive)
REMARK       I    between atoms: N_2  and  C_3 
REMARK    1  A    between atoms: C_3  and  C_4 
REMARK    2  A    between atoms: C_7  and  N_8 
REMARK       I    between atoms: N_8  and  C_9 
REMARK    3  A    between atoms: C_9  and  C_10 
ROOT
HETATM    1  N   UNL     1      43.363 -13.203   7.114  1.00  0.00    -0.321 N 
HETATM    2  C   UNL     1      44.284 -12.169   7.120  1.00  0.00     0.280 C 
HETATM    3  O   UNL     1      45.299 -12.115   6.435  1.00  0.00    -0.265 OA
HETATM    4  H   UNL     1      42.569 -13.064   7.731  1.00  0.00     0.169 HD
ENDROOT
BRANCH   1   5
HETATM    5  C   UNL     1      43.416 -14.414   6.401  1.00  0.00     0.035 A 
HETATM    6  C   UNL     1      42.975 -14.565   5.084  1.00  0.00     0.030 A 
HETATM    7  C   UNL     1      43.099 -15.796   4.427  1.00  0.00     0.019 A 
HETATM    8  C   UNL     1      43.670 -16.889   5.084  1.00  0.00     0.032 A 
HETATM    9  C   UNL     1      44.082 -16.754   6.412  1.00  0.00     0.019 A 
HETATM   10  C   UNL     1      43.960 -15.522   7.063  1.00  0.00     0.030 A 
BRANCH   8  11
HETATM   11  C   UNL     1      43.845 -18.205   4.413  1.00  0.00     0.251 C 
HETATM   12  N   UNL     1      44.062 -19.287   5.244  1.00  0.00    -0.361 N 
HETATM   13  C   UNL     1      44.124 -20.621   4.704  1.00  0.00     0.149 C 
HETATM   14  H   UNL     1      43.887 -19.183   6.234  1.00  0.00     0.162 HD
HETATM   15  O   UNL     1      43.751 -18.294   3.195  1.00  0.00    -0.268 OA
ENDBRANCH   8  11
ENDBRANCH   1   5
BRANCH   2  16
HETATM   16  C   UNL     1      43.935 -11.116   8.057  1.00  0.00     0.144 A 
HETATM   17  O   UNL     1      44.247 -11.264   9.385  1.00  0.00    -0.304 OA
HETATM   18  C   UNL     1      43.843 -10.129  10.020  1.00  0.00     0.086 A 
HETATM   19  C   UNL     1      43.262  -9.248   9.117  1.00  0.00     0.001 A 
HETATM   20  C   UNL     1      43.988  -9.870  11.381  1.00  0.00     0.038 A 
HETATM   21  C   UNL     1      43.320  -9.894   7.856  1.00  0.00     0.057 A 
HETATM   22  C   UNL     1      42.788  -8.012   9.591  1.00  0.00     0.014 A 
HETATM   23  C   UNL     1      42.923  -7.720  10.957  1.00  0.00     0.001 A 
HETATM   24  C   UNL     1      43.513  -8.634  11.834  1.00  0.00     0.003 A 
ENDBRANCH   2  16
TORSDOF 3
ENDMDL
MODEL 3
REMARK VINA RESULT:      -7.8      1.302      2.099
REMARK  3 active torsions:
REMARK  status: ('A' for Active; 'I' for Inactive)
REMARK       I    between atoms: N_2  and  C_3 
REMARK    1  A    between atoms: C_3  and  C_4 
REMARK    2  A    between atoms: C_7  and  N_8 
REMARK       I    between atoms: N_8  and  C_9 
REMARK    3  A    between atoms: C_9  and  C_10 
ROOT
HETATM    1  N   UNL     1      43.351 -14.427   5.522  1.00  0.00    -0.321 N 
HETATM    2  C   UNL     1      43.429 -15.643   6.178  1.00  0.00     0.280 C 
HETATM    3  O   UNL     1      43.433 -15.797   7.394  1.00  0.00    -0.265 OA
HETATM    4  H   UNL     1      43.336 -14.495   4.509  1.00  0.00     0.169 HD
ENDROOT
BRANCH   1   5
HETATM    5  C   UNL     1      43.331 -13.135   6.077  1.00  0.00     0.035 A 
HETATM    6  C   UNL     1      44.440 -12.520   6.662  1.00  0.00     0.030 A 
HETATM    7  C   UNL     1      44.353 -11.212   7.157  1.00  0.00     0.019 A 
HETATM    8  C   UNL     1      43.150 -10.506   7.067  1.00  0.00     0.032 A 
HETATM    9  C   UNL     1      42.028 -11.127   6.513  1.00  0.00     0.019 A 
HETATM   10  C   UNL     1      42.121 -12.432   6.016  1.00  0.00     0.030 A 
BRANCH   8  11
HETATM   11  C   UNL     1      43.023  -9.106   7.555  1.00  0.00     0.251 C 
HETATM   12  N   UNL     1      43.865  -8.743   8.586  1.00  0.00    -0.361 N 
HETATM   13  C   UNL     1      43.906  -7.380   9.050  1.00  0.00     0.149 C 
HETATM   14  H   UNL     1      44.644  -9.345   8.814  1.00  0.00     0.162 HD
HETATM   15  O   UNL     1      42.236  -8.335   7.017  1.00  0.00    -0.268 OA
ENDBRANCH   8  11
ENDBRANCH   1   5
BRANCH   2  16
HETATM   16  C   UNL     1      43.522 -16.767   5.264  1.00  0.00     0.144 A 
HETATM   17  O   UNL     1      43.869 -18.003   5.748  1.00  0.00    -0.304 OA
HETATM   18  C   UNL     1      43.847 -18.866   4.694  1.00  0.00     0.086 A 
HETATM   19  C   UNL     1      43.497 -18.199   3.527  1.00  0.00     0.001 A 
HETATM   20  C   UNL     1      44.127 -20.229   4.760  1.00  0.00     0.038 A 
HETATM   21  C   UNL     1      43.296 -16.846   3.902  1.00  0.00     0.057 A 
HETATM   22  C   UNL     1      43.417 -18.932   2.330  1.00  0.00     0.014 A 
HETATM   23  C   UNL     1      43.690 -20.308   2.366  1.00  0.00     0.001 A 
HETATM   24  C   UNL     1      44.039 -20.942   3.560  1.00  0.00     0.003 A 
ENDBRANCH   2  16
TORSDOF 3
ENDMDL
MODEL 4
REMARK VINA RESULT:      -7.8      6.035      7.754
REMARK  3 active torsions:
REMARK  status: ('A' for Active; 'I' for Inactive)
REMARK       I    between atoms: N_2  and  C_3 
REMARK    1  A    between atoms: C_3  and  C_4 
REMARK    2  A    between atoms: C_7  and  N_8 
REMARK       I    between atoms: N_8  and  C_9 
REMARK    3  A    between atoms: C_9  and  C_10 
ROOT
HETATM    1  N   UNL     1      41.230 -15.444   1.444  1.00  0.00    -0.321 N 
HETATM    2  C   UNL     1      42.551 -15.429   1.854  1.00  0.00     0.280 C 
HETATM    3  O   UNL     1      43.350 -14.522   1.651  1.00  0.00    -0.265 OA
HETATM    4  H   UNL     1      40.710 -16.270   1.723  1.00  0.00     0.169 HD
ENDROOT
BRANCH   1   5
HETATM    5  C   UNL     1      40.546 -14.490   0.668  1.00  0.00     0.035 A 
HETATM    6  C   UNL     1      40.526 -13.122   0.952  1.00  0.00     0.030 A 
HETATM    7  C   UNL     1      39.856 -12.228   0.107  1.00  0.00     0.019 A 
HETATM    8  C   UNL     1      39.200 -12.697  -1.035  1.00  0.00     0.032 A 
HETATM    9  C   UNL     1      39.188 -14.068  -1.306  1.00  0.00     0.019 A 
HETATM   10  C   UNL     1      39.863 -14.957  -0.462  1.00  0.00     0.030 A 
BRANCH   8  11
HETATM   11  C   UNL     1      38.500 -11.778  -1.973  1.00  0.00     0.251 C 
HETATM   12  N   UNL     1      39.270 -10.776  -2.529  1.00  0.00    -0.361 N 
HETATM   13  C   UNL     1      38.720  -9.909  -3.538  1.00  0.00     0.149 C 
HETATM   14  H   UNL     1      40.276 -10.832  -2.448  1.00  0.00     0.162 HD
HETATM   15  O   UNL     1      37.320 -11.959  -2.247  1.00  0.00    -0.268 OA
ENDBRANCH   8  11
ENDBRANCH   1   5
BRANCH   2  16
HETATM   16  C   UNL     1      42.929 -16.638   2.564  1.00  0.00     0.144 A 
HETATM   17  O   UNL     1      42.904 -17.843   1.906  1.00  0.00    -0.304 OA
HETATM   18  C   UNL     1      43.332 -18.789   2.787  1.00  0.00     0.086 A 
HETATM   19  C   UNL     1      43.627 -18.210   4.016  1.00  0.00     0.001 A 
HETATM   20  C   UNL     1      43.466 -20.147   2.512  1.00  0.00     0.038 A 
HETATM   21  C   UNL     1      43.358 -16.827   3.865  1.00  0.00     0.057 A 
HETATM   22  C   UNL     1      44.091 -19.036   5.055  1.00  0.00     0.014 A 
HETATM   23  C   UNL     1      44.241 -20.409   4.806  1.00  0.00     0.001 A 
HETATM   24  C   UNL     1      43.932 -20.952   3.557  1.00  0.00     0.003 A 
ENDBRANCH   2  16
TORSDOF 3
ENDMDL
MODEL 5
REMARK VINA RESULT:      -7.7     16.890     18.519
REMARK  3 active torsions:
REMARK  status: ('A' for Active; 'I' for Inactive)
REMARK       I    between atoms: N_2  and  C_3 
REMARK    1  A    between atoms: C_3  and  C_4 
REMARK    2  A    between atoms: C_7  and  N_8 
REMARK       I    between atoms: N_8  and  C_9 
REMARK    3  A    between atoms: C_9  and  C_10 
ROOT
HETATM    1  N   UNL     1      48.223 -29.843   1.403  1.00  0.00    -0.321 N 
HETATM    2  C   UNL     1      47.506 -28.679   1.184  1.00  0.00     0.280 C 
HETATM    3  O   UNL     1      47.446 -27.725   1.950  1.00  0.00    -0.265 OA
HETATM    4  H   UNL     1      48.175 -30.517   0.645  1.00  0.00     0.169 HD
ENDROOT
BRANCH   1   5
HETATM    5  C   UNL     1      48.960 -30.213   2.542  1.00  0.00     0.035 A 
HETATM    6  C   UNL     1      48.386 -30.710   3.715  1.00  0.00     0.030 A 
HETATM    7  C   UNL     1      49.191 -31.097   4.794  1.00  0.00     0.019 A 
HETATM    8  C   UNL     1      50.582 -30.991   4.707  1.00  0.00     0.032 A 
HETATM    9  C   UNL     1      51.160 -30.463   3.550  1.00  0.00     0.019 A 
HETATM   10  C   UNL     1      50.352 -30.083   2.473  1.00  0.00     0.030 A 
BRANCH   8  11
HETATM   11  C   UNL     1      51.474 -31.416   5.820  1.00  0.00     0.251 C 
HETATM   12  N   UNL     1      51.098 -32.559   6.497  1.00  0.00    -0.361 N 
HETATM   13  C   UNL     1      51.953 -33.122   7.510  1.00  0.00     0.149 C 
HETATM   14  H   UNL     1      50.386 -33.152   6.094  1.00  0.00     0.162 HD
HETATM   15  O   UNL     1      52.498 -30.789   6.063  1.00  0.00    -0.268 OA
ENDBRANCH   8  11
ENDBRANCH   1   5
BRANCH   2  16
HETATM   16  C   UNL     1      46.792 -28.693  -0.080  1.00  0.00     0.144 A 
HETATM   17  O   UNL     1      45.809 -29.628  -0.290  1.00  0.00    -0.304 OA
HETATM   18  C   UNL     1      45.289 -29.392  -1.526  1.00  0.00     0.086 A 
HETATM   19  C   UNL     1      45.932 -28.316  -2.126  1.00  0.00     0.001 A 
HETATM   20  C   UNL     1      44.256 -30.113  -2.118  1.00  0.00     0.038 A 
HETATM   21  C   UNL     1      46.902 -27.876  -1.191  1.00  0.00     0.057 A 
HETATM   22  C   UNL     1      45.524 -27.920  -3.412  1.00  0.00     0.014 A 
HETATM   23  C   UNL     1      44.482 -28.625  -4.033  1.00  0.00     0.001 A 
HETATM   24  C   UNL     1      43.862 -29.702  -3.396  1.00  0.00     0.003 A 
ENDBRANCH   2  16
TORSDOF 3
ENDMDL
MODEL 6
REMARK VINA RESULT:      -7.5      6.161      8.372
REMARK  3 active torsions:
REMARK  status: ('A' for Active; 'I' for Inactive)
REMARK       I    between atoms: N_2  and  C_3 
REMARK    1  A    between atoms: C_3  and  C_4 
REMARK    2  A    between atoms: C_7  and  N_8 
REMARK       I    between atoms: N_8  and  C_9 
REMARK    3  A    between atoms: C_9  and  C_10 
ROOT
HETATM    1  N   UNL     1      40.959 -14.820   0.387  1.00  0.00    -0.321 N 
HETATM    2  C   UNL     1      40.616 -15.098   1.698  1.00  0.00     0.280 C 
HETATM    3  O   UNL     1      39.630 -14.665   2.284  1.00  0.00    -0.265 OA
HETATM    4  H   UNL     1      41.799 -15.288   0.062  1.00  0.00     0.169 HD
ENDROOT
BRANCH   1   5
HETATM    5  C   UNL     1      40.320 -13.952  -0.517  1.00  0.00     0.035 A 
HETATM    6  C   UNL     1      39.363 -14.361  -1.449  1.00  0.00     0.030 A 
HETATM    7  C   UNL     1      38.740 -13.429  -2.288  1.00  0.00     0.019 A 
HETATM    8  C   UNL     1      39.070 -12.074  -2.201  1.00  0.00     0.032 A 
HETATM    9  C   UNL     1      40.050 -11.662  -1.295  1.00  0.00     0.019 A 
HETATM   10  C   UNL     1      40.667 -12.596  -0.455  1.00  0.00     0.030 A 
BRANCH   8  11
HETATM   11  C   UNL     1      38.412 -11.048  -3.054  1.00  0.00     0.251 C 
HETATM   12  N   UNL     1      37.032 -11.063  -3.068  1.00  0.00    -0.361 N 
HETATM   13  C   UNL     1      36.298 -10.039  -3.766  1.00  0.00     0.149 C 
HETATM   14  H   UNL     1      36.544 -11.603  -2.367  1.00  0.00     0.162 HD
HETATM   15  O   UNL     1      39.088 -10.225  -3.661  1.00  0.00    -0.268 OA
ENDBRANCH   8  11
ENDBRANCH   1   5
BRANCH   2  16
HETATM   16  C   UNL     1      41.571 -15.975   2.351  1.00  0.00     0.144 A 
HETATM   17  O   UNL     1      41.657 -15.978   3.721  1.00  0.00    -0.304 OA
HETATM   18  C   UNL     1      42.594 -16.906   4.062  1.00  0.00     0.086 A 
HETATM   19  C   UNL     1      43.125 -17.500   2.923  1.00  0.00     0.001 A 
HETATM   20  C   UNL     1      42.975 -17.229   5.361  1.00  0.00     0.038 A 
HETATM   21  C   UNL     1      42.465 -16.890   1.827  1.00  0.00     0.057 A 
HETATM   22  C   UNL     1      44.109 -18.492   3.078  1.00  0.00     0.014 A 
HETATM   23  C   UNL     1      44.511 -18.843   4.376  1.00  0.00     0.001 A 
HETATM   24  C   UNL     1      43.953 -18.221   5.496  1.00  0.00     0.003 A 
ENDBRANCH   2  16
TORSDOF 3
ENDMDL
MODEL 7
REMARK VINA RESULT:      -7.4      2.545      3.351
REMARK  3 active torsions:
REMARK  status: ('A' for Active; 'I' for Inactive)
REMARK       I    between atoms: N_2  and  C_3 
REMARK    1  A    between atoms: C_3  and  C_4 
REMARK    2  A    between atoms: C_7  and  N_8 
REMARK       I    between atoms: N_8  and  C_9 
REMARK    3  A    between atoms: C_9  and  C_10 
ROOT
HETATM    1  N   UNL     1      42.382 -14.589   4.856  1.00  0.00    -0.321 N 
HETATM    2  C   UNL     1      42.968 -14.880   3.637  1.00  0.00     0.280 C 
HETATM    3  O   UNL     1      43.276 -14.059   2.781  1.00  0.00    -0.265 OA
HETATM    4  H   UNL     1      42.220 -15.396   5.450  1.00  0.00     0.169 HD
ENDROOT
BRANCH   1   5
HETATM    5  C   UNL     1      41.955 -13.340   5.344  1.00  0.00     0.035 A 
HETATM    6  C   UNL     1      42.821 -12.345   5.803  1.00  0.00     0.030 A 
HETATM    7  C   UNL     1      42.322 -11.109   6.234  1.00  0.00     0.019 A 
HETATM    8  C   UNL     1      40.947 -10.858   6.208  1.00  0.00     0.032 A 
HETATM    9  C   UNL     1      40.074 -11.862   5.782  1.00  0.00     0.019 A 
HETATM   10  C   UNL     1      40.577 -13.093   5.347  1.00  0.00     0.030 A 
BRANCH   8  11
HETATM   11  C   UNL     1      40.378  -9.550   6.632  1.00  0.00     0.251 C 
HETATM   12  N   UNL     1      40.305  -9.332   7.993  1.00  0.00    -0.361 N 
HETATM   13  C   UNL     1      39.883  -8.054   8.505  1.00  0.00     0.149 C 
HETATM   14  H   UNL     1      40.812  -9.948   8.613  1.00  0.00     0.162 HD
HETATM   15  O   UNL     1      40.047  -8.721   5.792  1.00  0.00    -0.268 OA
ENDBRANCH   8  11
ENDBRANCH   1   5
BRANCH   2  16
HETATM   16  C   UNL     1      43.185 -16.303   3.447  1.00  0.00     0.144 A 
HETATM   17  O   UNL     1      43.644 -17.061   4.495  1.00  0.00    -0.304 OA
HETATM   18  C   UNL     1      43.722 -18.348   4.054  1.00  0.00     0.086 A 
HETATM   19  C   UNL     1      43.325 -18.431   2.726  1.00  0.00     0.001 A 
HETATM   20  C   UNL     1      44.134 -19.438   4.816  1.00  0.00     0.038 A 
HETATM   21  C   UNL     1      42.987 -17.109   2.341  1.00  0.00     0.057 A 
HETATM   22  C   UNL     1      43.334 -19.689   2.097  1.00  0.00     0.014 A 
HETATM   23  C   UNL     1      43.741 -20.808   2.840  1.00  0.00     0.001 A 
HETATM   24  C   UNL     1      44.134 -20.682   4.175  1.00  0.00     0.003 A 
ENDBRANCH   2  16
TORSDOF 3
ENDMDL
MODEL 8
REMARK VINA RESULT:      -7.1      4.200      4.677
REMARK  3 active torsions:
REMARK  status: ('A' for Active; 'I' for Inactive)
REMARK       I    between atoms: N_2  and  C_3 
REMARK    1  A    between atoms: C_3  and  C_4 
REMARK    2  A    between atoms: C_7  and  N_8 
REMARK       I    between atoms: N_8  and  C_9 
REMARK    3  A    between atoms: C_9  and  C_10 
ROOT
HETATM    1  N   UNL     1      42.147 -14.413   3.221  1.00  0.00    -0.321 N 
HETATM    2  C   UNL     1      42.893 -15.017   4.219  1.00  0.00     0.280 C 
HETATM    3  O   UNL     1      43.310 -14.463   5.230  1.00  0.00    -0.265 OA
HETATM    4  H   UNL     1      41.868 -15.035   2.468  1.00  0.00     0.169 HD
ENDROOT
BRANCH   1   5
HETATM    5  C   UNL     1      41.772 -13.062   3.107  1.00  0.00     0.035 A 
HETATM    6  C   UNL     1      42.642 -12.041   2.716  1.00  0.00     0.030 A 
HETATM    7  C   UNL     1      42.183 -10.724   2.585  1.00  0.00     0.019 A 
HETATM    8  C   UNL     1      40.844 -10.417   2.844  1.00  0.00     0.032 A 
HETATM    9  C   UNL     1      39.977 -11.427   3.268  1.00  0.00     0.019 A 
HETATM   10  C   UNL     1      40.439 -12.743   3.393  1.00  0.00     0.030 A 
BRANCH   8  11
HETATM   11  C   UNL     1      40.311  -9.037   2.691  1.00  0.00     0.251 C 
HETATM   12  N   UNL     1      41.015  -8.204   1.845  1.00  0.00    -0.361 N 
HETATM   13  C   UNL     1      40.516  -6.889   1.534  1.00  0.00     0.149 C 
HETATM   14  H   UNL     1      41.706  -8.607   1.228  1.00  0.00     0.162 HD
HETATM   15  O   UNL     1      39.277  -8.709   3.262  1.00  0.00    -0.268 OA
ENDBRANCH   8  11
ENDBRANCH   1   5
BRANCH   2  16
HETATM   16  C   UNL     1      43.160 -16.417   3.946  1.00  0.00     0.144 A 
HETATM   17  O   UNL     1      43.524 -17.248   4.977  1.00  0.00    -0.304 OA
HETATM   18  C   UNL     1      43.676 -18.495   4.452  1.00  0.00     0.086 A 
HETATM   19  C   UNL     1      43.423 -18.481   3.086  1.00  0.00     0.001 A 
HETATM   20  C   UNL     1      44.030 -19.635   5.169  1.00  0.00     0.038 A 
HETATM   21  C   UNL     1      43.098 -17.138   2.768  1.00  0.00     0.057 A 
HETATM   22  C   UNL     1      43.527 -19.686   2.370  1.00  0.00     0.014 A 
HETATM   23  C   UNL     1      43.878 -20.853   3.065  1.00  0.00     0.001 A 
HETATM   24  C   UNL     1      44.125 -20.825   4.440  1.00  0.00     0.003 A 
ENDBRANCH   2  16
TORSDOF 3
ENDMDL
MODEL 9
REMARK VINA RESULT:      -7.0     17.213     18.944
REMARK  3 active torsions:
REMARK  status: ('A' for Active; 'I' for Inactive)
REMARK       I    between atoms: N_2  and  C_3 
REMARK    1  A    between atoms: C_3  and  C_4 
REMARK    2  A    between atoms: C_7  and  N_8 
REMARK       I    between atoms: N_8  and  C_9 
REMARK    3  A    between atoms: C_9  and  C_10 
ROOT
HETATM    1  N   UNL     1      42.819 -30.577   1.993  1.00  0.00    -0.321 N 
HETATM    2  C   UNL     1      42.760 -29.438   1.210  1.00  0.00     0.280 C 
HETATM    3  O   UNL     1      41.797 -28.685   1.118  1.00  0.00    -0.265 OA
HETATM    4  H   UNL     1      43.709 -31.064   1.963  1.00  0.00     0.169 HD
ENDROOT
BRANCH   1   5
HETATM    5  C   UNL     1      41.802 -31.151   2.777  1.00  0.00     0.035 A 
HETATM    6  C   UNL     1      41.429 -30.680   4.038  1.00  0.00     0.030 A 
HETATM    7  C   UNL     1      40.376 -31.280   4.741  1.00  0.00     0.019 A 
HETATM    8  C   UNL     1      39.683 -32.358   4.184  1.00  0.00     0.032 A 
HETATM    9  C   UNL     1      40.072 -32.855   2.937  1.00  0.00     0.019 A 
HETATM   10  C   UNL     1      41.122 -32.249   2.237  1.00  0.00     0.030 A 
BRANCH   8  11
HETATM   11  C   UNL     1      38.542 -33.006   4.884  1.00  0.00     0.251 C 
HETATM   12  N   UNL     1      37.866 -33.979   4.175  1.00  0.00    -0.361 N 
HETATM   13  C   UNL     1      36.824 -34.749   4.804  1.00  0.00     0.149 C 
HETATM   14  H   UNL     1      38.285 -34.346   3.332  1.00  0.00     0.162 HD
HETATM   15  O   UNL     1      38.274 -32.700   6.041  1.00  0.00    -0.268 OA
ENDBRANCH   8  11
ENDBRANCH   1   5
BRANCH   2  16
HETATM   16  C   UNL     1      43.985 -29.208   0.466  1.00  0.00     0.144 A 
HETATM   17  O   UNL     1      45.194 -29.310   1.108  1.00  0.00    -0.304 OA
HETATM   18  C   UNL     1      46.162 -29.082   0.178  1.00  0.00     0.086 A 
HETATM   19  C   UNL     1      45.593 -28.824  -1.063  1.00  0.00     0.001 A 
HETATM   20  C   UNL     1      47.534 -29.106   0.418  1.00  0.00     0.038 A 
HETATM   21  C   UNL     1      44.191 -28.901  -0.867  1.00  0.00     0.057 A 
HETATM   22  C   UNL     1      46.442 -28.570  -2.154  1.00  0.00     0.014 A 
HETATM   23  C   UNL     1      47.830 -28.591  -1.945  1.00  0.00     0.001 A 
HETATM   24  C   UNL     1      48.363 -28.854  -0.681  1.00  0.00     0.003 A 
ENDBRANCH   2  16
TORSDOF 3
ENDMDL
MODEL 10
REMARK VINA RESULT:      -6.6      2.745      3.350
REMARK  3 active torsions:
REMARK  status: ('A' for Active; 'I' for Inactive)
REMARK       I    between atoms: N_2  and  C_3 
REMARK    1  A    between atoms: C_3  and  C_4 
REMARK    2  A    between atoms: C_7  and  N_8 
REMARK       I    between atoms: N_8  and  C_9 
REMARK    3  A    between atoms: C_9  and  C_10 
ROOT
HETATM    1  N   UNL     1      41.862 -13.220   5.559  1.00  0.00    -0.321 N 
HETATM    2  C   UNL     1      42.204 -13.563   4.262  1.00  0.00     0.280 C 
HETATM    3  O   UNL     1      42.154 -12.817   3.291  1.00  0.00    -0.265 OA
HETATM    4  H   UNL     1      41.990 -13.962   6.239  1.00  0.00     0.169 HD
ENDROOT
BRANCH   1   5
HETATM    5  C   UNL     1      41.330 -12.006   6.029  1.00  0.00     0.035 A 
HETATM    6  C   UNL     1      42.107 -10.905   6.399  1.00  0.00     0.030 A 
HETATM    7  C   UNL     1      41.501  -9.714   6.818  1.00  0.00     0.019 A 
HETATM    8  C   UNL     1      40.108  -9.613   6.869  1.00  0.00     0.032 A 
HETATM    9  C   UNL     1      39.327 -10.721   6.532  1.00  0.00     0.019 A 
HETATM   10  C   UNL     1      39.936 -11.908   6.109  1.00  0.00     0.030 A 
BRANCH   8  11
HETATM   11  C   UNL     1      39.425  -8.358   7.282  1.00  0.00     0.251 C 
HETATM   12  N   UNL     1      39.797  -7.213   6.606  1.00  0.00    -0.361 N 
HETATM   13  C   UNL     1      39.112  -5.969   6.846  1.00  0.00     0.149 C 
HETATM   14  H   UNL     1      40.334  -7.302   5.755  1.00  0.00     0.162 HD
HETATM   15  O   UNL     1      38.555  -8.384   8.145  1.00  0.00    -0.268 OA
ENDBRANCH   8  11
ENDBRANCH   1   5
BRANCH   2  16
HETATM   16  C   UNL     1      42.634 -14.945   4.145  1.00  0.00     0.144 A 
HETATM   17  O   UNL     1      42.345 -15.647   3.002  1.00  0.00    -0.304 OA
HETATM   18  C   UNL     1      42.888 -16.888   3.145  1.00  0.00     0.086 A 
HETATM   19  C   UNL     1      43.521 -17.001   4.377  1.00  0.00     0.001 A 
HETATM   20  C   UNL     1      42.832 -17.908   2.199  1.00  0.00     0.038 A 
HETATM   21  C   UNL     1      43.346 -15.748   5.017  1.00  0.00     0.057 A 
HETATM   22  C   UNL     1      44.148 -18.217   4.703  1.00  0.00     0.014 A 
HETATM   23  C   UNL     1      44.111 -19.263   3.768  1.00  0.00     0.001 A 
HETATM   24  C   UNL     1      43.464 -19.109   2.540  1.00  0.00     0.003 A 
ENDBRANCH   2  16
TORSDOF 3
ENDMDL
