MODEL 1
REMARK VINA RESULT:      -9.1      0.000      0.000
REMARK  8 active torsions:
REMARK  status: ('A' for Active; 'I' for Inactive)
REMARK    1  A    between atoms: C_2  and  N_3 
REMARK    2  A    between atoms: C_11  and  C_12 
REMARK    3  A    between atoms: C_14  and  O_15 
REMARK    4  A    between atoms: O_15  and  C_16 
REMARK    5  A    between atoms: C_18  and  O_19 
REMARK    6  A    between atoms: O_19  and  C_20 
REMARK    7  A    between atoms: C_20  and  C_21 
REMARK    8  A    between atoms: C_31  and  O_32 
ROOT
HETATM    1  N   UNL     1      42.231  -7.534  12.663  1.00  0.00    -0.067 N 
HETATM    2  H   UNL     1      42.472  -6.853  13.393  1.00  0.00     0.280 HD
HETATM    3  C   UNL     1      43.555  -8.188  12.256  1.00  0.00     0.281 C 
HETATM    4  C   UNL     1      43.412  -8.894  10.952  1.00  0.00     0.018 A 
HETATM    5  C   UNL     1      42.415  -8.652  10.023  1.00  0.00    -0.024 A 
HETATM    6  C   UNL     1      42.552  -9.514   8.888  1.00  0.00     0.057 A 
HETATM    7  C   UNL     1      43.629 -10.358   9.018  1.00  0.00     0.087 A 
HETATM    8  N   UNL     1      43.925 -11.290   8.099  1.00  0.00    -0.357 N 
HETATM    9  C   UNL     1      43.248 -11.230   6.812  1.00  0.00     0.243 C 
HETATM   10  N   UNL     1      42.020 -10.422   6.716  1.00  0.00    -0.235 NA
HETATM   11  C   UNL     1      41.755  -9.649   7.698  1.00  0.00     0.173 C 
HETATM   12  S   UNL     1      44.494 -10.111  10.458  1.00  0.00    -0.074 SA
HETATM   13  C   UNL     1      41.336  -7.639  10.276  1.00  0.00     0.068 C 
HETATM   14  C   UNL     1      41.660  -6.742  11.485  1.00  0.00     0.240 C 
HETATM   15  H   UNL     1      44.801 -11.804   8.112  1.00  0.00     0.162 HD
ENDROOT
BRANCH   9  16
HETATM   16  C   UNL     1      42.936 -12.645   6.346  1.00  0.00    -0.012 A 
HETATM   17  C   UNL     1      41.803 -12.915   5.546  1.00  0.00     0.050 A 
HETATM   18  C   UNL     1      41.563 -14.196   5.045  1.00  0.00     0.103 A 
HETATM   19  C   UNL     1      42.483 -15.209   5.337  1.00  0.00     0.112 A 
HETATM   20  C   UNL     1      43.617 -14.964   6.114  1.00  0.00     0.041 A 
HETATM   21  C   UNL     1      43.837 -13.686   6.622  1.00  0.00     0.014 A 
BRANCH  18  22
HETATM   22  O   UNL     1      40.503 -14.545   4.251  1.00  0.00    -0.349 OA
BRANCH  22  23
HETATM   23  C   UNL     1      40.477 -14.004   2.931  1.00  0.00     0.171 C 
HETATM   24  C   UNL     1      39.988 -15.087   1.987  1.00  0.00     0.034 C 
ENDBRANCH  22  23
ENDBRANCH  18  22
BRANCH  19  25
HETATM   25  O   UNL     1      42.322 -16.459   4.718  1.00  0.00    -0.272 OA
BRANCH  25  26
HETATM   26  C   UNL     1      43.098 -16.696   3.602  1.00  0.00     0.298 C 
HETATM   27  O   UNL     1      43.443 -15.884   2.756  1.00  0.00    -0.259 OA
BRANCH  26  28
HETATM   28  C   UNL     1      43.414 -18.150   3.525  1.00  0.00     0.039 A 
HETATM   29  C   UNL     1      43.154 -18.819   2.321  1.00  0.00     0.017 A 
HETATM   30  C   UNL     1      43.398 -20.191   2.211  1.00  0.00     0.001 A 
HETATM   31  C   UNL     1      43.907 -20.898   3.300  1.00  0.00     0.000 A 
HETATM   32  C   UNL     1      44.178 -20.238   4.497  1.00  0.00     0.001 A 
HETATM   33  C   UNL     1      43.935 -18.866   4.612  1.00  0.00     0.017 A 
ENDBRANCH  26  28
ENDBRANCH  25  26
ENDBRANCH  19  25
ENDBRANCH   9  16
BRANCH  11  34
HETATM   34  O   UNL     1      40.643  -8.898   7.631  1.00  0.00    -0.344 OA
HETATM   35  H   UNL     1      40.095  -9.152   8.396  1.00  0.00     0.219 HD
ENDBRANCH  11  34
BRANCH   1  36
HETATM   36  C   UNL     1      41.288  -8.535  13.296  1.00  0.00     0.231 C 
HETATM   37  C   UNL     1      41.495  -8.607  14.797  1.00  0.00     0.034 C 
ENDBRANCH   1  36
TORSDOF 8
ENDMDL
MODEL 2
REMARK VINA RESULT:      -8.6      2.074      2.625
REMARK  8 active torsions:
REMARK  status: ('A' for Active; 'I' for Inactive)
REMARK    1  A    between atoms: C_2  and  N_3 
REMARK    2  A    between atoms: C_11  and  C_12 
REMARK    3  A    between atoms: C_14  and  O_15 
REMARK    4  A    between atoms: O_15  and  C_16 
REMARK    5  A    between atoms: C_18  and  O_19 
REMARK    6  A    between atoms: O_19  and  C_20 
REMARK    7  A    between atoms: C_20  and  C_21 
REMARK    8  A    between atoms: C_31  and  O_32 
ROOT
HETATM    1  N   UNL     1      41.950  -7.091  11.398  1.00  0.00    -0.067 N 
HETATM    2  H   UNL     1      42.192  -6.231  11.904  1.00  0.00     0.280 HD
HETATM    3  C   UNL     1      42.167  -6.772   9.915  1.00  0.00     0.281 C 
HETATM    4  C   UNL     1      41.486  -7.781   9.057  1.00  0.00     0.018 A 
HETATM    5  C   UNL     1      40.458  -8.611   9.470  1.00  0.00    -0.024 A 
HETATM    6  C   UNL     1      40.039  -9.476   8.409  1.00  0.00     0.057 A 
HETATM    7  C   UNL     1      40.767  -9.263   7.263  1.00  0.00     0.087 A 
HETATM    8  N   UNL     1      40.585  -9.993   6.151  1.00  0.00    -0.357 N 
HETATM    9  C   UNL     1      39.413 -10.851   6.073  1.00  0.00     0.243 C 
HETATM   10  N   UNL     1      38.712 -11.177   7.327  1.00  0.00    -0.235 NA
HETATM   11  C   UNL     1      39.039 -10.509   8.365  1.00  0.00     0.173 C 
HETATM   12  S   UNL     1      41.917  -8.025   7.429  1.00  0.00    -0.074 SA
HETATM   13  C   UNL     1      39.945  -8.582  10.881  1.00  0.00     0.068 C 
HETATM   14  C   UNL     1      40.467  -7.360  11.659  1.00  0.00     0.240 C 
HETATM   15  H   UNL     1      41.005  -9.739   5.262  1.00  0.00     0.162 HD
ENDROOT
BRANCH   9  16
HETATM   16  C   UNL     1      39.790 -12.150   5.375  1.00  0.00    -0.012 A 
HETATM   17  C   UNL     1      39.427 -12.387   4.032  1.00  0.00     0.050 A 
HETATM   18  C   UNL     1      39.847 -13.539   3.363  1.00  0.00     0.103 A 
HETATM   19  C   UNL     1      40.655 -14.451   4.050  1.00  0.00     0.112 A 
HETATM   20  C   UNL     1      41.038 -14.233   5.375  1.00  0.00     0.041 A 
HETATM   21  C   UNL     1      40.599 -13.089   6.037  1.00  0.00     0.014 A 
BRANCH  18  22
HETATM   22  O   UNL     1      39.558 -13.843   2.059  1.00  0.00    -0.349 OA
BRANCH  22  23
HETATM   23  C   UNL     1      39.673 -12.786   1.107  1.00  0.00     0.171 C 
HETATM   24  C   UNL     1      41.132 -12.667   0.708  1.00  0.00     0.034 C 
ENDBRANCH  22  23
ENDBRANCH  18  22
BRANCH  19  25
HETATM   25  O   UNL     1      41.196 -15.535   3.341  1.00  0.00    -0.272 OA
BRANCH  25  26
HETATM   26  C   UNL     1      42.558 -15.507   3.121  1.00  0.00     0.298 C 
HETATM   27  O   UNL     1      43.218 -14.570   2.696  1.00  0.00    -0.259 OA
BRANCH  26  28
HETATM   28  C   UNL     1      43.130 -16.850   3.418  1.00  0.00     0.039 A 
HETATM   29  C   UNL     1      43.180 -17.790   2.380  1.00  0.00     0.017 A 
HETATM   30  C   UNL     1      43.673 -19.076   2.617  1.00  0.00     0.001 A 
HETATM   31  C   UNL     1      44.122 -19.426   3.889  1.00  0.00     0.000 A 
HETATM   32  C   UNL     1      44.086 -18.494   4.925  1.00  0.00     0.001 A 
HETATM   33  C   UNL     1      43.593 -17.207   4.692  1.00  0.00     0.017 A 
ENDBRANCH  26  28
ENDBRANCH  25  26
ENDBRANCH  19  25
ENDBRANCH   9  16
BRANCH  11  34
HETATM   34  O   UNL     1      38.409 -10.785   9.520  1.00  0.00    -0.344 OA
HETATM   35  H   UNL     1      37.460 -10.832   9.309  1.00  0.00     0.219 HD
ENDBRANCH  11  34
BRANCH   1  36
HETATM   36  C   UNL     1      42.903  -8.164  11.882  1.00  0.00     0.231 C 
HETATM   37  C   UNL     1      43.242  -7.972  13.348  1.00  0.00     0.034 C 
ENDBRANCH   1  36
TORSDOF 8
ENDMDL
MODEL 3
REMARK VINA RESULT:      -8.6      2.504      3.219
REMARK  8 active torsions:
REMARK  status: ('A' for Active; 'I' for Inactive)
REMARK    1  A    between atoms: C_2  and  N_3 
REMARK    2  A    between atoms: C_11  and  C_12 
REMARK    3  A    between atoms: C_14  and  O_15 
REMARK    4  A    between atoms: O_15  and  C_16 
REMARK    5  A    between atoms: C_18  and  O_19 
REMARK    6  A    between atoms: O_19  and  C_20 
REMARK    7  A    between atoms: C_20  and  C_21 
REMARK    8  A    between atoms: C_31  and  O_32 
ROOT
HETATM    1  N   UNL     1      42.000  -6.863   9.466  1.00  0.00    -0.067 N 
HETATM    2  H   UNL     1      42.203  -5.922   9.822  1.00  0.00     0.280 HD
HETATM    3  C   UNL     1      42.047  -6.746   7.940  1.00  0.00     0.281 C 
HETATM    4  C   UNL     1      41.391  -7.922   7.303  1.00  0.00     0.018 A 
HETATM    5  C   UNL     1      40.492  -8.766   7.932  1.00  0.00    -0.024 A 
HETATM    6  C   UNL     1      40.063  -9.808   7.048  1.00  0.00     0.057 A 
HETATM    7  C   UNL     1      40.658  -9.703   5.813  1.00  0.00     0.087 A 
HETATM    8  N   UNL     1      40.446 -10.599   4.837  1.00  0.00    -0.357 N 
HETATM    9  C   UNL     1      39.360 -11.555   5.000  1.00  0.00     0.243 C 
HETATM   10  N   UNL     1      38.814 -11.753   6.353  1.00  0.00    -0.235 NA
HETATM   11  C   UNL     1      39.169 -10.917   7.251  1.00  0.00     0.173 C 
HETATM   12  S   UNL     1      41.692  -8.363   5.687  1.00  0.00    -0.074 SA
HETATM   13  C   UNL     1      40.112  -8.576   9.372  1.00  0.00     0.068 C 
HETATM   14  C   UNL     1      40.581  -7.215   9.916  1.00  0.00     0.240 C 
HETATM   15  H   UNL     1      40.755 -10.443   3.882  1.00  0.00     0.162 HD
ENDROOT
BRANCH   9  16
HETATM   16  C   UNL     1      39.797 -12.906   4.450  1.00  0.00    -0.012 A 
HETATM   17  C   UNL     1      39.725 -13.186   3.068  1.00  0.00     0.050 A 
HETATM   18  C   UNL     1      40.205 -14.391   2.550  1.00  0.00     0.103 A 
HETATM   19  C   UNL     1      40.781 -15.313   3.432  1.00  0.00     0.112 A 
HETATM   20  C   UNL     1      40.875 -15.053   4.801  1.00  0.00     0.041 A 
HETATM   21  C   UNL     1      40.377 -13.855   5.308  1.00  0.00     0.014 A 
BRANCH  18  22
HETATM   22  O   UNL     1      40.193 -14.741   1.227  1.00  0.00    -0.349 OA
BRANCH  22  23
HETATM   23  C   UNL     1      39.965 -13.696   0.283  1.00  0.00     0.171 C 
HETATM   24  C   UNL     1      39.544 -14.330  -1.031  1.00  0.00     0.034 C 
ENDBRANCH  22  23
ENDBRANCH  18  22
BRANCH  19  25
HETATM   25  O   UNL     1      41.392 -16.459   2.899  1.00  0.00    -0.272 OA
BRANCH  25  26
HETATM   26  C   UNL     1      42.769 -16.516   2.986  1.00  0.00     0.298 C 
HETATM   27  O   UNL     1      43.554 -15.584   2.890  1.00  0.00    -0.259 OA
BRANCH  26  28
HETATM   28  C   UNL     1      43.190 -17.935   3.148  1.00  0.00     0.039 A 
HETATM   29  C   UNL     1      42.851 -18.845   2.138  1.00  0.00     0.017 A 
HETATM   30  C   UNL     1      43.191 -20.194   2.261  1.00  0.00     0.001 A 
HETATM   31  C   UNL     1      43.876 -20.640   3.391  1.00  0.00     0.000 A 
HETATM   32  C   UNL     1      44.228 -19.740   4.396  1.00  0.00     0.001 A 
HETATM   33  C   UNL     1      43.888 -18.390   4.277  1.00  0.00     0.017 A 
ENDBRANCH  26  28
ENDBRANCH  25  26
ENDBRANCH  19  25
ENDBRANCH   9  16
BRANCH  11  34
HETATM   34  O   UNL     1      38.679 -11.074   8.492  1.00  0.00    -0.344 OA
HETATM   35  H   UNL     1      39.136 -11.847   8.870  1.00  0.00     0.219 HD
ENDBRANCH  11  34
BRANCH   1  36
HETATM   36  C   UNL     1      43.094  -7.771   9.989  1.00  0.00     0.231 C 
HETATM   37  C   UNL     1      44.261  -7.832   9.021  1.00  0.00     0.034 C 
ENDBRANCH   1  36
TORSDOF 8
ENDMDL
MODEL 4
REMARK VINA RESULT:      -8.4      1.677      2.481
REMARK  8 active torsions:
REMARK  status: ('A' for Active; 'I' for Inactive)
REMARK    1  A    between atoms: C_2  and  N_3 
REMARK    2  A    between atoms: C_11  and  C_12 
REMARK    3  A    between atoms: C_14  and  O_15 
REMARK    4  A    between atoms: O_15  and  C_16 
REMARK    5  A    between atoms: C_18  and  O_19 
REMARK    6  A    between atoms: O_19  and  C_20 
REMARK    7  A    between atoms: C_20  and  C_21 
REMARK    8  A    between atoms: C_31  and  O_32 
ROOT
HETATM    1  N   UNL     1      41.283  -6.472  13.212  1.00  0.00    -0.067 N 
HETATM    2  H   UNL     1      41.235  -6.016  14.131  1.00  0.00     0.280 HD
HETATM    3  C   UNL     1      41.988  -7.810  13.452  1.00  0.00     0.281 C 
HETATM    4  C   UNL     1      42.473  -8.387  12.167  1.00  0.00     0.018 A 
HETATM    5  C   UNL     1      42.673  -7.668  11.000  1.00  0.00    -0.024 A 
HETATM    6  C   UNL     1      43.123  -8.522   9.944  1.00  0.00     0.057 A 
HETATM    7  C   UNL     1      43.233  -9.828  10.358  1.00  0.00     0.087 A 
HETATM    8  N   UNL     1      43.590 -10.818   9.524  1.00  0.00    -0.357 N 
HETATM    9  C   UNL     1      44.128 -10.461   8.220  1.00  0.00     0.243 C 
HETATM   10  N   UNL     1      43.895  -9.092   7.728  1.00  0.00    -0.235 NA
HETATM   11  C   UNL     1      43.437  -8.245   8.567  1.00  0.00     0.173 C 
HETATM   12  S   UNL     1      42.838 -10.039  11.995  1.00  0.00    -0.074 SA
HETATM   13  C   UNL     1      42.379  -6.198  10.924  1.00  0.00     0.068 C 
HETATM   14  C   UNL     1      42.149  -5.583  12.317  1.00  0.00     0.240 C 
HETATM   15  H   UNL     1      43.824 -11.749   9.857  1.00  0.00     0.162 HD
ENDROOT
BRANCH   9  16
HETATM   16  C   UNL     1      43.610 -11.445   7.180  1.00  0.00    -0.012 A 
HETATM   17  C   UNL     1      42.868 -11.001   6.063  1.00  0.00     0.050 A 
HETATM   18  C   UNL     1      42.467 -11.890   5.063  1.00  0.00     0.103 A 
HETATM   19  C   UNL     1      42.834 -13.235   5.182  1.00  0.00     0.112 A 
HETATM   20  C   UNL     1      43.578 -13.696   6.270  1.00  0.00     0.041 A 
HETATM   21  C   UNL     1      43.957 -12.803   7.270  1.00  0.00     0.014 A 
BRANCH  18  22
HETATM   22  O   UNL     1      41.762 -11.547   3.941  1.00  0.00    -0.349 OA
BRANCH  22  23
HETATM   23  C   UNL     1      40.480 -10.954   4.136  1.00  0.00     0.171 C 
HETATM   24  C   UNL     1      39.446 -12.064   4.166  1.00  0.00     0.034 C 
ENDBRANCH  22  23
ENDBRANCH  18  22
BRANCH  19  25
HETATM   25  O   UNL     1      42.557 -14.102   4.113  1.00  0.00    -0.272 OA
BRANCH  25  26
HETATM   26  C   UNL     1      41.798 -15.216   4.408  1.00  0.00     0.298 C 
HETATM   27  O   UNL     1      40.731 -15.247   5.002  1.00  0.00    -0.259 OA
BRANCH  26  28
HETATM   28  C   UNL     1      42.519 -16.436   3.946  1.00  0.00     0.039 A 
HETATM   29  C   UNL     1      43.362 -17.088   4.855  1.00  0.00     0.017 A 
HETATM   30  C   UNL     1      44.089 -18.214   4.459  1.00  0.00     0.001 A 
HETATM   31  C   UNL     1      43.972 -18.696   3.156  1.00  0.00     0.000 A 
HETATM   32  C   UNL     1      43.128 -18.059   2.248  1.00  0.00     0.001 A 
HETATM   33  C   UNL     1      42.400 -16.932   2.640  1.00  0.00     0.017 A 
ENDBRANCH  26  28
ENDBRANCH  25  26
ENDBRANCH  19  25
ENDBRANCH   9  16
BRANCH  11  34
HETATM   34  O   UNL     1      43.221  -6.988   8.143  1.00  0.00    -0.344 OA
HETATM   35  H   UNL     1      42.591  -6.592   8.773  1.00  0.00     0.219 HD
ENDBRANCH  11  34
BRANCH   1  36
HETATM   36  C   UNL     1      39.855  -6.670  12.750  1.00  0.00     0.231 C 
HETATM   37  C   UNL     1      39.097  -5.356  12.738  1.00  0.00     0.034 C 
ENDBRANCH   1  36
TORSDOF 8
ENDMDL
MODEL 5
REMARK VINA RESULT:      -8.1      1.429      1.767
REMARK  8 active torsions:
REMARK  status: ('A' for Active; 'I' for Inactive)
REMARK    1  A    between atoms: C_2  and  N_3 
REMARK    2  A    between atoms: C_11  and  C_12 
REMARK    3  A    between atoms: C_14  and  O_15 
REMARK    4  A    between atoms: O_15  and  C_16 
REMARK    5  A    between atoms: C_18  and  O_19 
REMARK    6  A    between atoms: O_19  and  C_20 
REMARK    7  A    between atoms: C_20  and  C_21 
REMARK    8  A    between atoms: C_31  and  O_32 
ROOT
HETATM    1  N   UNL     1      41.366  -6.774  11.730  1.00  0.00    -0.067 N 
HETATM    2  H   UNL     1      41.434  -5.898  12.261  1.00  0.00     0.280 HD
HETATM    3  C   UNL     1      42.609  -6.812  10.836  1.00  0.00     0.281 C 
HETATM    4  C   UNL     1      42.440  -7.811   9.745  1.00  0.00     0.018 A 
HETATM    5  C   UNL     1      41.225  -8.312   9.308  1.00  0.00    -0.024 A 
HETATM    6  C   UNL     1      41.413  -9.268   8.259  1.00  0.00     0.057 A 
HETATM    7  C   UNL     1      42.744  -9.445   7.964  1.00  0.00     0.087 A 
HETATM    8  N   UNL     1      43.165 -10.330   7.048  1.00  0.00    -0.357 N 
HETATM    9  C   UNL     1      42.177 -10.927   6.161  1.00  0.00     0.243 C 
HETATM   10  N   UNL     1      40.759 -10.843   6.550  1.00  0.00    -0.235 NA
HETATM   11  C   UNL     1      40.469 -10.061   7.518  1.00  0.00     0.173 C 
HETATM   12  S   UNL     1      43.765  -8.462   8.899  1.00  0.00    -0.074 SA
HETATM   13  C   UNL     1      39.931  -7.894   9.942  1.00  0.00     0.068 C 
HETATM   14  C   UNL     1      40.108  -6.674  10.865  1.00  0.00     0.240 C 
HETATM   15  H   UNL     1      44.125 -10.353   6.717  1.00  0.00     0.162 HD
ENDROOT
BRANCH   9  16
HETATM   16  C   UNL     1      42.531 -12.390   5.931  1.00  0.00    -0.012 A 
HETATM   17  C   UNL     1      42.065 -13.081   4.792  1.00  0.00     0.050 A 
HETATM   18  C   UNL     1      42.459 -14.397   4.534  1.00  0.00     0.103 A 
HETATM   19  C   UNL     1      43.347 -15.012   5.423  1.00  0.00     0.112 A 
HETATM   20  C   UNL     1      43.833 -14.344   6.550  1.00  0.00     0.041 A 
HETATM   21  C   UNL     1      43.419 -13.039   6.805  1.00  0.00     0.014 A 
BRANCH  18  22
HETATM   22  O   UNL     1      42.072 -15.137   3.450  1.00  0.00    -0.349 OA
BRANCH  22  23
HETATM   23  C   UNL     1      42.522 -14.696   2.170  1.00  0.00     0.171 C 
HETATM   24  C   UNL     1      43.394 -15.787   1.575  1.00  0.00     0.034 C 
ENDBRANCH  22  23
ENDBRANCH  18  22
BRANCH  19  25
HETATM   25  O   UNL     1      43.857 -16.278   5.093  1.00  0.00    -0.272 OA
BRANCH  25  26
HETATM   26  C   UNL     1      43.468 -17.326   5.903  1.00  0.00     0.298 C 
HETATM   27  O   UNL     1      43.085 -17.261   7.062  1.00  0.00    -0.259 OA
BRANCH  26  28
HETATM   28  C   UNL     1      43.654 -18.608   5.167  1.00  0.00     0.039 A 
HETATM   29  C   UNL     1      43.768 -18.558   3.772  1.00  0.00     0.017 A 
HETATM   30  C   UNL     1      43.907 -19.736   3.033  1.00  0.00     0.001 A 
HETATM   31  C   UNL     1      43.938 -20.967   3.686  1.00  0.00     0.000 A 
HETATM   32  C   UNL     1      43.836 -21.026   5.075  1.00  0.00     0.001 A 
HETATM   33  C   UNL     1      43.696 -19.850   5.817  1.00  0.00     0.017 A 
ENDBRANCH  26  28
ENDBRANCH  25  26
ENDBRANCH  19  25
ENDBRANCH   9  16
BRANCH  11  34
HETATM   34  O   UNL     1      39.181  -9.963   7.888  1.00  0.00    -0.344 OA
HETATM   35  H   UNL     1      38.840 -10.875   7.934  1.00  0.00     0.219 HD
ENDBRANCH  11  34
BRANCH   1  36
HETATM   36  C   UNL     1      41.373  -7.899  12.743  1.00  0.00     0.231 C 
HETATM   37  C   UNL     1      41.348  -7.357  14.160  1.00  0.00     0.034 C 
ENDBRANCH   1  36
TORSDOF 8
ENDMDL
MODEL 6
REMARK VINA RESULT:      -7.9      3.007     10.326
REMARK  8 active torsions:
REMARK  status: ('A' for Active; 'I' for Inactive)
REMARK    1  A    between atoms: C_2  and  N_3 
REMARK    2  A    between atoms: C_11  and  C_12 
REMARK    3  A    between atoms: C_14  and  O_15 
REMARK    4  A    between atoms: O_15  and  C_16 
REMARK    5  A    between atoms: C_18  and  O_19 
REMARK    6  A    between atoms: O_19  and  C_20 
REMARK    7  A    between atoms: C_20  and  C_21 
REMARK    8  A    between atoms: C_31  and  O_32 
ROOT
HETATM    1  N   UNL     1      42.754 -16.657   3.611  1.00  0.00    -0.067 N 
HETATM    2  H   UNL     1      42.536 -17.560   3.173  1.00  0.00     0.280 HD
HETATM    3  C   UNL     1      41.481 -16.243   4.356  1.00  0.00     0.281 C 
HETATM    4  C   UNL     1      41.521 -14.795   4.699  1.00  0.00     0.018 A 
HETATM    5  C   UNL     1      42.331 -13.855   4.083  1.00  0.00    -0.024 A 
HETATM    6  C   UNL     1      42.141 -12.559   4.660  1.00  0.00     0.057 A 
HETATM    7  C   UNL     1      41.214 -12.584   5.674  1.00  0.00     0.087 A 
HETATM    8  N   UNL     1      40.910 -11.495   6.396  1.00  0.00    -0.357 N 
HETATM    9  C   UNL     1      41.377 -10.200   5.921  1.00  0.00     0.243 C 
HETATM   10  N   UNL     1      42.460 -10.181   4.924  1.00  0.00    -0.235 NA
HETATM   11  C   UNL     1      42.764 -11.293   4.376  1.00  0.00     0.173 C 
HETATM   12  S   UNL     1      40.547 -14.125   5.923  1.00  0.00    -0.074 SA
HETATM   13  C   UNL     1      43.293 -14.240   2.996  1.00  0.00     0.068 C 
HETATM   14  C   UNL     1      43.037 -15.668   2.479  1.00  0.00     0.240 C 
HETATM   15  H   UNL     1      40.121 -11.471   7.035  1.00  0.00     0.162 HD
ENDROOT
BRANCH   9  16
HETATM   16  C   UNL     1      41.799  -9.353   7.114  1.00  0.00    -0.012 A 
HETATM   17  C   UNL     1      42.892  -9.730   7.924  1.00  0.00     0.050 A 
HETATM   18  C   UNL     1      43.335  -8.911   8.965  1.00  0.00     0.103 A 
HETATM   19  C   UNL     1      42.681  -7.693   9.178  1.00  0.00     0.112 A 
HETATM   20  C   UNL     1      41.606  -7.292   8.382  1.00  0.00     0.041 A 
HETATM   21  C   UNL     1      41.163  -8.125   7.358  1.00  0.00     0.014 A 
BRANCH  18  22
HETATM   22  O   UNL     1      44.394  -9.187   9.788  1.00  0.00    -0.349 OA
BRANCH  22  23
HETATM   23  C   UNL     1      44.469 -10.505  10.329  1.00  0.00     0.171 C 
HETATM   24  C   UNL     1      43.533 -10.579  11.522  1.00  0.00     0.034 C 
ENDBRANCH  22  23
ENDBRANCH  18  22
BRANCH  19  25
HETATM   25  O   UNL     1      43.212  -6.804  10.127  1.00  0.00    -0.272 OA
BRANCH  25  26
HETATM   26  C   UNL     1      42.306  -6.204  10.979  1.00  0.00     0.298 C 
HETATM   27  O   UNL     1      41.854  -5.072  10.897  1.00  0.00    -0.259 OA
BRANCH  26  28
HETATM   28  C   UNL     1      41.996  -7.136  12.098  1.00  0.00     0.039 A 
HETATM   29  C   UNL     1      40.772  -7.817  12.071  1.00  0.00     0.017 A 
HETATM   30  C   UNL     1      40.419  -8.674  13.116  1.00  0.00     0.001 A 
HETATM   31  C   UNL     1      41.289  -8.859  14.190  1.00  0.00     0.000 A 
HETATM   32  C   UNL     1      42.514  -8.193  14.221  1.00  0.00     0.001 A 
HETATM   33  C   UNL     1      42.870  -7.335  13.177  1.00  0.00     0.017 A 
ENDBRANCH  26  28
ENDBRANCH  25  26
ENDBRANCH  19  25
ENDBRANCH   9  16
BRANCH  11  34
HETATM   34  O   UNL     1      43.747 -11.300   3.459  1.00  0.00    -0.344 OA
HETATM   35  H   UNL     1      44.579 -11.416   3.951  1.00  0.00     0.219 HD
ENDBRANCH  11  34
BRANCH   1  36
HETATM   36  C   UNL     1      43.903 -16.903   4.566  1.00  0.00     0.231 C 
HETATM   37  C   UNL     1      43.855 -18.311   5.127  1.00  0.00     0.034 C 
ENDBRANCH   1  36
TORSDOF 8
ENDMDL
MODEL 7
REMARK VINA RESULT:      -7.8      3.259      5.350
REMARK  8 active torsions:
REMARK  status: ('A' for Active; 'I' for Inactive)
REMARK    1  A    between atoms: C_2  and  N_3 
REMARK    2  A    between atoms: C_11  and  C_12 
REMARK    3  A    between atoms: C_14  and  O_15 
REMARK    4  A    between atoms: O_15  and  C_16 
REMARK    5  A    between atoms: C_18  and  O_19 
REMARK    6  A    between atoms: O_19  and  C_20 
REMARK    7  A    between atoms: C_20  and  C_21 
REMARK    8  A    between atoms: C_31  and  O_32 
ROOT
HETATM    1  N   UNL     1      42.832  -8.585  11.631  1.00  0.00    -0.067 N 
HETATM    2  H   UNL     1      43.241  -8.011  12.377  1.00  0.00     0.280 HD
HETATM    3  C   UNL     1      42.945  -7.745  10.355  1.00  0.00     0.281 C 
HETATM    4  C   UNL     1      42.049  -8.281   9.293  1.00  0.00     0.018 A 
HETATM    5  C   UNL     1      40.960  -9.107   9.515  1.00  0.00    -0.024 A 
HETATM    6  C   UNL     1      40.322  -9.457   8.282  1.00  0.00     0.057 A 
HETATM    7  C   UNL     1      40.957  -8.890   7.203  1.00  0.00     0.087 A 
HETATM    8  N   UNL     1      40.567  -9.118   5.939  1.00  0.00    -0.357 N 
HETATM    9  C   UNL     1      39.283  -9.769   5.721  1.00  0.00     0.243 C 
HETATM   10  N   UNL     1      38.670 -10.483   6.853  1.00  0.00    -0.235 NA
HETATM   11  C   UNL     1      39.188 -10.297   8.006  1.00  0.00     0.173 C 
HETATM   12  S   UNL     1      42.280  -7.922   7.646  1.00  0.00    -0.074 SA
HETATM   13  C   UNL     1      40.597  -9.572  10.896  1.00  0.00     0.068 C 
HETATM   14  C   UNL     1      41.359  -8.795  11.985  1.00  0.00     0.240 C 
HETATM   15  H   UNL     1      40.929  -8.584   5.155  1.00  0.00     0.162 HD
ENDROOT
BRANCH   9  16
HETATM   16  C   UNL     1      39.405 -10.731   4.548  1.00  0.00    -0.012 A 
HETATM   17  C   UNL     1      39.978 -12.011   4.712  1.00  0.00     0.050 A 
HETATM   18  C   UNL     1      40.012 -12.928   3.659  1.00  0.00     0.103 A 
HETATM   19  C   UNL     1      39.444 -12.557   2.435  1.00  0.00     0.112 A 
HETATM   20  C   UNL     1      38.859 -11.302   2.252  1.00  0.00     0.041 A 
HETATM   21  C   UNL     1      38.847 -10.390   3.304  1.00  0.00     0.014 A 
BRANCH  18  22
HETATM   22  O   UNL     1      40.531 -14.193   3.731  1.00  0.00    -0.349 OA
BRANCH  22  23
HETATM   23  C   UNL     1      41.819 -14.331   4.327  1.00  0.00     0.171 C 
HETATM   24  C   UNL     1      42.862 -13.953   3.291  1.00  0.00     0.034 C 
ENDBRANCH  22  23
ENDBRANCH  18  22
BRANCH  19  25
HETATM   25  O   UNL     1      39.347 -13.523   1.421  1.00  0.00    -0.272 OA
BRANCH  25  26
HETATM   26  C   UNL     1      40.126 -13.316   0.300  1.00  0.00     0.298 C 
HETATM   27  O   UNL     1      41.284 -12.926   0.267  1.00  0.00    -0.259 OA
BRANCH  26  28
HETATM   28  C   UNL     1      39.309 -13.574  -0.918  1.00  0.00     0.039 A 
HETATM   29  C   UNL     1      38.313 -12.648  -1.255  1.00  0.00     0.017 A 
HETATM   30  C   UNL     1      37.496 -12.864  -2.367  1.00  0.00     0.001 A 
HETATM   31  C   UNL     1      37.672 -14.003  -3.150  1.00  0.00     0.000 A 
HETATM   32  C   UNL     1      38.668 -14.925  -2.830  1.00  0.00     0.001 A 
HETATM   33  C   UNL     1      39.487 -14.713  -1.718  1.00  0.00     0.017 A 
ENDBRANCH  26  28
ENDBRANCH  25  26
ENDBRANCH  19  25
ENDBRANCH   9  16
BRANCH  11  34
HETATM   34  O   UNL     1      38.642 -10.934   9.055  1.00  0.00    -0.344 OA
HETATM   35  H   UNL     1      39.001 -10.505   9.853  1.00  0.00     0.219 HD
ENDBRANCH  11  34
BRANCH   1  36
HETATM   36  C   UNL     1      43.668  -9.845  11.544  1.00  0.00     0.231 C 
HETATM   37  C   UNL     1      44.880  -9.636  10.655  1.00  0.00     0.034 C 
ENDBRANCH   1  36
TORSDOF 8
ENDMDL
MODEL 8
REMARK VINA RESULT:      -7.8      4.434     10.865
REMARK  8 active torsions:
REMARK  status: ('A' for Active; 'I' for Inactive)
REMARK    1  A    between atoms: C_2  and  N_3 
REMARK    2  A    between atoms: C_11  and  C_12 
REMARK    3  A    between atoms: C_14  and  O_15 
REMARK    4  A    between atoms: O_15  and  C_16 
REMARK    5  A    between atoms: C_18  and  O_19 
REMARK    6  A    between atoms: O_19  and  C_20 
REMARK    7  A    between atoms: C_20  and  C_21 
REMARK    8  A    between atoms: C_31  and  O_32 
ROOT
HETATM    1  N   UNL     1      39.081 -12.521  -2.146  1.00  0.00    -0.067 N 
HETATM    2  H   UNL     1      38.858 -12.511  -3.148  1.00  0.00     0.280 HD
HETATM    3  C   UNL     1      39.950 -11.283  -1.905  1.00  0.00     0.281 C 
HETATM    4  C   UNL     1      40.663 -11.387  -0.602  1.00  0.00     0.018 A 
HETATM    5  C   UNL     1      40.884 -12.566   0.090  1.00  0.00    -0.024 A 
HETATM    6  C   UNL     1      41.580 -12.317   1.316  1.00  0.00     0.057 A 
HETATM    7  C   UNL     1      41.840 -10.979   1.491  1.00  0.00     0.087 A 
HETATM    8  N   UNL     1      42.439 -10.502   2.593  1.00  0.00    -0.357 N 
HETATM    9  C   UNL     1      43.062 -11.450   3.504  1.00  0.00     0.243 C 
HETATM   10  N   UNL     1      42.681 -12.868   3.393  1.00  0.00    -0.235 NA
HETATM   11  C   UNL     1      42.004 -13.207   2.364  1.00  0.00     0.173 C 
HETATM   12  S   UNL     1      41.295 -10.024   0.197  1.00  0.00    -0.074 SA
HETATM   13  C   UNL     1      40.380 -13.883  -0.423  1.00  0.00     0.068 C 
HETATM   14  C   UNL     1      39.898 -13.787  -1.883  1.00  0.00     0.240 C 
HETATM   15  H   UNL     1      42.772  -9.545   2.658  1.00  0.00     0.162 HD
ENDROOT
BRANCH   9  16
HETATM   16  C   UNL     1      42.825 -10.995   4.938  1.00  0.00    -0.012 A 
HETATM   17  C   UNL     1      43.787 -11.232   5.945  1.00  0.00     0.050 A 
HETATM   18  C   UNL     1      43.611 -10.739   7.241  1.00  0.00     0.103 A 
HETATM   19  C   UNL     1      42.465  -9.985   7.516  1.00  0.00     0.112 A 
HETATM   20  C   UNL     1      41.507  -9.726   6.534  1.00  0.00     0.041 A 
HETATM   21  C   UNL     1      41.684 -10.237   5.251  1.00  0.00     0.014 A 
BRANCH  18  22
HETATM   22  O   UNL     1      44.495 -10.904   8.273  1.00  0.00    -0.349 OA
BRANCH  22  23
HETATM   23  C   UNL     1      45.881 -10.754   7.970  1.00  0.00     0.171 C 
HETATM   24  C   UNL     1      46.245  -9.291   8.142  1.00  0.00     0.034 C 
ENDBRANCH  22  23
ENDBRANCH  18  22
BRANCH  19  25
HETATM   25  O   UNL     1      42.354  -9.369   8.773  1.00  0.00    -0.272 OA
BRANCH  25  26
HETATM   26  C   UNL     1      42.835  -8.078   8.868  1.00  0.00     0.298 C 
HETATM   27  O   UNL     1      43.260  -7.380   7.960  1.00  0.00    -0.259 OA
BRANCH  26  28
HETATM   28  C   UNL     1      42.832  -7.659  10.298  1.00  0.00     0.039 A 
HETATM   29  C   UNL     1      43.386  -8.532  11.243  1.00  0.00     0.017 A 
HETATM   30  C   UNL     1      43.374  -8.201  12.600  1.00  0.00     0.001 A 
HETATM   31  C   UNL     1      42.812  -6.995  13.018  1.00  0.00     0.000 A 
HETATM   32  C   UNL     1      42.268  -6.116  12.083  1.00  0.00     0.001 A 
HETATM   33  C   UNL     1      42.278  -6.444  10.725  1.00  0.00     0.017 A 
ENDBRANCH  26  28
ENDBRANCH  25  26
ENDBRANCH  19  25
ENDBRANCH   9  16
BRANCH  11  34
HETATM   34  O   UNL     1      41.649 -14.497   2.237  1.00  0.00    -0.344 OA
HETATM   35  H   UNL     1      41.925 -14.770   1.344  1.00  0.00     0.219 HD
ENDBRANCH  11  34
BRANCH   1  36
HETATM   36  C   UNL     1      37.763 -12.428  -1.405  1.00  0.00     0.231 C 
HETATM   37  C   UNL     1      37.108 -11.078  -1.624  1.00  0.00     0.034 C 
ENDBRANCH   1  36
TORSDOF 8
ENDMDL
MODEL 9
REMARK VINA RESULT:      -7.7      3.969      5.087
REMARK  8 active torsions:
REMARK  status: ('A' for Active; 'I' for Inactive)
REMARK    1  A    between atoms: C_2  and  N_3 
REMARK    2  A    between atoms: C_11  and  C_12 
REMARK    3  A    between atoms: C_14  and  O_15 
REMARK    4  A    between atoms: O_15  and  C_16 
REMARK    5  A    between atoms: C_18  and  O_19 
REMARK    6  A    between atoms: O_19  and  C_20 
REMARK    7  A    between atoms: C_20  and  C_21 
REMARK    8  A    between atoms: C_31  and  O_32 
ROOT
HETATM    1  N   UNL     1      40.608  -5.491   4.717  1.00  0.00    -0.067 N 
HETATM    2  H   UNL     1      40.331  -4.507   4.820  1.00  0.00     0.280 HD
HETATM    3  C   UNL     1      39.310  -6.260   4.455  1.00  0.00     0.281 C 
HETATM    4  C   UNL     1      39.509  -7.718   4.679  1.00  0.00     0.018 A 
HETATM    5  C   UNL     1      40.535  -8.274   5.424  1.00  0.00    -0.024 A 
HETATM    6  C   UNL     1      40.451  -9.703   5.425  1.00  0.00     0.057 A 
HETATM    7  C   UNL     1      39.383 -10.150   4.685  1.00  0.00     0.087 A 
HETATM    8  N   UNL     1      39.134 -11.456   4.501  1.00  0.00    -0.357 N 
HETATM    9  C   UNL     1      39.856 -12.418   5.320  1.00  0.00     0.243 C 
HETATM   10  N   UNL     1      41.073 -11.961   6.010  1.00  0.00    -0.235 NA
HETATM   11  C   UNL     1      41.291 -10.703   6.029  1.00  0.00     0.173 C 
HETATM   12  S   UNL     1      38.465  -8.888   4.018  1.00  0.00    -0.074 SA
HETATM   13  C   UNL     1      41.589  -7.420   6.068  1.00  0.00     0.068 C 
HETATM   14  C   UNL     1      41.209  -5.928   6.054  1.00  0.00     0.240 C 
HETATM   15  H   UNL     1      38.266 -11.790   4.091  1.00  0.00     0.162 HD
ENDROOT
BRANCH   9  16
HETATM   16  C   UNL     1      40.205 -13.634   4.472  1.00  0.00    -0.012 A 
HETATM   17  C   UNL     1      40.238 -13.553   3.063  1.00  0.00     0.050 A 
HETATM   18  C   UNL     1      40.643 -14.641   2.286  1.00  0.00     0.103 A 
HETATM   19  C   UNL     1      41.036 -15.815   2.939  1.00  0.00     0.112 A 
HETATM   20  C   UNL     1      41.025 -15.915   4.332  1.00  0.00     0.041 A 
HETATM   21  C   UNL     1      40.603 -14.829   5.094  1.00  0.00     0.014 A 
BRANCH  18  22
HETATM   22  O   UNL     1      40.721 -14.648   0.920  1.00  0.00    -0.349 OA
BRANCH  22  23
HETATM   23  C   UNL     1      39.838 -13.777   0.215  1.00  0.00     0.171 C 
HETATM   24  C   UNL     1      39.908 -14.126  -1.260  1.00  0.00     0.034 C 
ENDBRANCH  22  23
ENDBRANCH  18  22
BRANCH  19  25
HETATM   25  O   UNL     1      41.578 -16.859   2.172  1.00  0.00    -0.272 OA
BRANCH  25  26
HETATM   26  C   UNL     1      42.953 -16.979   2.186  1.00  0.00     0.298 C 
HETATM   27  O   UNL     1      43.768 -16.197   1.721  1.00  0.00    -0.259 OA
BRANCH  26  28
HETATM   28  C   UNL     1      43.323 -18.282   2.807  1.00  0.00     0.039 A 
HETATM   29  C   UNL     1      43.824 -18.272   4.116  1.00  0.00     0.017 A 
HETATM   30  C   UNL     1      44.219 -19.464   4.728  1.00  0.00     0.001 A 
HETATM   31  C   UNL     1      44.112 -20.671   4.039  1.00  0.00     0.000 A 
HETATM   32  C   UNL     1      43.605 -20.692   2.740  1.00  0.00     0.001 A 
HETATM   33  C   UNL     1      43.209 -19.502   2.124  1.00  0.00     0.017 A 
ENDBRANCH  26  28
ENDBRANCH  25  26
ENDBRANCH  19  25
ENDBRANCH   9  16
BRANCH  11  34
HETATM   34  O   UNL     1      42.394 -10.261   6.658  1.00  0.00    -0.344 OA
HETATM   35  H   UNL     1      43.054 -10.088   5.962  1.00  0.00     0.219 HD
ENDBRANCH  11  34
BRANCH   1  36
HETATM   36  C   UNL     1      41.544  -5.557   3.528  1.00  0.00     0.231 C 
HETATM   37  C   UNL     1      40.801  -5.289   2.233  1.00  0.00     0.034 C 
ENDBRANCH   1  36
TORSDOF 8
ENDMDL
MODEL 10
REMARK VINA RESULT:      -7.6      5.700      9.126
REMARK  8 active torsions:
REMARK  status: ('A' for Active; 'I' for Inactive)
REMARK    1  A    between atoms: C_2  and  N_3 
REMARK    2  A    between atoms: C_11  and  C_12 
REMARK    3  A    between atoms: C_14  and  O_15 
REMARK    4  A    between atoms: O_15  and  C_16 
REMARK    5  A    between atoms: C_18  and  O_19 
REMARK    6  A    between atoms: O_19  and  C_20 
REMARK    7  A    between atoms: C_20  and  C_21 
REMARK    8  A    between atoms: C_31  and  O_32 
ROOT
HETATM    1  N   UNL     1      39.730  -8.045  -4.076  1.00  0.00    -0.067 N 
HETATM    2  H   UNL     1      39.402  -7.491  -4.876  1.00  0.00     0.280 HD
HETATM    3  C   UNL     1      38.888  -9.324  -4.086  1.00  0.00     0.281 C 
HETATM    4  C   UNL     1      38.979 -10.023  -2.774  1.00  0.00     0.018 A 
HETATM    5  C   UNL     1      39.375  -9.433  -1.586  1.00  0.00    -0.024 A 
HETATM    6  C   UNL     1      39.373 -10.384  -0.516  1.00  0.00     0.057 A 
HETATM    7  C   UNL     1      38.987 -11.631  -0.946  1.00  0.00     0.087 A 
HETATM    8  N   UNL     1      38.959 -12.695  -0.128  1.00  0.00    -0.357 N 
HETATM    9  C   UNL     1      39.086 -12.468   1.304  1.00  0.00     0.243 C 
HETATM   10  N   UNL     1      39.621 -11.171   1.752  1.00  0.00    -0.235 NA
HETATM   11  C   UNL     1      39.726 -10.251   0.872  1.00  0.00     0.173 C 
HETATM   12  S   UNL     1      38.598 -11.672  -2.597  1.00  0.00    -0.074 SA
HETATM   13  C   UNL     1      39.788  -7.991  -1.526  1.00  0.00     0.068 C 
HETATM   14  C   UNL     1      39.425  -7.233  -2.816  1.00  0.00     0.240 C 
HETATM   15  H   UNL     1      38.529 -13.575  -0.398  1.00  0.00     0.162 HD
ENDROOT
BRANCH   9  16
HETATM   16  C   UNL     1      39.932 -13.578   1.913  1.00  0.00    -0.012 A 
HETATM   17  C   UNL     1      40.479 -13.450   3.208  1.00  0.00     0.050 A 
HETATM   18  C   UNL     1      41.181 -14.501   3.803  1.00  0.00     0.103 A 
HETATM   19  C   UNL     1      41.315 -15.698   3.092  1.00  0.00     0.112 A 
HETATM   20  C   UNL     1      40.771 -15.854   1.815  1.00  0.00     0.041 A 
HETATM   21  C   UNL     1      40.089 -14.793   1.225  1.00  0.00     0.014 A 
BRANCH  18  22
HETATM   22  O   UNL     1      41.729 -14.472   5.057  1.00  0.00    -0.349 OA
BRANCH  22  23
HETATM   23  C   UNL     1      43.016 -13.872   5.188  1.00  0.00     0.171 C 
HETATM   24  C   UNL     1      43.663 -14.411   6.451  1.00  0.00     0.034 C 
ENDBRANCH  22  23
ENDBRANCH  18  22
BRANCH  19  25
HETATM   25  O   UNL     1      41.893 -16.802   3.740  1.00  0.00    -0.272 OA
BRANCH  25  26
HETATM   26  C   UNL     1      43.135 -17.198   3.286  1.00  0.00     0.298 C 
HETATM   27  O   UNL     1      43.854 -16.609   2.492  1.00  0.00    -0.259 OA
BRANCH  26  28
HETATM   28  C   UNL     1      43.464 -18.531   3.864  1.00  0.00     0.039 A 
HETATM   29  C   UNL     1      43.590 -19.618   2.989  1.00  0.00     0.017 A 
HETATM   30  C   UNL     1      43.861 -20.895   3.486  1.00  0.00     0.001 A 
HETATM   31  C   UNL     1      44.014 -21.091   4.858  1.00  0.00     0.000 A 
HETATM   32  C   UNL     1      43.901 -20.013   5.735  1.00  0.00     0.001 A 
HETATM   33  C   UNL     1      43.629 -18.735   5.242  1.00  0.00     0.017 A 
ENDBRANCH  26  28
ENDBRANCH  25  26
ENDBRANCH  19  25
ENDBRANCH   9  16
BRANCH  11  34
HETATM   34  O   UNL     1      40.207  -9.057   1.259  1.00  0.00    -0.344 OA
HETATM   35  H   UNL     1      40.913  -8.830   0.628  1.00  0.00     0.219 HD
ENDBRANCH  11  34
BRANCH   1  36
HETATM   36  C   UNL     1      41.195  -8.341  -4.323  1.00  0.00     0.231 C 
HETATM   37  C   UNL     1      42.021  -7.069  -4.294  1.00  0.00     0.034 C 
ENDBRANCH   1  36
TORSDOF 8
ENDMDL
