MODEL 1
REMARK VINA RESULT:      -8.4      0.000      0.000
REMARK  6 active torsions:
REMARK  status: ('A' for Active; 'I' for Inactive)
REMARK    1  A    between atoms: C_2  and  N_3 
REMARK       I    between atoms: N_3  and  C_4 
REMARK    2  A    between atoms: C_4  and  C_5 
REMARK    3  A    between atoms: C_5  and  O_6 
REMARK    4  A    between atoms: O_6  and  C_7 
REMARK    5  A    between atoms: C_9  and  N_10 
REMARK       I    between atoms: N_10  and  C_11 
REMARK    6  A    between atoms: C_11  and  C_12 
ROOT
HETATM    1  N   UNL     1      43.857 -12.454   5.817  1.00  0.00    -0.322 N 
HETATM    2  C   UNL     1      43.270 -13.696   5.980  1.00  0.00     0.277 C 
HETATM    3  O   UNL     1      43.132 -14.300   7.039  1.00  0.00    -0.266 OA
HETATM    4  H   UNL     1      43.910 -12.155   4.846  1.00  0.00     0.169 HD
ENDROOT
BRANCH   1   5
HETATM    5  C   UNL     1      44.412 -11.623   6.805  1.00  0.00     0.037 A 
HETATM    6  C   UNL     1      43.685 -11.117   7.883  1.00  0.00     0.066 A 
HETATM    7  C   UNL     1      44.297 -10.314   8.853  1.00  0.00     0.071 A 
HETATM    8  C   UNL     1      45.647  -9.995   8.737  1.00  0.00     0.037 A 
HETATM    9  C   UNL     1      46.381 -10.486   7.655  1.00  0.00     0.005 A 
HETATM   10  C   UNL     1      45.766 -11.293   6.694  1.00  0.00     0.029 A 
BRANCH   7  11
HETATM   11  O   UNL     1      43.455  -9.895   9.842  1.00  0.00    -0.342 OA
BRANCH  11  12
HETATM   12  C   UNL     1      43.630 -10.467  11.136  1.00  0.00     0.278 C 
BRANCH  12  13
HETATM   13  C   UNL     1      42.465 -10.035  12.029  1.00  0.00     0.241 C 
HETATM   14  N   UNL     1      41.228 -10.144  11.428  1.00  0.00    -0.360 N 
HETATM   15  H   UNL     1      41.230 -10.321  10.427  1.00  0.00     0.162 HD
HETATM   16  O   UNL     1      42.629  -9.674  13.191  1.00  0.00    -0.271 OA
BRANCH  14  17
HETATM   17  C   UNL     1      40.005  -9.712  12.061  1.00  0.00     0.118 C 
HETATM   18  C   UNL     1      39.400 -10.813  12.914  1.00  0.00     0.026 C 
ENDBRANCH  14  17
ENDBRANCH  12  13
ENDBRANCH  11  12
ENDBRANCH   7  11
ENDBRANCH   1   5
BRANCH   2  19
HETATM   19  C   UNL     1      42.827 -14.270   4.696  1.00  0.00     0.157 A 
HETATM   20  N   UNL     1      42.143 -13.534   3.790  1.00  0.00    -0.168 NA
HETATM   21  N   UNL     1      41.919 -14.399   2.783  1.00  0.00    -0.277 N 
HETATM   22  H   UNL     1      41.398 -14.074   1.977  1.00  0.00     0.189 HD
HETATM   23  C   UNL     1      42.448 -15.645   2.976  1.00  0.00     0.063 A 
HETATM   24  C   UNL     1      43.053 -15.597   4.225  1.00  0.00     0.029 A 
HETATM   25  C   UNL     1      42.450 -16.789   2.173  1.00  0.00     0.032 A 
HETATM   26  C   UNL     1      43.704 -16.748   4.710  1.00  0.00     0.023 A 
HETATM   27  C   UNL     1      43.734 -17.912   3.923  1.00  0.00    -0.061 A 
HETATM   28  C   UNL     1      43.106 -17.921   2.672  1.00  0.00     0.009 A 
HETATM   29  C   UNL     1      44.443 -19.131   4.440  1.00  0.00     0.048 C 
ENDBRANCH   2  19
TORSDOF 6
ENDMDL
MODEL 2
REMARK VINA RESULT:      -8.2      6.715      9.453
REMARK  6 active torsions:
REMARK  status: ('A' for Active; 'I' for Inactive)
REMARK    1  A    between atoms: C_2  and  N_3 
REMARK       I    between atoms: N_3  and  C_4 
REMARK    2  A    between atoms: C_4  and  C_5 
REMARK    3  A    between atoms: C_5  and  O_6 
REMARK    4  A    between atoms: O_6  and  C_7 
REMARK    5  A    between atoms: C_9  and  N_10 
REMARK       I    between atoms: N_10  and  C_11 
REMARK    6  A    between atoms: C_11  and  C_12 
ROOT
HETATM    1  N   UNL     1      41.230 -14.535   0.849  1.00  0.00    -0.322 N 
HETATM    2  C   UNL     1      40.707 -15.166   1.964  1.00  0.00     0.277 C 
HETATM    3  O   UNL     1      39.522 -15.401   2.176  1.00  0.00    -0.266 OA
HETATM    4  H   UNL     1      42.236 -14.399   0.895  1.00  0.00     0.169 HD
ENDROOT
BRANCH   1   5
HETATM    5  C   UNL     1      40.536 -14.037  -0.267  1.00  0.00     0.037 A 
HETATM    6  C   UNL     1      40.686 -12.736  -0.749  1.00  0.00     0.066 A 
HETATM    7  C   UNL     1      39.989 -12.301  -1.882  1.00  0.00     0.071 A 
HETATM    8  C   UNL     1      39.114 -13.167  -2.532  1.00  0.00     0.037 A 
HETATM    9  C   UNL     1      38.946 -14.467  -2.050  1.00  0.00     0.005 A 
HETATM   10  C   UNL     1      39.651 -14.898  -0.923  1.00  0.00     0.029 A 
BRANCH   7  11
HETATM   11  O   UNL     1      40.240 -11.005  -2.228  1.00  0.00    -0.342 OA
BRANCH  11  12
HETATM   12  C   UNL     1      40.257 -10.039  -1.179  1.00  0.00     0.278 C 
BRANCH  12  13
HETATM   13  C   UNL     1      41.543  -9.217  -1.286  1.00  0.00     0.241 C 
HETATM   14  N   UNL     1      41.566  -8.348  -2.357  1.00  0.00    -0.360 N 
HETATM   15  H   UNL     1      40.829  -8.468  -3.047  1.00  0.00     0.162 HD
HETATM   16  O   UNL     1      42.444  -9.300  -0.455  1.00  0.00    -0.271 OA
BRANCH  14  17
HETATM   17  C   UNL     1      42.716  -7.541  -2.692  1.00  0.00     0.118 C 
HETATM   18  C   UNL     1      42.773  -7.246  -4.180  1.00  0.00     0.026 C 
ENDBRANCH  14  17
ENDBRANCH  12  13
ENDBRANCH  11  12
ENDBRANCH   7  11
ENDBRANCH   1   5
BRANCH   2  19
HETATM   19  C   UNL     1      41.755 -15.522   2.938  1.00  0.00     0.157 A 
HETATM   20  N   UNL     1      42.113 -14.680   3.934  1.00  0.00    -0.168 NA
HETATM   21  N   UNL     1      43.083 -15.350   4.584  1.00  0.00    -0.277 N 
HETATM   22  H   UNL     1      43.526 -14.905   5.379  1.00  0.00     0.189 HD
HETATM   23  C   UNL     1      43.350 -16.593   4.080  1.00  0.00     0.063 A 
HETATM   24  C   UNL     1      42.495 -16.741   2.995  1.00  0.00     0.029 A 
HETATM   25  C   UNL     1      44.251 -17.584   4.479  1.00  0.00     0.032 A 
HETATM   26  C   UNL     1      42.528 -17.942   2.261  1.00  0.00     0.023 A 
HETATM   27  C   UNL     1      43.416 -18.964   2.643  1.00  0.00    -0.061 A 
HETATM   28  C   UNL     1      44.265 -18.773   3.739  1.00  0.00     0.009 A 
HETATM   29  C   UNL     1      43.435 -20.248   1.864  1.00  0.00     0.048 C 
ENDBRANCH   2  19
TORSDOF 6
ENDMDL
MODEL 3
REMARK VINA RESULT:      -7.9      5.116      7.290
REMARK  6 active torsions:
REMARK  status: ('A' for Active; 'I' for Inactive)
REMARK    1  A    between atoms: C_2  and  N_3 
REMARK       I    between atoms: N_3  and  C_4 
REMARK    2  A    between atoms: C_4  and  C_5 
REMARK    3  A    between atoms: C_5  and  O_6 
REMARK    4  A    between atoms: O_6  and  C_7 
REMARK    5  A    between atoms: C_9  and  N_10 
REMARK       I    between atoms: N_10  and  C_11 
REMARK    6  A    between atoms: C_11  and  C_12 
ROOT
HETATM    1  N   UNL     1      42.600 -14.409   4.750  1.00  0.00    -0.322 N 
HETATM    2  C   UNL     1      43.191 -15.411   4.001  1.00  0.00     0.277 C 
HETATM    3  O   UNL     1      43.483 -15.352   2.811  1.00  0.00    -0.266 OA
HETATM    4  H   UNL     1      42.402 -14.684   5.709  1.00  0.00     0.169 HD
ENDROOT
BRANCH   1   5
HETATM    5  C   UNL     1      42.212 -13.127   4.326  1.00  0.00     0.037 A 
HETATM    6  C   UNL     1      40.927 -12.820   3.877  1.00  0.00     0.066 A 
HETATM    7  C   UNL     1      40.590 -11.518   3.491  1.00  0.00     0.071 A 
HETATM    8  C   UNL     1      41.550 -10.511   3.533  1.00  0.00     0.037 A 
HETATM    9  C   UNL     1      42.843 -10.811   3.968  1.00  0.00     0.005 A 
HETATM   10  C   UNL     1      43.172 -12.111   4.360  1.00  0.00     0.029 A 
BRANCH   7  11
HETATM   11  O   UNL     1      39.297 -11.377   3.075  1.00  0.00    -0.342 OA
BRANCH  11  12
HETATM   12  C   UNL     1      38.717 -12.467   2.362  1.00  0.00     0.278 C 
BRANCH  12  13
HETATM   13  C   UNL     1      39.131 -12.373   0.893  1.00  0.00     0.241 C 
HETATM   14  N   UNL     1      39.500 -13.580   0.336  1.00  0.00    -0.360 N 
HETATM   15  H   UNL     1      39.628 -14.352   0.984  1.00  0.00     0.162 HD
HETATM   16  O   UNL     1      39.088 -11.318   0.266  1.00  0.00    -0.271 OA
BRANCH  14  17
HETATM   17  C   UNL     1      40.006 -13.704  -1.011  1.00  0.00     0.118 C 
HETATM   18  C   UNL     1      39.079 -14.536  -1.878  1.00  0.00     0.026 C 
ENDBRANCH  14  17
ENDBRANCH  12  13
ENDBRANCH  11  12
ENDBRANCH   7  11
ENDBRANCH   1   5
BRANCH   2  19
HETATM   19  C   UNL     1      43.425 -16.630   4.797  1.00  0.00     0.157 A 
HETATM   20  N   UNL     1      43.497 -16.590   6.147  1.00  0.00    -0.168 NA
HETATM   21  N   UNL     1      43.726 -17.872   6.491  1.00  0.00    -0.277 N 
HETATM   22  H   UNL     1      43.833 -18.095   7.473  1.00  0.00     0.189 HD
HETATM   23  C   UNL     1      43.775 -18.742   5.437  1.00  0.00     0.063 A 
HETATM   24  C   UNL     1      43.582 -17.960   4.306  1.00  0.00     0.029 A 
HETATM   25  C   UNL     1      43.966 -20.126   5.383  1.00  0.00     0.032 A 
HETATM   26  C   UNL     1      43.572 -18.581   3.043  1.00  0.00     0.023 A 
HETATM   27  C   UNL     1      43.751 -19.973   2.953  1.00  0.00    -0.061 A 
HETATM   28  C   UNL     1      43.948 -20.725   4.117  1.00  0.00     0.009 A 
HETATM   29  C   UNL     1      43.725 -20.631   1.603  1.00  0.00     0.048 C 
ENDBRANCH   2  19
TORSDOF 6
ENDMDL
MODEL 4
REMARK VINA RESULT:      -7.8      2.326      2.565
REMARK  6 active torsions:
REMARK  status: ('A' for Active; 'I' for Inactive)
REMARK    1  A    between atoms: C_2  and  N_3 
REMARK       I    between atoms: N_3  and  C_4 
REMARK    2  A    between atoms: C_4  and  C_5 
REMARK    3  A    between atoms: C_5  and  O_6 
REMARK    4  A    between atoms: O_6  and  C_7 
REMARK    5  A    between atoms: C_9  and  N_10 
REMARK       I    between atoms: N_10  and  C_11 
REMARK    6  A    between atoms: C_11  and  C_12 
ROOT
HETATM    1  N   UNL     1      43.136 -11.979   6.911  1.00  0.00    -0.322 N 
HETATM    2  C   UNL     1      42.489 -11.961   5.688  1.00  0.00     0.277 C 
HETATM    3  O   UNL     1      42.560 -11.074   4.844  1.00  0.00    -0.266 OA
HETATM    4  H   UNL     1      42.903 -12.789   7.480  1.00  0.00     0.169 HD
ENDROOT
BRANCH   1   5
HETATM    5  C   UNL     1      44.000 -11.010   7.447  1.00  0.00     0.037 A 
HETATM    6  C   UNL     1      43.561  -9.907   8.180  1.00  0.00     0.066 A 
HETATM    7  C   UNL     1      44.470  -8.986   8.713  1.00  0.00     0.071 A 
HETATM    8  C   UNL     1      45.834  -9.155   8.497  1.00  0.00     0.037 A 
HETATM    9  C   UNL     1      46.284 -10.248   7.754  1.00  0.00     0.005 A 
HETATM   10  C   UNL     1      45.372 -11.169   7.230  1.00  0.00     0.029 A 
BRANCH   7  11
HETATM   11  O   UNL     1      43.887  -7.962   9.402  1.00  0.00    -0.342 OA
BRANCH  11  12
HETATM   12  C   UNL     1      42.695  -8.256  10.127  1.00  0.00     0.278 C 
BRANCH  12  13
HETATM   13  C   UNL     1      43.058  -8.521  11.590  1.00  0.00     0.241 C 
HETATM   14  N   UNL     1      42.783  -7.467  12.436  1.00  0.00    -0.360 N 
HETATM   15  H   UNL     1      42.542  -6.585  11.991  1.00  0.00     0.162 HD
HETATM   16  O   UNL     1      43.509  -9.599  11.967  1.00  0.00    -0.271 OA
BRANCH  14  17
HETATM   17  C   UNL     1      43.124  -7.473  13.839  1.00  0.00     0.118 C 
HETATM   18  C   UNL     1      42.020  -8.091  14.678  1.00  0.00     0.026 C 
ENDBRANCH  14  17
ENDBRANCH  12  13
ENDBRANCH  11  12
ENDBRANCH   7  11
ENDBRANCH   1   5
BRANCH   2  19
HETATM   19  C   UNL     1      41.643 -13.152   5.493  1.00  0.00     0.157 A 
HETATM   20  N   UNL     1      40.553 -13.379   6.261  1.00  0.00    -0.168 NA
HETATM   21  N   UNL     1      40.069 -14.543   5.789  1.00  0.00    -0.277 N 
HETATM   22  H   UNL     1      39.242 -14.933   6.226  1.00  0.00     0.189 HD
HETATM   23  C   UNL     1      40.769 -15.065   4.737  1.00  0.00     0.063 A 
HETATM   24  C   UNL     1      41.813 -14.176   4.515  1.00  0.00     0.029 A 
HETATM   25  C   UNL     1      40.577 -16.220   3.973  1.00  0.00     0.032 A 
HETATM   26  C   UNL     1      42.721 -14.440   3.472  1.00  0.00     0.023 A 
HETATM   27  C   UNL     1      42.550 -15.587   2.677  1.00  0.00    -0.061 A 
HETATM   28  C   UNL     1      41.489 -16.461   2.938  1.00  0.00     0.009 A 
HETATM   29  C   UNL     1      43.514 -15.855   1.557  1.00  0.00     0.048 C 
ENDBRANCH   2  19
TORSDOF 6
ENDMDL
MODEL 5
REMARK VINA RESULT:      -7.8      3.058      8.983
REMARK  6 active torsions:
REMARK  status: ('A' for Active; 'I' for Inactive)
REMARK    1  A    between atoms: C_2  and  N_3 
REMARK       I    between atoms: N_3  and  C_4 
REMARK    2  A    between atoms: C_4  and  C_5 
REMARK    3  A    between atoms: C_5  and  O_6 
REMARK    4  A    between atoms: O_6  and  C_7 
REMARK    5  A    between atoms: C_9  and  N_10 
REMARK       I    between atoms: N_10  and  C_11 
REMARK    6  A    between atoms: C_11  and  C_12 
ROOT
HETATM    1  N   UNL     1      43.391 -13.440   6.175  1.00  0.00    -0.322 N 
HETATM    2  C   UNL     1      43.488 -12.119   5.777  1.00  0.00     0.277 C 
HETATM    3  O   UNL     1      42.790 -11.562   4.936  1.00  0.00    -0.266 OA
HETATM    4  H   UNL     1      44.099 -13.712   6.853  1.00  0.00     0.169 HD
ENDROOT
BRANCH   1   5
HETATM    5  C   UNL     1      42.489 -14.417   5.719  1.00  0.00     0.037 A 
HETATM    6  C   UNL     1      42.596 -15.043   4.477  1.00  0.00     0.066 A 
HETATM    7  C   UNL     1      41.683 -16.029   4.086  1.00  0.00     0.071 A 
HETATM    8  C   UNL     1      40.638 -16.383   4.935  1.00  0.00     0.037 A 
HETATM    9  C   UNL     1      40.515 -15.753   6.175  1.00  0.00     0.005 A 
HETATM   10  C   UNL     1      41.434 -14.775   6.564  1.00  0.00     0.029 A 
BRANCH   7  11
HETATM   11  O   UNL     1      41.918 -16.545   2.844  1.00  0.00    -0.342 OA
BRANCH  11  12
HETATM   12  C   UNL     1      42.277 -15.629   1.812  1.00  0.00     0.278 C 
BRANCH  12  13
HETATM   13  C   UNL     1      41.011 -15.201   1.068  1.00  0.00     0.241 C 
HETATM   14  N   UNL     1      41.191 -14.119   0.232  1.00  0.00    -0.360 N 
HETATM   15  H   UNL     1      42.071 -13.619   0.327  1.00  0.00     0.162 HD
HETATM   16  O   UNL     1      39.949 -15.807   1.180  1.00  0.00    -0.271 OA
BRANCH  14  17
HETATM   17  C   UNL     1      40.110 -13.499  -0.498  1.00  0.00     0.118 C 
HETATM   18  C   UNL     1      40.017 -14.036  -1.915  1.00  0.00     0.026 C 
ENDBRANCH  14  17
ENDBRANCH  12  13
ENDBRANCH  11  12
ENDBRANCH   7  11
ENDBRANCH   1   5
BRANCH   2  19
HETATM   19  C   UNL     1      44.582 -11.413   6.469  1.00  0.00     0.157 A 
HETATM   20  N   UNL     1      45.758 -11.154   5.854  1.00  0.00    -0.168 NA
HETATM   21  N   UNL     1      46.478 -10.521   6.800  1.00  0.00    -0.277 N 
HETATM   22  H   UNL     1      47.423 -10.233   6.573  1.00  0.00     0.189 HD
HETATM   23  C   UNL     1      45.819 -10.329   7.982  1.00  0.00     0.063 A 
HETATM   24  C   UNL     1      44.568 -10.904   7.801  1.00  0.00     0.029 A 
HETATM   25  C   UNL     1      46.207  -9.709   9.173  1.00  0.00     0.032 A 
HETATM   26  C   UNL     1      43.640 -10.861   8.860  1.00  0.00     0.023 A 
HETATM   27  C   UNL     1      43.994 -10.234  10.068  1.00  0.00    -0.061 A 
HETATM   28  C   UNL     1      45.268  -9.672  10.211  1.00  0.00     0.009 A 
HETATM   29  C   UNL     1      42.994 -10.178  11.187  1.00  0.00     0.048 C 
ENDBRANCH   2  19
TORSDOF 6
ENDMDL
MODEL 6
REMARK VINA RESULT:      -7.8      6.372      8.327
REMARK  6 active torsions:
REMARK  status: ('A' for Active; 'I' for Inactive)
REMARK    1  A    between atoms: C_2  and  N_3 
REMARK       I    between atoms: N_3  and  C_4 
REMARK    2  A    between atoms: C_4  and  C_5 
REMARK    3  A    between atoms: C_5  and  O_6 
REMARK    4  A    between atoms: O_6  and  C_7 
REMARK    5  A    between atoms: C_9  and  N_10 
REMARK       I    between atoms: N_10  and  C_11 
REMARK    6  A    between atoms: C_11  and  C_12 
ROOT
HETATM    1  N   UNL     1      41.019 -14.528   1.174  1.00  0.00    -0.322 N 
HETATM    2  C   UNL     1      40.590 -15.358   2.193  1.00  0.00     0.277 C 
HETATM    3  O   UNL     1      39.446 -15.764   2.365  1.00  0.00    -0.266 OA
HETATM    4  H   UNL     1      42.002 -14.275   1.244  1.00  0.00     0.169 HD
ENDROOT
BRANCH   1   5
HETATM    5  C   UNL     1      40.258 -13.977   0.129  1.00  0.00     0.037 A 
HETATM    6  C   UNL     1      40.026 -12.609  -0.016  1.00  0.00     0.066 A 
HETATM    7  C   UNL     1      39.281 -12.114  -1.093  1.00  0.00     0.071 A 
HETATM    8  C   UNL     1      38.744 -12.994  -2.027  1.00  0.00     0.037 A 
HETATM    9  C   UNL     1      38.959 -14.366  -1.884  1.00  0.00     0.005 A 
HETATM   10  C   UNL     1      39.711 -14.855  -0.812  1.00  0.00     0.029 A 
BRANCH   7  11
HETATM   11  O   UNL     1      39.139 -10.756  -1.095  1.00  0.00    -0.342 OA
BRANCH  11  12
HETATM   12  C   UNL     1      37.836 -10.233  -0.845  1.00  0.00     0.278 C 
BRANCH  12  13
HETATM   13  C   UNL     1      37.528 -10.366   0.648  1.00  0.00     0.241 C 
HETATM   14  N   UNL     1      38.361  -9.625   1.461  1.00  0.00    -0.360 N 
HETATM   15  H   UNL     1      39.181  -9.222   1.015  1.00  0.00     0.162 HD
HETATM   16  O   UNL     1      36.589 -11.038   1.065  1.00  0.00    -0.271 OA
BRANCH  14  17
HETATM   17  C   UNL     1      38.299  -9.672   2.902  1.00  0.00     0.118 C 
HETATM   18  C   UNL     1      39.173 -10.780   3.461  1.00  0.00     0.026 C 
ENDBRANCH  14  17
ENDBRANCH  12  13
ENDBRANCH  11  12
ENDBRANCH   7  11
ENDBRANCH   1   5
BRANCH   2  19
HETATM   19  C   UNL     1      41.684 -15.707   3.118  1.00  0.00     0.157 A 
HETATM   20  N   UNL     1      42.041 -14.889   4.134  1.00  0.00    -0.168 NA
HETATM   21  N   UNL     1      43.059 -15.542   4.726  1.00  0.00    -0.277 N 
HETATM   22  H   UNL     1      43.510 -15.108   5.523  1.00  0.00     0.189 HD
HETATM   23  C   UNL     1      43.358 -16.753   4.166  1.00  0.00     0.063 A 
HETATM   24  C   UNL     1      42.474 -16.895   3.105  1.00  0.00     0.029 A 
HETATM   25  C   UNL     1      44.312 -17.719   4.497  1.00  0.00     0.032 A 
HETATM   26  C   UNL     1      42.531 -18.066   2.324  1.00  0.00     0.023 A 
HETATM   27  C   UNL     1      43.471 -19.063   2.637  1.00  0.00    -0.061 A 
HETATM   28  C   UNL     1      44.349 -18.878   3.712  1.00  0.00     0.009 A 
HETATM   29  C   UNL     1      43.517 -20.315   1.809  1.00  0.00     0.048 C 
ENDBRANCH   2  19
TORSDOF 6
ENDMDL
MODEL 7
REMARK VINA RESULT:      -7.7      5.969      7.425
REMARK  6 active torsions:
REMARK  status: ('A' for Active; 'I' for Inactive)
REMARK    1  A    between atoms: C_2  and  N_3 
REMARK       I    between atoms: N_3  and  C_4 
REMARK    2  A    between atoms: C_4  and  C_5 
REMARK    3  A    between atoms: C_5  and  O_6 
REMARK    4  A    between atoms: O_6  and  C_7 
REMARK    5  A    between atoms: C_9  and  N_10 
REMARK       I    between atoms: N_10  and  C_11 
REMARK    6  A    between atoms: C_11  and  C_12 
ROOT
HETATM    1  N   UNL     1      41.267 -14.967   2.250  1.00  0.00    -0.322 N 
HETATM    2  C   UNL     1      42.609 -14.807   2.548  1.00  0.00     0.277 C 
HETATM    3  O   UNL     1      43.387 -14.036   1.996  1.00  0.00    -0.266 OA
HETATM    4  H   UNL     1      40.815 -15.694   2.799  1.00  0.00     0.169 HD
ENDROOT
BRANCH   1   5
HETATM    5  C   UNL     1      40.512 -14.297   1.272  1.00  0.00     0.037 A 
HETATM    6  C   UNL     1      40.032 -12.997   1.426  1.00  0.00     0.066 A 
HETATM    7  C   UNL     1      39.307 -12.369   0.407  1.00  0.00     0.071 A 
HETATM    8  C   UNL     1      39.039 -13.053  -0.775  1.00  0.00     0.037 A 
HETATM    9  C   UNL     1      39.504 -14.361  -0.935  1.00  0.00     0.005 A 
HETATM   10  C   UNL     1      40.234 -14.979   0.083  1.00  0.00     0.029 A 
BRANCH   7  11
HETATM   11  O   UNL     1      38.905 -11.100   0.709  1.00  0.00    -0.342 OA
BRANCH  11  12
HETATM   12  C   UNL     1      37.853 -10.956   1.661  1.00  0.00     0.278 C 
BRANCH  12  13
HETATM   13  C   UNL     1      38.312  -9.999   2.763  1.00  0.00     0.241 C 
HETATM   14  N   UNL     1      37.473  -8.920   2.953  1.00  0.00    -0.360 N 
HETATM   15  H   UNL     1      36.757  -8.778   2.246  1.00  0.00     0.162 HD
HETATM   16  O   UNL     1      39.313 -10.212   3.440  1.00  0.00    -0.271 OA
BRANCH  14  17
HETATM   17  C   UNL     1      37.761  -7.853   3.882  1.00  0.00     0.118 C 
HETATM   18  C   UNL     1      38.522  -6.723   3.212  1.00  0.00     0.026 C 
ENDBRANCH  14  17
ENDBRANCH  12  13
ENDBRANCH  11  12
ENDBRANCH   7  11
ENDBRANCH   1   5
BRANCH   2  19
HETATM   19  C   UNL     1      43.046 -15.712   3.626  1.00  0.00     0.157 A 
HETATM   20  N   UNL     1      43.216 -15.273   4.894  1.00  0.00    -0.168 NA
HETATM   21  N   UNL     1      43.621 -16.371   5.559  1.00  0.00    -0.277 N 
HETATM   22  H   UNL     1      43.830 -16.286   6.547  1.00  0.00     0.189 HD
HETATM   23  C   UNL     1      43.692 -17.503   4.796  1.00  0.00     0.063 A 
HETATM   24  C   UNL     1      43.321 -17.107   3.517  1.00  0.00     0.029 A 
HETATM   25  C   UNL     1      44.041 -18.819   5.114  1.00  0.00     0.032 A 
HETATM   26  C   UNL     1      43.288 -18.070   2.490  1.00  0.00     0.023 A 
HETATM   27  C   UNL     1      43.623 -19.405   2.778  1.00  0.00    -0.061 A 
HETATM   28  C   UNL     1      43.997 -19.762   4.079  1.00  0.00     0.009 A 
HETATM   29  C   UNL     1      43.572 -20.429   1.681  1.00  0.00     0.048 C 
ENDBRANCH   2  19
TORSDOF 6
ENDMDL
MODEL 8
REMARK VINA RESULT:      -7.5      4.375      7.132
REMARK  6 active torsions:
REMARK  status: ('A' for Active; 'I' for Inactive)
REMARK    1  A    between atoms: C_2  and  N_3 
REMARK       I    between atoms: N_3  and  C_4 
REMARK    2  A    between atoms: C_4  and  C_5 
REMARK    3  A    between atoms: C_5  and  O_6 
REMARK    4  A    between atoms: O_6  and  C_7 
REMARK    5  A    between atoms: C_9  and  N_10 
REMARK       I    between atoms: N_10  and  C_11 
REMARK    6  A    between atoms: C_11  and  C_12 
ROOT
HETATM    1  N   UNL     1      41.373 -14.211   5.694  1.00  0.00    -0.322 N 
HETATM    2  C   UNL     1      42.702 -14.321   6.063  1.00  0.00     0.277 C 
HETATM    3  O   UNL     1      43.531 -13.417   6.068  1.00  0.00    -0.266 OA
HETATM    4  H   UNL     1      40.871 -15.095   5.720  1.00  0.00     0.169 HD
ENDROOT
BRANCH   1   5
HETATM    5  C   UNL     1      40.690 -13.064   5.254  1.00  0.00     0.037 A 
HETATM    6  C   UNL     1      40.865 -12.501   3.990  1.00  0.00     0.066 A 
HETATM    7  C   UNL     1      40.138 -11.373   3.595  1.00  0.00     0.071 A 
HETATM    8  C   UNL     1      39.238 -10.785   4.479  1.00  0.00     0.037 A 
HETATM    9  C   UNL     1      39.064 -11.332   5.751  1.00  0.00     0.005 A 
HETATM   10  C   UNL     1      39.788 -12.464   6.137  1.00  0.00     0.029 A 
BRANCH   7  11
HETATM   11  O   UNL     1      40.422 -10.940   2.332  1.00  0.00    -0.342 OA
BRANCH  11  12
HETATM   12  C   UNL     1      39.535 -11.338   1.289  1.00  0.00     0.278 C 
BRANCH  12  13
HETATM   13  C   UNL     1      40.086 -12.603   0.627  1.00  0.00     0.241 C 
HETATM   14  N   UNL     1      39.542 -13.773   1.114  1.00  0.00    -0.360 N 
HETATM   15  H   UNL     1      38.983 -13.690   1.959  1.00  0.00     0.162 HD
HETATM   16  O   UNL     1      40.904 -12.560  -0.288  1.00  0.00    -0.271 OA
BRANCH  14  17
HETATM   17  C   UNL     1      39.981 -15.082   0.691  1.00  0.00     0.118 C 
HETATM   18  C   UNL     1      40.555 -15.878   1.849  1.00  0.00     0.026 C 
ENDBRANCH  14  17
ENDBRANCH  12  13
ENDBRANCH  11  12
ENDBRANCH   7  11
ENDBRANCH   1   5
BRANCH   2  19
HETATM   19  C   UNL     1      43.056 -15.700   6.444  1.00  0.00     0.157 A 
HETATM   20  N   UNL     1      43.190 -16.066   7.739  1.00  0.00    -0.168 NA
HETATM   21  N   UNL     1      43.521 -17.369   7.670  1.00  0.00    -0.277 N 
HETATM   22  H   UNL     1      43.691 -17.869   8.534  1.00  0.00     0.189 HD
HETATM   23  C   UNL     1      43.578 -17.873   6.400  1.00  0.00     0.063 A 
HETATM   24  C   UNL     1      43.279 -16.803   5.567  1.00  0.00     0.029 A 
HETATM   25  C   UNL     1      43.860 -19.156   5.921  1.00  0.00     0.032 A 
HETATM   26  C   UNL     1      43.251 -17.012   4.174  1.00  0.00     0.023 A 
HETATM   27  C   UNL     1      43.519 -18.293   3.660  1.00  0.00    -0.061 A 
HETATM   28  C   UNL     1      43.823 -19.344   4.534  1.00  0.00     0.009 A 
HETATM   29  C   UNL     1      43.473 -18.512   2.175  1.00  0.00     0.048 C 
ENDBRANCH   2  19
TORSDOF 6
ENDMDL
MODEL 9
REMARK VINA RESULT:      -7.4     17.562     19.707
REMARK  6 active torsions:
REMARK  status: ('A' for Active; 'I' for Inactive)
REMARK    1  A    between atoms: C_2  and  N_3 
REMARK       I    between atoms: N_3  and  C_4 
REMARK    2  A    between atoms: C_4  and  C_5 
REMARK    3  A    between atoms: C_5  and  O_6 
REMARK    4  A    between atoms: O_6  and  C_7 
REMARK    5  A    between atoms: C_9  and  N_10 
REMARK       I    between atoms: N_10  and  C_11 
REMARK    6  A    between atoms: C_11  and  C_12 
ROOT
HETATM    1  N   UNL     1      48.813 -30.411   3.274  1.00  0.00    -0.322 N 
HETATM    2  C   UNL     1      48.580 -29.055   3.134  1.00  0.00     0.277 C 
HETATM    3  O   UNL     1      48.965 -28.171   3.892  1.00  0.00    -0.266 OA
HETATM    4  H   UNL     1      48.364 -30.975   2.557  1.00  0.00     0.169 HD
ENDROOT
BRANCH   1   5
HETATM    5  C   UNL     1      49.530 -31.066   4.290  1.00  0.00     0.037 A 
HETATM    6  C   UNL     1      50.881 -30.835   4.551  1.00  0.00     0.066 A 
HETATM    7  C   UNL     1      51.537 -31.497   5.595  1.00  0.00     0.071 A 
HETATM    8  C   UNL     1      50.845 -32.416   6.377  1.00  0.00     0.037 A 
HETATM    9  C   UNL     1      49.496 -32.664   6.116  1.00  0.00     0.005 A 
HETATM   10  C   UNL     1      48.843 -31.995   5.078  1.00  0.00     0.029 A 
BRANCH   7  11
HETATM   11  O   UNL     1      52.856 -31.167   5.722  1.00  0.00    -0.342 OA
BRANCH  11  12
HETATM   12  C   UNL     1      53.660 -31.994   6.559  1.00  0.00     0.278 C 
BRANCH  12  13
HETATM   13  C   UNL     1      53.951 -31.247   7.862  1.00  0.00     0.241 C 
HETATM   14  N   UNL     1      53.554 -31.923   8.997  1.00  0.00    -0.360 N 
HETATM   15  H   UNL     1      52.965 -32.739   8.850  1.00  0.00     0.162 HD
HETATM   16  O   UNL     1      54.531 -30.165   7.880  1.00  0.00    -0.271 OA
BRANCH  14  17
HETATM   17  C   UNL     1      53.656 -31.362  10.323  1.00  0.00     0.118 C 
HETATM   18  C   UNL     1      54.305 -32.336  11.290  1.00  0.00     0.026 C 
ENDBRANCH  14  17
ENDBRANCH  12  13
ENDBRANCH  11  12
ENDBRANCH   7  11
ENDBRANCH   1   5
BRANCH   2  19
HETATM   19  C   UNL     1      47.760 -28.755   1.946  1.00  0.00     0.157 A 
HETATM   20  N   UNL     1      46.559 -28.141   2.051  1.00  0.00    -0.168 NA
HETATM   21  N   UNL     1      46.132 -28.060   0.776  1.00  0.00    -0.277 N 
HETATM   22  H   UNL     1      45.228 -27.640   0.598  1.00  0.00     0.189 HD
HETATM   23  C   UNL     1      47.007 -28.559  -0.149  1.00  0.00     0.063 A 
HETATM   24  C   UNL     1      48.089 -29.026   0.585  1.00  0.00     0.029 A 
HETATM   25  C   UNL     1      46.941 -28.637  -1.543  1.00  0.00     0.032 A 
HETATM   26  C   UNL     1      49.177 -29.602  -0.099  1.00  0.00     0.023 A 
HETATM   27  C   UNL     1      49.148 -29.685  -1.503  1.00  0.00    -0.061 A 
HETATM   28  C   UNL     1      48.035 -29.208  -2.204  1.00  0.00     0.009 A 
HETATM   29  C   UNL     1      50.318 -30.287  -2.227  1.00  0.00     0.048 C 
ENDBRANCH   2  19
TORSDOF 6
ENDMDL
MODEL 10
REMARK VINA RESULT:      -7.3      2.115      9.469
REMARK  6 active torsions:
REMARK  status: ('A' for Active; 'I' for Inactive)
REMARK    1  A    between atoms: C_2  and  N_3 
REMARK       I    between atoms: N_3  and  C_4 
REMARK    2  A    between atoms: C_4  and  C_5 
REMARK    3  A    between atoms: C_5  and  O_6 
REMARK    4  A    between atoms: O_6  and  C_7 
REMARK    5  A    between atoms: C_9  and  N_10 
REMARK       I    between atoms: N_10  and  C_11 
REMARK    6  A    between atoms: C_11  and  C_12 
ROOT
HETATM    1  N   UNL     1      42.891  -9.715   9.642  1.00  0.00    -0.322 N 
HETATM    2  C   UNL     1      42.669 -10.020  10.973  1.00  0.00     0.277 C 
HETATM    3  O   UNL     1      43.381 -10.719  11.686  1.00  0.00    -0.266 OA
HETATM    4  H   UNL     1      42.151  -9.156   9.226  1.00  0.00     0.169 HD
ENDROOT
BRANCH   1   5
HETATM    5  C   UNL     1      43.960 -10.126   8.827  1.00  0.00     0.037 A 
HETATM    6  C   UNL     1      43.918 -11.260   8.016  1.00  0.00     0.066 A 
HETATM    7  C   UNL     1      45.004 -11.607   7.204  1.00  0.00     0.071 A 
HETATM    8  C   UNL     1      46.155 -10.825   7.215  1.00  0.00     0.037 A 
HETATM    9  C   UNL     1      46.213  -9.696   8.034  1.00  0.00     0.005 A 
HETATM   10  C   UNL     1      45.122  -9.349   8.836  1.00  0.00     0.029 A 
BRANCH   7  11
HETATM   11  O   UNL     1      44.812 -12.743   6.472  1.00  0.00    -0.342 OA
BRANCH  11  12
HETATM   12  C   UNL     1      43.675 -13.543   6.790  1.00  0.00     0.278 C 
BRANCH  12  13
HETATM   13  C   UNL     1      42.884 -13.810   5.507  1.00  0.00     0.241 C 
HETATM   14  N   UNL     1      42.981 -15.107   5.049  1.00  0.00    -0.360 N 
HETATM   15  H   UNL     1      43.689 -15.688   5.492  1.00  0.00     0.162 HD
HETATM   16  O   UNL     1      42.191 -12.948   4.974  1.00  0.00    -0.271 OA
BRANCH  14  17
HETATM   17  C   UNL     1      42.384 -15.552   3.812  1.00  0.00     0.118 C 
HETATM   18  C   UNL     1      43.263 -16.568   3.104  1.00  0.00     0.026 C 
ENDBRANCH  14  17
ENDBRANCH  12  13
ENDBRANCH  11  12
ENDBRANCH   7  11
ENDBRANCH   1   5
BRANCH   2  19
HETATM   19  C   UNL     1      41.419  -9.421  11.475  1.00  0.00     0.157 A 
HETATM   20  N   UNL     1      40.236  -9.623  10.851  1.00  0.00    -0.168 NA
HETATM   21  N   UNL     1      39.361  -8.917  11.593  1.00  0.00    -0.277 N 
HETATM   22  H   UNL     1      38.389  -8.904  11.307  1.00  0.00     0.189 HD
HETATM   23  C   UNL     1      39.910  -8.296  12.680  1.00  0.00     0.063 A 
HETATM   24  C   UNL     1      41.263  -8.605  12.635  1.00  0.00     0.029 A 
HETATM   25  C   UNL     1      39.342  -7.505  13.683  1.00  0.00     0.032 A 
HETATM   26  C   UNL     1      42.109  -8.106  13.644  1.00  0.00     0.023 A 
HETATM   27  C   UNL     1      41.568  -7.317  14.675  1.00  0.00    -0.061 A 
HETATM   28  C   UNL     1      40.200  -7.024  14.681  1.00  0.00     0.009 A 
HETATM   29  C   UNL     1      42.473  -6.801  15.756  1.00  0.00     0.048 C 
ENDBRANCH   2  19
TORSDOF 6
ENDMDL
