MODEL 1
REMARK VINA RESULT:      -8.3      0.000      0.000
REMARK  7 active torsions:
REMARK  status: ('A' for Active; 'I' for Inactive)
REMARK    1  A    between atoms: C_4  and  C_5 
REMARK    2  A    between atoms: C_7  and  C_8 
REMARK    3  A    between atoms: C_8  and  N_9 
REMARK       I    between atoms: N_9  and  C_10 
REMARK       I    between atoms: C_10  and  N_11 
REMARK    4  A    between atoms: N_11  and  C_12 
REMARK    5  A    between atoms: C_14  and  O_15 
REMARK    6  A    between atoms: O_15  and  C_16 
REMARK    7  A    between atoms: C_16  and  C_17 
ROOT
HETATM    1  N   UNL     1      42.533 -12.885   4.919  1.00  0.00    -0.339 N 
HETATM    2  C   UNL     1      41.272 -13.320   5.203  1.00  0.00     0.320 C 
HETATM    3  N   UNL     1      41.038 -14.657   5.101  1.00  0.00    -0.309 N 
HETATM    4  O   UNL     1      40.381 -12.579   5.610  1.00  0.00    -0.247 OA
HETATM    5  H   UNL     1      43.233 -13.559   5.192  1.00  0.00     0.164 HD
HETATM    6  H   UNL     1      40.169 -14.907   5.559  1.00  0.00     0.170 HD
ENDROOT
BRANCH   1   7
HETATM    7  C   UNL     1      42.860 -11.495   5.160  1.00  0.00     0.162 C 
BRANCH   7   8
HETATM    8  C   UNL     1      43.856 -11.248   6.268  1.00  0.00    -0.040 A 
HETATM    9  C   UNL     1      43.493 -10.925   7.584  1.00  0.00     0.024 A 
HETATM   10  C   UNL     1      44.462 -10.649   8.565  1.00  0.00     0.014 A 
HETATM   11  C   UNL     1      45.816 -10.693   8.214  1.00  0.00     0.015 A 
HETATM   12  C   UNL     1      46.196 -11.010   6.910  1.00  0.00     0.002 A 
HETATM   13  C   UNL     1      45.223 -11.281   5.947  1.00  0.00     0.009 A 
BRANCH  10  14
HETATM   14  C   UNL     1      44.066 -10.322   9.931  1.00  0.00     0.181 A 
HETATM   15  N   UNL     1      43.913  -9.025  10.370  1.00  0.00    -0.212 NA
HETATM   16  C   UNL     1      43.566  -9.156  11.631  1.00  0.00     0.118 A 
HETATM   17  C   UNL     1      43.246  -8.088  12.600  1.00  0.00     0.093 C 
HETATM   18  N   UNL     1      43.534 -10.484  11.944  1.00  0.00    -0.263 N 
HETATM   19  N   UNL     1      43.822 -11.244  10.877  1.00  0.00    -0.152 NA
HETATM   20  H   UNL     1      43.330 -10.930  12.831  1.00  0.00     0.190 HD
ENDBRANCH  10  14
ENDBRANCH   7   8
ENDBRANCH   1   7
BRANCH   3  21
HETATM   21  C   UNL     1      41.713 -15.694   4.433  1.00  0.00     0.039 A 
HETATM   22  C   UNL     1      42.652 -16.540   5.039  1.00  0.00     0.066 A 
HETATM   23  C   UNL     1      43.311 -17.519   4.287  1.00  0.00     0.070 A 
HETATM   24  C   UNL     1      43.023 -17.654   2.928  1.00  0.00     0.037 A 
HETATM   25  C   UNL     1      42.106 -16.808   2.312  1.00  0.00     0.005 A 
HETATM   26  C   UNL     1      41.463 -15.824   3.061  1.00  0.00     0.030 A 
BRANCH  23  27
HETATM   27  O   UNL     1      44.262 -18.387   4.750  1.00  0.00    -0.349 OA
BRANCH  27  28
HETATM   28  C   UNL     1      44.244 -19.721   4.232  1.00  0.00     0.207 C 
BRANCH  28  29
HETATM   29  C   UNL     1      44.100 -20.690   5.395  1.00  0.00     0.248 C 
HETATM   30  F   UNL     1      43.265 -20.161   6.335  1.00  0.00    -0.253 F 
ENDBRANCH  28  29
ENDBRANCH  27  28
ENDBRANCH  23  27
ENDBRANCH   3  21
TORSDOF 7
ENDMDL
MODEL 2
REMARK VINA RESULT:      -8.2      1.605      2.078
REMARK  7 active torsions:
REMARK  status: ('A' for Active; 'I' for Inactive)
REMARK    1  A    between atoms: C_4  and  C_5 
REMARK    2  A    between atoms: C_7  and  C_8 
REMARK    3  A    between atoms: C_8  and  N_9 
REMARK       I    between atoms: N_9  and  C_10 
REMARK       I    between atoms: C_10  and  N_11 
REMARK    4  A    between atoms: N_11  and  C_12 
REMARK    5  A    between atoms: C_14  and  O_15 
REMARK    6  A    between atoms: O_15  and  C_16 
REMARK    7  A    between atoms: C_16  and  C_17 
ROOT
HETATM    1  N   UNL     1      43.373 -13.084   5.527  1.00  0.00    -0.339 N 
HETATM    2  C   UNL     1      42.070 -13.390   5.268  1.00  0.00     0.320 C 
HETATM    3  N   UNL     1      41.693 -14.688   5.427  1.00  0.00    -0.309 N 
HETATM    4  O   UNL     1      41.226 -12.546   4.977  1.00  0.00    -0.247 OA
HETATM    5  H   UNL     1      43.750 -13.648   6.274  1.00  0.00     0.164 HD
HETATM    6  H   UNL     1      40.683 -14.770   5.453  1.00  0.00     0.170 HD
ENDROOT
BRANCH   1   7
HETATM    7  C   UNL     1      43.776 -11.693   5.515  1.00  0.00     0.162 C 
BRANCH   7   8
HETATM    8  C   UNL     1      44.407 -11.192   6.793  1.00  0.00    -0.040 A 
HETATM    9  C   UNL     1      43.733 -11.135   8.023  1.00  0.00     0.024 A 
HETATM   10  C   UNL     1      44.349 -10.607   9.172  1.00  0.00     0.014 A 
HETATM   11  C   UNL     1      45.658 -10.122   9.079  1.00  0.00     0.015 A 
HETATM   12  C   UNL     1      46.342 -10.168   7.865  1.00  0.00     0.002 A 
HETATM   13  C   UNL     1      45.719 -10.694   6.733  1.00  0.00     0.009 A 
BRANCH  10  14
HETATM   14  C   UNL     1      43.636 -10.564  10.444  1.00  0.00     0.181 A 
HETATM   15  N   UNL     1      42.572  -9.717  10.672  1.00  0.00    -0.212 NA
HETATM   16  C   UNL     1      42.223  -9.973  11.914  1.00  0.00     0.118 A 
HETATM   17  C   UNL     1      41.118  -9.373  12.687  1.00  0.00     0.093 C 
HETATM   18  N   UNL     1      43.063 -10.921  12.421  1.00  0.00    -0.263 N 
HETATM   19  N   UNL     1      43.950 -11.330  11.501  1.00  0.00    -0.152 NA
HETATM   20  H   UNL     1      43.089 -11.325  13.350  1.00  0.00     0.190 HD
ENDBRANCH  10  14
ENDBRANCH   7   8
ENDBRANCH   1   7
BRANCH   3  21
HETATM   21  C   UNL     1      42.419 -15.892   5.475  1.00  0.00     0.039 A 
HETATM   22  C   UNL     1      42.901 -16.564   4.343  1.00  0.00     0.066 A 
HETATM   23  C   UNL     1      43.578 -17.782   4.480  1.00  0.00     0.070 A 
HETATM   24  C   UNL     1      43.776 -18.322   5.752  1.00  0.00     0.037 A 
HETATM   25  C   UNL     1      43.286 -17.671   6.880  1.00  0.00     0.005 A 
HETATM   26  C   UNL     1      42.600 -16.466   6.739  1.00  0.00     0.030 A 
BRANCH  23  27
HETATM   27  O   UNL     1      44.073 -18.548   3.460  1.00  0.00    -0.349 OA
BRANCH  27  28
HETATM   28  C   UNL     1      43.228 -18.760   2.326  1.00  0.00     0.207 C 
BRANCH  28  29
HETATM   29  C   UNL     1      43.140 -20.255   2.060  1.00  0.00     0.248 C 
HETATM   30  F   UNL     1      44.283 -20.682   1.449  1.00  0.00    -0.253 F 
ENDBRANCH  28  29
ENDBRANCH  27  28
ENDBRANCH  23  27
ENDBRANCH   3  21
TORSDOF 7
ENDMDL
MODEL 3
REMARK VINA RESULT:      -7.9      5.099      8.375
REMARK  7 active torsions:
REMARK  status: ('A' for Active; 'I' for Inactive)
REMARK    1  A    between atoms: C_4  and  C_5 
REMARK    2  A    between atoms: C_7  and  C_8 
REMARK    3  A    between atoms: C_8  and  N_9 
REMARK       I    between atoms: N_9  and  C_10 
REMARK       I    between atoms: C_10  and  N_11 
REMARK    4  A    between atoms: N_11  and  C_12 
REMARK    5  A    between atoms: C_14  and  O_15 
REMARK    6  A    between atoms: O_15  and  C_16 
REMARK    7  A    between atoms: C_16  and  C_17 
ROOT
HETATM    1  N   UNL     1      41.821 -13.729   4.205  1.00  0.00    -0.339 N 
HETATM    2  C   UNL     1      40.519 -13.472   4.520  1.00  0.00     0.320 C 
HETATM    3  N   UNL     1      39.595 -13.648   3.537  1.00  0.00    -0.309 N 
HETATM    4  O   UNL     1      40.149 -13.168   5.651  1.00  0.00    -0.247 OA
HETATM    5  H   UNL     1      41.904 -14.484   3.541  1.00  0.00     0.164 HD
HETATM    6  H   UNL     1      38.658 -13.674   3.923  1.00  0.00     0.170 HD
ENDROOT
BRANCH   1   7
HETATM    7  C   UNL     1      42.811 -13.698   5.261  1.00  0.00     0.162 C 
BRANCH   7   8
HETATM    8  C   UNL     1      43.184 -15.044   5.837  1.00  0.00    -0.040 A 
HETATM    9  C   UNL     1      43.324 -16.208   5.067  1.00  0.00     0.024 A 
HETATM   10  C   UNL     1      43.618 -17.448   5.661  1.00  0.00     0.014 A 
HETATM   11  C   UNL     1      43.766 -17.518   7.051  1.00  0.00     0.015 A 
HETATM   12  C   UNL     1      43.628 -16.372   7.832  1.00  0.00     0.002 A 
HETATM   13  C   UNL     1      43.336 -15.148   7.229  1.00  0.00     0.009 A 
BRANCH  10  14
HETATM   14  C   UNL     1      43.768 -18.648   4.843  1.00  0.00     0.181 A 
HETATM   15  N   UNL     1      43.611 -18.639   3.474  1.00  0.00    -0.212 NA
HETATM   16  C   UNL     1      43.815 -19.889   3.123  1.00  0.00     0.118 A 
HETATM   17  C   UNL     1      43.797 -20.464   1.763  1.00  0.00     0.093 C 
HETATM   18  N   UNL     1      44.062 -20.627   4.244  1.00  0.00    -0.263 N 
HETATM   19  N   UNL     1      44.063 -19.859   5.344  1.00  0.00    -0.152 NA
HETATM   20  H   UNL     1      44.234 -21.622   4.333  1.00  0.00     0.190 HD
ENDBRANCH  10  14
ENDBRANCH   7   8
ENDBRANCH   1   7
BRANCH   3  21
HETATM   21  C   UNL     1      39.696 -13.714   2.136  1.00  0.00     0.039 A 
HETATM   22  C   UNL     1      39.561 -12.608   1.285  1.00  0.00     0.066 A 
HETATM   23  C   UNL     1      39.632 -12.771  -0.103  1.00  0.00     0.070 A 
HETATM   24  C   UNL     1      39.845 -14.043  -0.638  1.00  0.00     0.037 A 
HETATM   25  C   UNL     1      39.962 -15.150   0.197  1.00  0.00     0.005 A 
HETATM   26  C   UNL     1      39.875 -14.986   1.578  1.00  0.00     0.030 A 
BRANCH  23  27
HETATM   27  O   UNL     1      39.493 -11.783  -1.039  1.00  0.00    -0.349 OA
BRANCH  27  28
HETATM   28  C   UNL     1      39.472 -12.178  -2.414  1.00  0.00     0.207 C 
BRANCH  28  29
HETATM   29  C   UNL     1      40.653 -11.532  -3.122  1.00  0.00     0.248 C 
HETATM   30  F   UNL     1      41.694 -12.413  -3.177  1.00  0.00    -0.253 F 
ENDBRANCH  28  29
ENDBRANCH  27  28
ENDBRANCH  23  27
ENDBRANCH   3  21
TORSDOF 7
ENDMDL
MODEL 4
REMARK VINA RESULT:      -7.6      3.535      9.473
REMARK  7 active torsions:
REMARK  status: ('A' for Active; 'I' for Inactive)
REMARK    1  A    between atoms: C_4  and  C_5 
REMARK    2  A    between atoms: C_7  and  C_8 
REMARK    3  A    between atoms: C_8  and  N_9 
REMARK       I    between atoms: N_9  and  C_10 
REMARK       I    between atoms: C_10  and  N_11 
REMARK    4  A    between atoms: N_11  and  C_12 
REMARK    5  A    between atoms: C_14  and  O_15 
REMARK    6  A    between atoms: O_15  and  C_16 
REMARK    7  A    between atoms: C_16  and  C_17 
ROOT
HETATM    1  N   UNL     1      42.776 -12.178   6.853  1.00  0.00    -0.339 N 
HETATM    2  C   UNL     1      43.587 -11.237   6.289  1.00  0.00     0.320 C 
HETATM    3  N   UNL     1      44.308 -10.450   7.134  1.00  0.00    -0.309 N 
HETATM    4  O   UNL     1      43.745 -11.126   5.076  1.00  0.00    -0.247 OA
HETATM    5  H   UNL     1      43.169 -12.550   7.704  1.00  0.00     0.164 HD
HETATM    6  H   UNL     1      45.045  -9.966   6.636  1.00  0.00     0.170 HD
ENDROOT
BRANCH   1   7
HETATM    7  C   UNL     1      42.111 -13.130   5.989  1.00  0.00     0.162 C 
BRANCH   7   8
HETATM    8  C   UNL     1      42.668 -14.534   6.024  1.00  0.00    -0.040 A 
HETATM    9  C   UNL     1      42.674 -15.396   4.917  1.00  0.00     0.024 A 
HETATM   10  C   UNL     1      43.154 -16.714   5.018  1.00  0.00     0.014 A 
HETATM   11  C   UNL     1      43.628 -17.172   6.253  1.00  0.00     0.015 A 
HETATM   12  C   UNL     1      43.627 -16.330   7.364  1.00  0.00     0.002 A 
HETATM   13  C   UNL     1      43.147 -15.025   7.249  1.00  0.00     0.009 A 
BRANCH  10  14
HETATM   14  C   UNL     1      43.161 -17.595   3.854  1.00  0.00     0.181 A 
HETATM   15  N   UNL     1      43.788 -18.822   3.855  1.00  0.00    -0.212 NA
HETATM   16  C   UNL     1      43.575 -19.287   2.643  1.00  0.00     0.118 A 
HETATM   17  C   UNL     1      44.000 -20.585   2.082  1.00  0.00     0.093 C 
HETATM   18  N   UNL     1      42.865 -18.362   1.935  1.00  0.00    -0.263 N 
HETATM   19  N   UNL     1      42.569 -17.292   2.688  1.00  0.00    -0.152 NA
HETATM   20  H   UNL     1      42.557 -18.391   0.969  1.00  0.00     0.190 HD
ENDBRANCH  10  14
ENDBRANCH   7   8
ENDBRANCH   1   7
BRANCH   3  21
HETATM   21  C   UNL     1      44.166 -10.138   8.498  1.00  0.00     0.039 A 
HETATM   22  C   UNL     1      42.943  -9.834   9.112  1.00  0.00     0.066 A 
HETATM   23  C   UNL     1      42.899  -9.490  10.468  1.00  0.00     0.070 A 
HETATM   24  C   UNL     1      44.081  -9.458  11.210  1.00  0.00     0.037 A 
HETATM   25  C   UNL     1      45.302  -9.741  10.606  1.00  0.00     0.005 A 
HETATM   26  C   UNL     1      45.344 -10.068   9.252  1.00  0.00     0.030 A 
BRANCH  23  27
HETATM   27  O   UNL     1      41.780  -9.149  11.177  1.00  0.00    -0.349 OA
BRANCH  27  28
HETATM   28  C   UNL     1      41.785  -9.416  12.583  1.00  0.00     0.207 C 
BRANCH  28  29
HETATM   29  C   UNL     1      40.372  -9.777  13.013  1.00  0.00     0.248 C 
HETATM   30  F   UNL     1      39.792 -10.571  12.067  1.00  0.00    -0.253 F 
ENDBRANCH  28  29
ENDBRANCH  27  28
ENDBRANCH  23  27
ENDBRANCH   3  21
TORSDOF 7
ENDMDL
MODEL 5
REMARK VINA RESULT:      -7.6      4.631      8.158
REMARK  7 active torsions:
REMARK  status: ('A' for Active; 'I' for Inactive)
REMARK    1  A    between atoms: C_4  and  C_5 
REMARK    2  A    between atoms: C_7  and  C_8 
REMARK    3  A    between atoms: C_8  and  N_9 
REMARK       I    between atoms: N_9  and  C_10 
REMARK       I    between atoms: C_10  and  N_11 
REMARK    4  A    between atoms: N_11  and  C_12 
REMARK    5  A    between atoms: C_14  and  O_15 
REMARK    6  A    between atoms: O_15  and  C_16 
REMARK    7  A    between atoms: C_16  and  C_17 
ROOT
HETATM    1  N   UNL     1      41.397 -12.828   4.738  1.00  0.00    -0.339 N 
HETATM    2  C   UNL     1      40.107 -12.936   5.166  1.00  0.00     0.320 C 
HETATM    3  N   UNL     1      39.133 -12.915   4.216  1.00  0.00    -0.309 N 
HETATM    4  O   UNL     1      39.802 -13.124   6.341  1.00  0.00    -0.247 OA
HETATM    5  H   UNL     1      41.534 -13.271   3.842  1.00  0.00     0.164 HD
HETATM    6  H   UNL     1      38.252 -13.242   4.595  1.00  0.00     0.170 HD
ENDROOT
BRANCH   1   7
HETATM    7  C   UNL     1      42.466 -12.997   5.701  1.00  0.00     0.162 C 
BRANCH   7   8
HETATM    8  C   UNL     1      43.143 -14.347   5.685  1.00  0.00    -0.040 A 
HETATM    9  C   UNL     1      42.938 -15.309   4.683  1.00  0.00     0.024 A 
HETATM   10  C   UNL     1      43.551 -16.573   4.746  1.00  0.00     0.014 A 
HETATM   11  C   UNL     1      44.375 -16.876   5.835  1.00  0.00     0.015 A 
HETATM   12  C   UNL     1      44.589 -15.934   6.840  1.00  0.00     0.002 A 
HETATM   13  C   UNL     1      43.974 -14.684   6.766  1.00  0.00     0.009 A 
BRANCH  10  14
HETATM   14  C   UNL     1      43.333 -17.558   3.691  1.00  0.00     0.181 A 
HETATM   15  N   UNL     1      44.031 -18.745   3.626  1.00  0.00    -0.212 NA
HETATM   16  C   UNL     1      43.558 -19.333   2.550  1.00  0.00     0.118 A 
HETATM   17  C   UNL     1      43.926 -20.653   2.001  1.00  0.00     0.093 C 
HETATM   18  N   UNL     1      42.626 -18.518   1.976  1.00  0.00    -0.263 N 
HETATM   19  N   UNL     1      42.447 -17.399   2.694  1.00  0.00    -0.152 NA
HETATM   20  H   UNL     1      42.089 -18.654   1.127  1.00  0.00     0.190 HD
ENDBRANCH  10  14
ENDBRANCH   7   8
ENDBRANCH   1   7
BRANCH   3  21
HETATM   21  C   UNL     1      39.111 -12.461   2.885  1.00  0.00     0.039 A 
HETATM   22  C   UNL     1      39.557 -13.214   1.790  1.00  0.00     0.066 A 
HETATM   23  C   UNL     1      39.540 -12.667   0.502  1.00  0.00     0.070 A 
HETATM   24  C   UNL     1      39.070 -11.367   0.311  1.00  0.00     0.037 A 
HETATM   25  C   UNL     1      38.641 -10.605   1.393  1.00  0.00     0.005 A 
HETATM   26  C   UNL     1      38.673 -11.147   2.676  1.00  0.00     0.030 A 
BRANCH  23  27
HETATM   27  O   UNL     1      39.970 -13.284  -0.641  1.00  0.00    -0.349 OA
BRANCH  27  28
HETATM   28  C   UNL     1      39.132 -13.184  -1.797  1.00  0.00     0.207 C 
BRANCH  28  29
HETATM   29  C   UNL     1      38.871 -14.584  -2.329  1.00  0.00     0.248 C 
HETATM   30  F   UNL     1      39.056 -15.497  -1.332  1.00  0.00    -0.253 F 
ENDBRANCH  28  29
ENDBRANCH  27  28
ENDBRANCH  23  27
ENDBRANCH   3  21
TORSDOF 7
ENDMDL
MODEL 6
REMARK VINA RESULT:      -7.5      4.458      7.698
REMARK  7 active torsions:
REMARK  status: ('A' for Active; 'I' for Inactive)
REMARK    1  A    between atoms: C_4  and  C_5 
REMARK    2  A    between atoms: C_7  and  C_8 
REMARK    3  A    between atoms: C_8  and  N_9 
REMARK       I    between atoms: N_9  and  C_10 
REMARK       I    between atoms: C_10  and  N_11 
REMARK    4  A    between atoms: N_11  and  C_12 
REMARK    5  A    between atoms: C_14  and  O_15 
REMARK    6  A    between atoms: O_15  and  C_16 
REMARK    7  A    between atoms: C_16  and  C_17 
ROOT
HETATM    1  N   UNL     1      41.421 -13.023   4.939  1.00  0.00    -0.339 N 
HETATM    2  C   UNL     1      40.668 -13.735   5.826  1.00  0.00     0.320 C 
HETATM    3  N   UNL     1      41.189 -14.904   6.287  1.00  0.00    -0.309 N 
HETATM    4  O   UNL     1      39.595 -13.334   6.270  1.00  0.00    -0.247 OA
HETATM    5  H   UNL     1      42.408 -13.115   5.128  1.00  0.00     0.164 HD
HETATM    6  H   UNL     1      40.685 -15.227   7.105  1.00  0.00     0.170 HD
ENDROOT
BRANCH   1   7
HETATM    7  C   UNL     1      40.969 -11.707   4.542  1.00  0.00     0.162 C 
BRANCH   7   8
HETATM    8  C   UNL     1      40.836 -11.491   3.053  1.00  0.00    -0.040 A 
HETATM    9  C   UNL     1      40.353 -12.464   2.165  1.00  0.00     0.024 A 
HETATM   10  C   UNL     1      40.301 -12.231   0.780  1.00  0.00     0.014 A 
HETATM   11  C   UNL     1      40.749 -11.004   0.280  1.00  0.00     0.015 A 
HETATM   12  C   UNL     1      41.235 -10.025   1.146  1.00  0.00     0.002 A 
HETATM   13  C   UNL     1      41.280 -10.270   2.519  1.00  0.00     0.009 A 
BRANCH  10  14
HETATM   14  C   UNL     1      39.789 -13.253  -0.128  1.00  0.00     0.181 A 
HETATM   15  N   UNL     1      39.251 -12.950  -1.360  1.00  0.00    -0.212 NA
HETATM   16  C   UNL     1      38.905 -14.120  -1.852  1.00  0.00     0.118 A 
HETATM   17  C   UNL     1      38.297 -14.408  -3.166  1.00  0.00     0.093 C 
HETATM   18  N   UNL     1      39.204 -15.087  -0.938  1.00  0.00    -0.263 N 
HETATM   19  N   UNL     1      39.787 -14.566   0.152  1.00  0.00    -0.152 NA
HETATM   20  H   UNL     1      39.046 -16.087  -0.986  1.00  0.00     0.190 HD
ENDBRANCH  10  14
ENDBRANCH   7   8
ENDBRANCH   1   7
BRANCH   3  21
HETATM   21  C   UNL     1      42.205 -15.750   5.805  1.00  0.00     0.039 A 
HETATM   22  C   UNL     1      42.126 -16.467   4.603  1.00  0.00     0.066 A 
HETATM   23  C   UNL     1      43.166 -17.322   4.220  1.00  0.00     0.070 A 
HETATM   24  C   UNL     1      44.288 -17.452   5.040  1.00  0.00     0.037 A 
HETATM   25  C   UNL     1      44.369 -16.758   6.244  1.00  0.00     0.005 A 
HETATM   26  C   UNL     1      43.324 -15.920   6.629  1.00  0.00     0.030 A 
BRANCH  23  27
HETATM   27  O   UNL     1      43.201 -18.093   3.091  1.00  0.00    -0.349 OA
BRANCH  27  28
HETATM   28  C   UNL     1      44.180 -19.136   3.037  1.00  0.00     0.207 C 
BRANCH  28  29
HETATM   29  C   UNL     1      43.585 -20.321   2.292  1.00  0.00     0.248 C 
HETATM   30  F   UNL     1      42.278 -20.068   1.993  1.00  0.00    -0.253 F 
ENDBRANCH  28  29
ENDBRANCH  27  28
ENDBRANCH  23  27
ENDBRANCH   3  21
TORSDOF 7
ENDMDL
MODEL 7
REMARK VINA RESULT:      -7.3      5.800      9.006
REMARK  7 active torsions:
REMARK  status: ('A' for Active; 'I' for Inactive)
REMARK    1  A    between atoms: C_4  and  C_5 
REMARK    2  A    between atoms: C_7  and  C_8 
REMARK    3  A    between atoms: C_8  and  N_9 
REMARK       I    between atoms: N_9  and  C_10 
REMARK       I    between atoms: C_10  and  N_11 
REMARK    4  A    between atoms: N_11  and  C_12 
REMARK    5  A    between atoms: C_14  and  O_15 
REMARK    6  A    between atoms: O_15  and  C_16 
REMARK    7  A    between atoms: C_16  and  C_17 
ROOT
HETATM    1  N   UNL     1      41.594 -12.796   1.762  1.00  0.00    -0.339 N 
HETATM    2  C   UNL     1      40.286 -12.886   2.136  1.00  0.00     0.320 C 
HETATM    3  N   UNL     1      39.389 -13.249   1.180  1.00  0.00    -0.309 N 
HETATM    4  O   UNL     1      39.906 -12.729   3.293  1.00  0.00    -0.247 OA
HETATM    5  H   UNL     1      41.831 -13.479   1.058  1.00  0.00     0.164 HD
HETATM    6  H   UNL     1      38.507 -13.524   1.597  1.00  0.00     0.170 HD
ENDROOT
BRANCH   1   7
HETATM    7  C   UNL     1      42.594 -12.559   2.781  1.00  0.00     0.162 C 
BRANCH   7   8
HETATM    8  C   UNL     1      42.809 -13.696   3.752  1.00  0.00    -0.040 A 
HETATM    9  C   UNL     1      43.083 -15.015   3.359  1.00  0.00     0.024 A 
HETATM   10  C   UNL     1      43.219 -16.048   4.303  1.00  0.00     0.014 A 
HETATM   11  C   UNL     1      43.071 -15.750   5.662  1.00  0.00     0.015 A 
HETATM   12  C   UNL     1      42.796 -14.446   6.072  1.00  0.00     0.002 A 
HETATM   13  C   UNL     1      42.663 -13.431   5.124  1.00  0.00     0.009 A 
BRANCH  10  14
HETATM   14  C   UNL     1      43.512 -17.412   3.875  1.00  0.00     0.181 A 
HETATM   15  N   UNL     1      42.983 -17.961   2.726  1.00  0.00    -0.212 NA
HETATM   16  C   UNL     1      43.472 -19.182   2.704  1.00  0.00     0.118 A 
HETATM   17  C   UNL     1      43.260 -20.225   1.681  1.00  0.00     0.093 C 
HETATM   18  N   UNL     1      44.247 -19.366   3.812  1.00  0.00    -0.263 N 
HETATM   19  N   UNL     1      44.309 -18.252   4.556  1.00  0.00    -0.152 NA
HETATM   20  H   UNL     1      44.748 -20.194   4.114  1.00  0.00     0.190 HD
ENDBRANCH  10  14
ENDBRANCH   7   8
ENDBRANCH   1   7
BRANCH   3  21
HETATM   21  C   UNL     1      39.436 -13.233  -0.226  1.00  0.00     0.039 A 
HETATM   22  C   UNL     1      39.295 -12.075  -1.004  1.00  0.00     0.066 A 
HETATM   23  C   UNL     1      39.311 -12.156  -2.401  1.00  0.00     0.070 A 
HETATM   24  C   UNL     1      39.475 -13.398  -3.018  1.00  0.00     0.037 A 
HETATM   25  C   UNL     1      39.598 -14.555  -2.255  1.00  0.00     0.005 A 
HETATM   26  C   UNL     1      39.566 -14.472  -0.865  1.00  0.00     0.030 A 
BRANCH  23  27
HETATM   27  O   UNL     1      39.160 -11.111  -3.271  1.00  0.00    -0.349 OA
BRANCH  27  28
HETATM   28  C   UNL     1      39.506  -9.806  -2.799  1.00  0.00     0.207 C 
BRANCH  28  29
HETATM   29  C   UNL     1      40.821  -9.392  -3.440  1.00  0.00     0.248 C 
HETATM   30  F   UNL     1      41.187 -10.313  -4.377  1.00  0.00    -0.253 F 
ENDBRANCH  28  29
ENDBRANCH  27  28
ENDBRANCH  23  27
ENDBRANCH   3  21
TORSDOF 7
ENDMDL
MODEL 8
REMARK VINA RESULT:      -7.2      4.025      9.443
REMARK  7 active torsions:
REMARK  status: ('A' for Active; 'I' for Inactive)
REMARK    1  A    between atoms: C_4  and  C_5 
REMARK    2  A    between atoms: C_7  and  C_8 
REMARK    3  A    between atoms: C_8  and  N_9 
REMARK       I    between atoms: N_9  and  C_10 
REMARK       I    between atoms: C_10  and  N_11 
REMARK    4  A    between atoms: N_11  and  C_12 
REMARK    5  A    between atoms: C_14  and  O_15 
REMARK    6  A    between atoms: O_15  and  C_16 
REMARK    7  A    between atoms: C_16  and  C_17 
ROOT
HETATM    1  N   UNL     1      42.820 -11.368   6.226  1.00  0.00    -0.339 N 
HETATM    2  C   UNL     1      42.454 -10.056   6.149  1.00  0.00     0.320 C 
HETATM    3  N   UNL     1      42.757  -9.263   7.212  1.00  0.00    -0.309 N 
HETATM    4  O   UNL     1      41.943  -9.559   5.149  1.00  0.00    -0.247 OA
HETATM    5  H   UNL     1      43.682 -11.488   6.738  1.00  0.00     0.164 HD
HETATM    6  H   UNL     1      42.673  -8.283   6.967  1.00  0.00     0.170 HD
ENDROOT
BRANCH   1   7
HETATM    7  C   UNL     1      42.651 -12.207   5.059  1.00  0.00     0.162 C 
BRANCH   7   8
HETATM    8  C   UNL     1      42.258 -13.637   5.342  1.00  0.00    -0.040 A 
HETATM    9  C   UNL     1      42.937 -14.749   4.822  1.00  0.00     0.024 A 
HETATM   10  C   UNL     1      42.495 -16.061   5.071  1.00  0.00     0.014 A 
HETATM   11  C   UNL     1      41.349 -16.255   5.850  1.00  0.00     0.015 A 
HETATM   12  C   UNL     1      40.659 -15.162   6.373  1.00  0.00     0.002 A 
HETATM   13  C   UNL     1      41.109 -13.866   6.117  1.00  0.00     0.009 A 
BRANCH  10  14
HETATM   14  C   UNL     1      43.219 -17.206   4.528  1.00  0.00     0.181 A 
HETATM   15  N   UNL     1      42.831 -17.851   3.373  1.00  0.00    -0.212 NA
HETATM   16  C   UNL     1      43.719 -18.811   3.233  1.00  0.00     0.118 A 
HETATM   17  C   UNL     1      43.812 -19.809   2.149  1.00  0.00     0.093 C 
HETATM   18  N   UNL     1      44.593 -18.759   4.279  1.00  0.00    -0.263 N 
HETATM   19  N   UNL     1      44.313 -17.735   5.099  1.00  0.00    -0.152 NA
HETATM   20  H   UNL     1      45.378 -19.365   4.491  1.00  0.00     0.190 HD
ENDBRANCH  10  14
ENDBRANCH   7   8
ENDBRANCH   1   7
BRANCH   3  21
HETATM   21  C   UNL     1      43.069  -9.546   8.554  1.00  0.00     0.039 A 
HETATM   22  C   UNL     1      42.150  -9.462   9.610  1.00  0.00     0.066 A 
HETATM   23  C   UNL     1      42.557  -9.720  10.923  1.00  0.00     0.070 A 
HETATM   24  C   UNL     1      43.885 -10.069  11.178  1.00  0.00     0.037 A 
HETATM   25  C   UNL     1      44.809 -10.138  10.140  1.00  0.00     0.005 A 
HETATM   26  C   UNL     1      44.403  -9.865   8.835  1.00  0.00     0.030 A 
BRANCH  23  27
HETATM   27  O   UNL     1      41.771  -9.649  12.040  1.00  0.00    -0.349 OA
BRANCH  27  28
HETATM   28  C   UNL     1      42.432  -9.568  13.307  1.00  0.00     0.207 C 
BRANCH  28  29
HETATM   29  C   UNL     1      42.452  -8.114  13.751  1.00  0.00     0.248 C 
HETATM   30  F   UNL     1      43.720  -7.620  13.653  1.00  0.00    -0.253 F 
ENDBRANCH  28  29
ENDBRANCH  27  28
ENDBRANCH  23  27
ENDBRANCH   3  21
TORSDOF 7
ENDMDL
MODEL 9
REMARK VINA RESULT:      -7.2      3.826      9.311
REMARK  7 active torsions:
REMARK  status: ('A' for Active; 'I' for Inactive)
REMARK    1  A    between atoms: C_4  and  C_5 
REMARK    2  A    between atoms: C_7  and  C_8 
REMARK    3  A    between atoms: C_8  and  N_9 
REMARK       I    between atoms: N_9  and  C_10 
REMARK       I    between atoms: C_10  and  N_11 
REMARK    4  A    between atoms: N_11  and  C_12 
REMARK    5  A    between atoms: C_14  and  O_15 
REMARK    6  A    between atoms: O_15  and  C_16 
REMARK    7  A    between atoms: C_16  and  C_17 
ROOT
HETATM    1  N   UNL     1      44.250 -10.865   7.237  1.00  0.00    -0.339 N 
HETATM    2  C   UNL     1      45.472 -10.678   7.812  1.00  0.00     0.320 C 
HETATM    3  N   UNL     1      45.494 -10.280   9.112  1.00  0.00    -0.309 N 
HETATM    4  O   UNL     1      46.530 -10.924   7.236  1.00  0.00    -0.247 OA
HETATM    5  H   UNL     1      43.573 -11.212   7.900  1.00  0.00     0.164 HD
HETATM    6  H   UNL     1      46.416 -10.406   9.514  1.00  0.00     0.170 HD
ENDROOT
BRANCH   1   7
HETATM    7  C   UNL     1      44.186 -11.431   5.906  1.00  0.00     0.162 C 
BRANCH   7   8
HETATM    8  C   UNL     1      43.466 -12.755   5.800  1.00  0.00    -0.040 A 
HETATM    9  C   UNL     1      42.730 -13.153   4.674  1.00  0.00     0.024 A 
HETATM   10  C   UNL     1      42.032 -14.374   4.649  1.00  0.00     0.014 A 
HETATM   11  C   UNL     1      42.070 -15.202   5.776  1.00  0.00     0.015 A 
HETATM   12  C   UNL     1      42.794 -14.821   6.906  1.00  0.00     0.002 A 
HETATM   13  C   UNL     1      43.482 -13.607   6.917  1.00  0.00     0.009 A 
BRANCH  10  14
HETATM   14  C   UNL     1      41.279 -14.775   3.465  1.00  0.00     0.181 A 
HETATM   15  N   UNL     1      41.267 -14.032   2.304  1.00  0.00    -0.212 NA
HETATM   16  C   UNL     1      40.481 -14.714   1.500  1.00  0.00     0.118 A 
HETATM   17  C   UNL     1      40.121 -14.401   0.103  1.00  0.00     0.093 C 
HETATM   18  N   UNL     1      40.020 -15.814   2.162  1.00  0.00    -0.263 N 
HETATM   19  N   UNL     1      40.530 -15.888   3.401  1.00  0.00    -0.152 NA
HETATM   20  H   UNL     1      39.379 -16.533   1.846  1.00  0.00     0.190 HD
ENDBRANCH  10  14
ENDBRANCH   7   8
ENDBRANCH   1   7
BRANCH   3  21
HETATM   21  C   UNL     1      44.531  -9.673   9.939  1.00  0.00     0.039 A 
HETATM   22  C   UNL     1      43.925 -10.305  11.034  1.00  0.00     0.066 A 
HETATM   23  C   UNL     1      42.941  -9.641  11.776  1.00  0.00     0.070 A 
HETATM   24  C   UNL     1      42.571  -8.342  11.425  1.00  0.00     0.037 A 
HETATM   25  C   UNL     1      43.153  -7.713  10.329  1.00  0.00     0.005 A 
HETATM   26  C   UNL     1      44.121  -8.383   9.582  1.00  0.00     0.030 A 
BRANCH  23  27
HETATM   27  O   UNL     1      42.257 -10.151  12.846  1.00  0.00    -0.349 OA
BRANCH  27  28
HETATM   28  C   UNL     1      41.019  -9.525  13.194  1.00  0.00     0.207 C 
BRANCH  28  29
HETATM   29  C   UNL     1      39.905 -10.553  13.070  1.00  0.00     0.248 C 
HETATM   30  F   UNL     1      39.456 -10.592  11.782  1.00  0.00    -0.253 F 
ENDBRANCH  28  29
ENDBRANCH  27  28
ENDBRANCH  23  27
ENDBRANCH   3  21
TORSDOF 7
ENDMDL
MODEL 10
REMARK VINA RESULT:      -7.2      3.626      9.119
REMARK  7 active torsions:
REMARK  status: ('A' for Active; 'I' for Inactive)
REMARK    1  A    between atoms: C_4  and  C_5 
REMARK    2  A    between atoms: C_7  and  C_8 
REMARK    3  A    between atoms: C_8  and  N_9 
REMARK       I    between atoms: N_9  and  C_10 
REMARK       I    between atoms: C_10  and  N_11 
REMARK    4  A    between atoms: N_11  and  C_12 
REMARK    5  A    between atoms: C_14  and  O_15 
REMARK    6  A    between atoms: O_15  and  C_16 
REMARK    7  A    between atoms: C_16  and  C_17 
ROOT
HETATM    1  N   UNL     1      41.597 -12.539   5.586  1.00  0.00    -0.339 N 
HETATM    2  C   UNL     1      42.192 -11.688   4.701  1.00  0.00     0.320 C 
HETATM    3  N   UNL     1      43.386 -11.147   5.065  1.00  0.00    -0.309 N 
HETATM    4  O   UNL     1      41.738 -11.457   3.583  1.00  0.00    -0.247 OA
HETATM    5  H   UNL     1      42.277 -13.077   6.104  1.00  0.00     0.164 HD
HETATM    6  H   UNL     1      43.856 -10.739   4.265  1.00  0.00     0.170 HD
ENDROOT
BRANCH   1   7
HETATM    7  C   UNL     1      40.405 -13.249   5.174  1.00  0.00     0.162 C 
BRANCH   7   8
HETATM    8  C   UNL     1      40.597 -14.239   4.049  1.00  0.00    -0.040 A 
HETATM    9  C   UNL     1      41.498 -15.314   4.103  1.00  0.00     0.024 A 
HETATM   10  C   UNL     1      41.679 -16.174   3.006  1.00  0.00     0.014 A 
HETATM   11  C   UNL     1      40.949 -15.944   1.835  1.00  0.00     0.015 A 
HETATM   12  C   UNL     1      40.052 -14.880   1.761  1.00  0.00     0.002 A 
HETATM   13  C   UNL     1      39.882 -14.034   2.858  1.00  0.00     0.009 A 
BRANCH  10  14
HETATM   14  C   UNL     1      42.615 -17.291   3.084  1.00  0.00     0.181 A 
HETATM   15  N   UNL     1      42.562 -18.366   2.221  1.00  0.00    -0.212 NA
HETATM   16  C   UNL     1      43.547 -19.141   2.620  1.00  0.00     0.118 A 
HETATM   17  C   UNL     1      43.979 -20.429   2.041  1.00  0.00     0.093 C 
HETATM   18  N   UNL     1      44.153 -18.563   3.697  1.00  0.00    -0.263 N 
HETATM   19  N   UNL     1      43.597 -17.380   3.995  1.00  0.00    -0.152 NA
HETATM   20  H   UNL     1      44.924 -18.905   4.260  1.00  0.00     0.190 HD
ENDBRANCH  10  14
ENDBRANCH   7   8
ENDBRANCH   1   7
BRANCH   3  21
HETATM   21  C   UNL     1      44.019 -10.987   6.311  1.00  0.00     0.039 A 
HETATM   22  C   UNL     1      43.354 -10.618   7.488  1.00  0.00     0.066 A 
HETATM   23  C   UNL     1      44.070 -10.438   8.677  1.00  0.00     0.070 A 
HETATM   24  C   UNL     1      45.452 -10.634   8.687  1.00  0.00     0.037 A 
HETATM   25  C   UNL     1      46.124 -10.984   7.519  1.00  0.00     0.005 A 
HETATM   26  C   UNL     1      45.410 -11.147   6.334  1.00  0.00     0.030 A 
BRANCH  23  27
HETATM   27  O   UNL     1      43.548 -10.056   9.883  1.00  0.00    -0.349 OA
BRANCH  27  28
HETATM   28  C   UNL     1      43.615  -8.666  10.218  1.00  0.00     0.207 C 
BRANCH  28  29
HETATM   29  C   UNL     1      43.495  -8.526  11.728  1.00  0.00     0.248 C 
HETATM   30  F   UNL     1      43.381  -9.760  12.297  1.00  0.00    -0.253 F 
ENDBRANCH  28  29
ENDBRANCH  27  28
ENDBRANCH  23  27
ENDBRANCH   3  21
TORSDOF 7
ENDMDL
