MODEL 1
REMARK VINA RESULT:      -8.2      0.000      0.000
REMARK  8 active torsions:
REMARK  status: ('A' for Active; 'I' for Inactive)
REMARK    1  A    between atoms: C_3  and  N_4 
REMARK    2  A    between atoms: N_7  and  C_9 
REMARK    3  A    between atoms: C_9  and  C_10 
REMARK    4  A    between atoms: C_10  and  C_11 
REMARK    5  A    between atoms: C_11  and  N_12 
REMARK       I    between atoms: N_12  and  C_13 
REMARK    6  A    between atoms: C_13  and  C_14 
REMARK    7  A    between atoms: C_14  and  O_15 
REMARK    8  A    between atoms: O_15  and  C_16 
ROOT
HETATM    1  C   UNL     1      40.212 -11.963   1.979  1.00  0.00     0.236 C 
ENDROOT
BRANCH   1   2
HETATM    2  N   UNL     1      40.627 -13.419   1.957  1.00  0.00    -0.069 N 
HETATM    3  C   UNL     1      42.112 -13.614   1.593  1.00  0.00     0.249 C 
HETATM    4  C   UNL     1      42.522 -15.100   1.681  1.00  0.00     0.123 C 
HETATM    5  N   UNL     1      42.198 -15.619   3.024  1.00  0.00    -0.280 NA
HETATM    6  C   UNL     1      40.764 -15.547   3.348  1.00  0.00     0.123 C 
HETATM    7  C   UNL     1      40.312 -14.073   3.314  1.00  0.00     0.249 C 
HETATM    8  H   UNL     1      40.072 -13.912   1.246  1.00  0.00     0.280 HD
BRANCH   5   9
HETATM    9  C   UNL     1      42.872 -16.811   3.340  1.00  0.00     0.018 A 
HETATM   10  C   UNL     1      43.544 -16.935   4.580  1.00  0.00    -0.041 A 
HETATM   11  C   UNL     1      43.556 -15.828   5.603  1.00  0.00     0.050 C 
HETATM   12  C   UNL     1      44.240 -18.117   4.889  1.00  0.00     0.010 A 
HETATM   13  C   UNL     1      44.251 -19.191   4.002  1.00  0.00     0.024 A 
HETATM   14  C   UNL     1      43.575 -19.083   2.795  1.00  0.00     0.035 A 
HETATM   15  C   UNL     1      42.897 -17.907   2.462  1.00  0.00     0.048 A 
HETATM   16 CL   UNL     1      43.576 -20.404   1.693  1.00  0.00    -0.084 Cl
ENDBRANCH   5   9
ENDBRANCH   1   2
BRANCH   1  17
HETATM   17  C   UNL     1      40.252 -11.383   3.385  1.00  0.00     0.047 C 
BRANCH  17  18
HETATM   18  C   UNL     1      41.512 -10.533   3.564  1.00  0.00     0.124 C 
BRANCH  18  19
HETATM   19  N   UNL     1      42.320 -10.973   4.674  1.00  0.00    -0.359 N 
HETATM   20  C   UNL     1      43.606 -11.442   4.489  1.00  0.00     0.241 C 
HETATM   21  O   UNL     1      44.191 -11.342   3.412  1.00  0.00    -0.271 OA
HETATM   22  H   UNL     1      41.885 -11.215   5.563  1.00  0.00     0.162 HD
BRANCH  20  23
HETATM   23  C   UNL     1      44.233 -12.110   5.716  1.00  0.00     0.278 C 
BRANCH  23  24
HETATM   24  O   UNL     1      45.329 -11.334   6.193  1.00  0.00    -0.342 OA
BRANCH  24  25
HETATM   25  C   UNL     1      45.163 -10.697   7.393  1.00  0.00     0.069 A 
HETATM   26  C   UNL     1      45.971  -9.679   7.901  1.00  0.00     0.038 A 
HETATM   27  C   UNL     1      45.692  -9.122   9.155  1.00  0.00     0.026 A 
HETATM   28  C   UNL     1      44.605  -9.579   9.896  1.00  0.00     0.034 A 
HETATM   29 CL   UNL     1      44.266  -8.892  11.435  1.00  0.00    -0.084 Cl
HETATM   30  C   UNL     1      43.793 -10.594   9.396  1.00  0.00     0.026 A 
HETATM   31  C   UNL     1      44.076 -11.151   8.146  1.00  0.00     0.038 A 
ENDBRANCH  24  25
ENDBRANCH  23  24
ENDBRANCH  20  23
ENDBRANCH  18  19
ENDBRANCH  17  18
ENDBRANCH   1  17
TORSDOF 8
ENDMDL
MODEL 2
REMARK VINA RESULT:      -7.9      3.532      4.979
REMARK  8 active torsions:
REMARK  status: ('A' for Active; 'I' for Inactive)
REMARK    1  A    between atoms: C_3  and  N_4 
REMARK    2  A    between atoms: N_7  and  C_9 
REMARK    3  A    between atoms: C_9  and  C_10 
REMARK    4  A    between atoms: C_10  and  C_11 
REMARK    5  A    between atoms: C_11  and  N_12 
REMARK       I    between atoms: N_12  and  C_13 
REMARK    6  A    between atoms: C_13  and  C_14 
REMARK    7  A    between atoms: C_14  and  O_15 
REMARK    8  A    between atoms: O_15  and  C_16 
ROOT
HETATM    1  C   UNL     1      42.437 -11.916   6.609  1.00  0.00     0.236 C 
ENDROOT
BRANCH   1   2
HETATM    2  N   UNL     1      42.436 -13.418   6.415  1.00  0.00    -0.069 N 
HETATM    3  C   UNL     1      41.679 -13.858   5.147  1.00  0.00     0.249 C 
HETATM    4  C   UNL     1      41.788 -15.383   4.929  1.00  0.00     0.123 C 
HETATM    5  N   UNL     1      43.211 -15.774   4.900  1.00  0.00    -0.280 NA
HETATM    6  C   UNL     1      43.927 -15.465   6.148  1.00  0.00     0.123 C 
HETATM    7  C   UNL     1      43.883 -13.943   6.392  1.00  0.00     0.249 C 
HETATM    8  H   UNL     1      41.967 -13.857   7.218  1.00  0.00     0.280 HD
BRANCH   5   9
HETATM    9  C   UNL     1      43.432 -17.037   4.325  1.00  0.00     0.018 A 
HETATM   10  C   UNL     1      43.373 -17.193   2.920  1.00  0.00    -0.041 A 
HETATM   11  C   UNL     1      43.092 -16.038   1.993  1.00  0.00     0.050 C 
HETATM   12  C   UNL     1      43.569 -18.460   2.342  1.00  0.00     0.010 A 
HETATM   13  C   UNL     1      43.858 -19.569   3.135  1.00  0.00     0.024 A 
HETATM   14  C   UNL     1      43.940 -19.416   4.512  1.00  0.00     0.035 A 
HETATM   15  C   UNL     1      43.725 -18.169   5.104  1.00  0.00     0.048 A 
HETATM   16 CL   UNL     1      44.302 -20.776   5.502  1.00  0.00    -0.084 Cl
ENDBRANCH   5   9
ENDBRANCH   1   2
BRANCH   1  17
HETATM   17  C   UNL     1      43.833 -11.381   6.893  1.00  0.00     0.047 C 
BRANCH  17  18
HETATM   18  C   UNL     1      43.740 -10.055   7.650  1.00  0.00     0.124 C 
BRANCH  18  19
HETATM   19  N   UNL     1      42.752 -10.087   8.700  1.00  0.00    -0.359 N 
HETATM   20  C   UNL     1      42.787  -9.193   9.752  1.00  0.00     0.241 C 
HETATM   21  O   UNL     1      43.540  -8.220   9.760  1.00  0.00    -0.271 OA
HETATM   22  H   UNL     1      42.186 -10.921   8.847  1.00  0.00     0.162 HD
BRANCH  20  23
HETATM   23  C   UNL     1      41.839  -9.519  10.909  1.00  0.00     0.278 C 
BRANCH  23  24
HETATM   24  O   UNL     1      42.584  -9.814  12.088  1.00  0.00    -0.342 OA
BRANCH  24  25
HETATM   25  C   UNL     1      42.368  -9.013  13.176  1.00  0.00     0.069 A 
HETATM   26  C   UNL     1      41.384  -9.197  14.149  1.00  0.00     0.038 A 
HETATM   27  C   UNL     1      41.267  -8.289  15.208  1.00  0.00     0.026 A 
HETATM   28  C   UNL     1      42.132  -7.201  15.295  1.00  0.00     0.034 A 
HETATM   29 CL   UNL     1      41.984  -6.089  16.597  1.00  0.00    -0.084 Cl
HETATM   30  C   UNL     1      43.116  -7.010  14.329  1.00  0.00     0.026 A 
HETATM   31  C   UNL     1      43.229  -7.916  13.271  1.00  0.00     0.038 A 
ENDBRANCH  24  25
ENDBRANCH  23  24
ENDBRANCH  20  23
ENDBRANCH  18  19
ENDBRANCH  17  18
ENDBRANCH   1  17
TORSDOF 8
ENDMDL
MODEL 3
REMARK VINA RESULT:      -7.9      2.400      3.095
REMARK  8 active torsions:
REMARK  status: ('A' for Active; 'I' for Inactive)
REMARK    1  A    between atoms: C_3  and  N_4 
REMARK    2  A    between atoms: N_7  and  C_9 
REMARK    3  A    between atoms: C_9  and  C_10 
REMARK    4  A    between atoms: C_10  and  C_11 
REMARK    5  A    between atoms: C_11  and  N_12 
REMARK       I    between atoms: N_12  and  C_13 
REMARK    6  A    between atoms: C_13  and  C_14 
REMARK    7  A    between atoms: C_14  and  O_15 
REMARK    8  A    between atoms: O_15  and  C_16 
ROOT
HETATM    1  C   UNL     1      41.375 -11.972   4.351  1.00  0.00     0.236 C 
ENDROOT
BRANCH   1   2
HETATM    2  N   UNL     1      41.548 -13.406   3.897  1.00  0.00    -0.069 N 
HETATM    3  C   UNL     1      42.996 -13.734   3.485  1.00  0.00     0.249 C 
HETATM    4  C   UNL     1      43.154 -15.228   3.127  1.00  0.00     0.123 C 
HETATM    5  N   UNL     1      42.689 -16.055   4.259  1.00  0.00    -0.280 NA
HETATM    6  C   UNL     1      41.273 -15.840   4.596  1.00  0.00     0.123 C 
HETATM    7  C   UNL     1      41.069 -14.366   5.002  1.00  0.00     0.249 C 
HETATM    8  H   UNL     1      40.953 -13.569   3.075  1.00  0.00     0.280 HD
BRANCH   5   9
HETATM    9  C   UNL     1      43.145 -17.383   4.204  1.00  0.00     0.018 A 
HETATM   10  C   UNL     1      43.595 -18.024   5.383  1.00  0.00    -0.041 A 
HETATM   11  C   UNL     1      43.594 -17.335   6.724  1.00  0.00     0.050 C 
HETATM   12  C   UNL     1      44.075 -19.345   5.328  1.00  0.00     0.010 A 
HETATM   13  C   UNL     1      44.083 -20.052   4.129  1.00  0.00     0.024 A 
HETATM   14  C   UNL     1      43.621 -19.436   2.974  1.00  0.00     0.035 A 
HETATM   15  C   UNL     1      43.162 -18.117   3.006  1.00  0.00     0.048 A 
HETATM   16 CL   UNL     1      43.618 -20.300   1.486  1.00  0.00    -0.084 Cl
ENDBRANCH   5   9
ENDBRANCH   1   2
BRANCH   1  17
HETATM   17  C   UNL     1      41.793 -11.782   5.802  1.00  0.00     0.047 C 
BRANCH  17  18
HETATM   18  C   UNL     1      42.995 -10.838   5.880  1.00  0.00     0.124 C 
BRANCH  18  19
HETATM   19  N   UNL     1      43.235 -10.361   7.219  1.00  0.00    -0.359 N 
HETATM   20  C   UNL     1      44.196 -10.934   8.028  1.00  0.00     0.241 C 
HETATM   21  O   UNL     1      45.013 -11.748   7.598  1.00  0.00    -0.271 OA
HETATM   22  H   UNL     1      42.534  -9.797   7.698  1.00  0.00     0.162 HD
BRANCH  20  23
HETATM   23  C   UNL     1      44.152 -10.498   9.494  1.00  0.00     0.278 C 
BRANCH  23  24
HETATM   24  O   UNL     1      42.887  -9.911   9.795  1.00  0.00    -0.342 OA
BRANCH  24  25
HETATM   25  C   UNL     1      42.709  -9.437  11.066  1.00  0.00     0.069 A 
HETATM   26  C   UNL     1      43.546  -8.541  11.733  1.00  0.00     0.038 A 
HETATM   27  C   UNL     1      43.248  -8.148  13.044  1.00  0.00     0.026 A 
HETATM   28  C   UNL     1      42.116  -8.646  13.683  1.00  0.00     0.034 A 
HETATM   29 CL   UNL     1      41.755  -8.160  15.292  1.00  0.00    -0.084 Cl
HETATM   30  C   UNL     1      41.276  -9.540  13.024  1.00  0.00     0.026 A 
HETATM   31  C   UNL     1      41.577  -9.934  11.718  1.00  0.00     0.038 A 
ENDBRANCH  24  25
ENDBRANCH  23  24
ENDBRANCH  20  23
ENDBRANCH  18  19
ENDBRANCH  17  18
ENDBRANCH   1  17
TORSDOF 8
ENDMDL
MODEL 4
REMARK VINA RESULT:      -7.8      3.528      7.039
REMARK  8 active torsions:
REMARK  status: ('A' for Active; 'I' for Inactive)
REMARK    1  A    between atoms: C_3  and  N_4 
REMARK    2  A    between atoms: N_7  and  C_9 
REMARK    3  A    between atoms: C_9  and  C_10 
REMARK    4  A    between atoms: C_10  and  C_11 
REMARK    5  A    between atoms: C_11  and  N_12 
REMARK       I    between atoms: N_12  and  C_13 
REMARK    6  A    between atoms: C_13  and  C_14 
REMARK    7  A    between atoms: C_14  and  O_15 
REMARK    8  A    between atoms: O_15  and  C_16 
ROOT
HETATM    1  C   UNL     1      40.593 -11.328   5.753  1.00  0.00     0.236 C 
ENDROOT
BRANCH   1   2
HETATM    2  N   UNL     1      41.000 -12.787   5.745  1.00  0.00    -0.069 N 
HETATM    3  C   UNL     1      40.318 -13.594   4.623  1.00  0.00     0.249 C 
HETATM    4  C   UNL     1      40.835 -15.049   4.583  1.00  0.00     0.123 C 
HETATM    5  N   UNL     1      42.306 -15.042   4.458  1.00  0.00    -0.280 NA
HETATM    6  C   UNL     1      42.985 -14.374   5.580  1.00  0.00     0.123 C 
HETATM    7  C   UNL     1      42.532 -12.901   5.639  1.00  0.00     0.249 C 
HETATM    8  H   UNL     1      40.725 -13.214   6.638  1.00  0.00     0.280 HD
BRANCH   5   9
HETATM    9  C   UNL     1      42.835 -16.269   4.022  1.00  0.00     0.018 A 
HETATM   10  C   UNL     1      43.094 -16.477   2.646  1.00  0.00    -0.041 A 
HETATM   11  C   UNL     1      42.837 -15.414   1.609  1.00  0.00     0.050 C 
HETATM   12  C   UNL     1      43.601 -17.712   2.203  1.00  0.00     0.010 A 
HETATM   13  C   UNL     1      43.886 -18.732   3.108  1.00  0.00     0.024 A 
HETATM   14  C   UNL     1      43.654 -18.525   4.460  1.00  0.00     0.035 A 
HETATM   15  C   UNL     1      43.131 -17.312   4.915  1.00  0.00     0.048 A 
HETATM   16 CL   UNL     1      44.008 -19.774   5.589  1.00  0.00    -0.084 Cl
ENDBRANCH   5   9
ENDBRANCH   1   2
BRANCH   1  17
HETATM   17  C   UNL     1      41.798 -10.402   5.684  1.00  0.00     0.047 C 
BRANCH  17  18
HETATM   18  C   UNL     1      41.727  -9.547   4.417  1.00  0.00     0.124 C 
BRANCH  18  19
HETATM   19  N   UNL     1      40.995 -10.194   3.356  1.00  0.00    -0.359 N 
HETATM   20  C   UNL     1      41.644 -10.843   2.323  1.00  0.00     0.241 C 
HETATM   21  O   UNL     1      42.855 -11.060   2.345  1.00  0.00    -0.271 OA
HETATM   22  H   UNL     1      40.020  -9.956   3.184  1.00  0.00     0.162 HD
BRANCH  20  23
HETATM   23  C   UNL     1      40.749 -11.247   1.149  1.00  0.00     0.278 C 
BRANCH  23  24
HETATM   24  O   UNL     1      41.404 -12.224   0.344  1.00  0.00    -0.342 OA
BRANCH  24  25
HETATM   25  C   UNL     1      40.634 -12.900  -0.562  1.00  0.00     0.069 A 
HETATM   26  C   UNL     1      39.982 -14.115  -0.342  1.00  0.00     0.038 A 
HETATM   27  C   UNL     1      39.233 -14.705  -1.367  1.00  0.00     0.026 A 
HETATM   28  C   UNL     1      39.133 -14.080  -2.608  1.00  0.00     0.034 A 
HETATM   29 CL   UNL     1      38.212 -14.808  -3.863  1.00  0.00    -0.084 Cl
HETATM   30  C   UNL     1      39.780 -12.868  -2.836  1.00  0.00     0.026 A 
HETATM   31  C   UNL     1      40.530 -12.283  -1.813  1.00  0.00     0.038 A 
ENDBRANCH  24  25
ENDBRANCH  23  24
ENDBRANCH  20  23
ENDBRANCH  18  19
ENDBRANCH  17  18
ENDBRANCH   1  17
TORSDOF 8
ENDMDL
MODEL 5
REMARK VINA RESULT:      -7.7      3.130      4.355
REMARK  8 active torsions:
REMARK  status: ('A' for Active; 'I' for Inactive)
REMARK    1  A    between atoms: C_3  and  N_4 
REMARK    2  A    between atoms: N_7  and  C_9 
REMARK    3  A    between atoms: C_9  and  C_10 
REMARK    4  A    between atoms: C_10  and  C_11 
REMARK    5  A    between atoms: C_11  and  N_12 
REMARK       I    between atoms: N_12  and  C_13 
REMARK    6  A    between atoms: C_13  and  C_14 
REMARK    7  A    between atoms: C_14  and  O_15 
REMARK    8  A    between atoms: O_15  and  C_16 
ROOT
HETATM    1  C   UNL     1      40.775 -10.785   6.543  1.00  0.00     0.236 C 
ENDROOT
BRANCH   1   2
HETATM    2  N   UNL     1      41.260 -12.208   6.360  1.00  0.00    -0.069 N 
HETATM    3  C   UNL     1      40.329 -13.049   5.465  1.00  0.00     0.249 C 
HETATM    4  C   UNL     1      40.909 -14.459   5.220  1.00  0.00     0.123 C 
HETATM    5  N   UNL     1      42.271 -14.339   4.662  1.00  0.00    -0.280 NA
HETATM    6  C   UNL     1      43.207 -13.637   5.554  1.00  0.00     0.123 C 
HETATM    7  C   UNL     1      42.694 -12.204   5.799  1.00  0.00     0.249 C 
HETATM    8  H   UNL     1      41.296 -12.667   7.279  1.00  0.00     0.280 HD
BRANCH   5   9
HETATM    9  C   UNL     1      42.727 -15.516   4.045  1.00  0.00     0.018 A 
HETATM   10  C   UNL     1      42.785 -15.595   2.633  1.00  0.00    -0.041 A 
HETATM   11  C   UNL     1      42.385 -14.445   1.745  1.00  0.00     0.050 C 
HETATM   12  C   UNL     1      43.218 -16.780   2.010  1.00  0.00     0.010 A 
HETATM   13  C   UNL     1      43.627 -17.875   2.767  1.00  0.00     0.024 A 
HETATM   14  C   UNL     1      43.593 -17.794   4.152  1.00  0.00     0.035 A 
HETATM   15  C   UNL     1      43.145 -16.633   4.786  1.00  0.00     0.048 A 
HETATM   16 CL   UNL     1      44.102 -19.137   5.100  1.00  0.00    -0.084 Cl
ENDBRANCH   5   9
ENDBRANCH   1   2
BRANCH   1  17
HETATM   17  C   UNL     1      39.301 -10.731   6.916  1.00  0.00     0.047 C 
BRANCH  17  18
HETATM   18  C   UNL     1      39.152 -10.544   8.428  1.00  0.00     0.124 C 
BRANCH  18  19
HETATM   19  N   UNL     1      40.017  -9.513   8.943  1.00  0.00    -0.359 N 
HETATM   20  C   UNL     1      40.182  -9.321  10.302  1.00  0.00     0.241 C 
HETATM   21  O   UNL     1      39.753 -10.121  11.132  1.00  0.00    -0.271 OA
HETATM   22  H   UNL     1      40.300  -8.734   8.350  1.00  0.00     0.162 HD
BRANCH  20  23
HETATM   23  C   UNL     1      40.916  -8.035  10.689  1.00  0.00     0.278 C 
BRANCH  23  24
HETATM   24  O   UNL     1      42.114  -8.346  11.396  1.00  0.00    -0.342 OA
BRANCH  24  25
HETATM   25  C   UNL     1      43.214  -8.663  10.647  1.00  0.00     0.069 A 
HETATM   26  C   UNL     1      44.082  -9.732  10.873  1.00  0.00     0.038 A 
HETATM   27  C   UNL     1      45.182  -9.934  10.030  1.00  0.00     0.026 A 
HETATM   28  C   UNL     1      45.410  -9.070   8.962  1.00  0.00     0.034 A 
HETATM   29 CL   UNL     1      46.761  -9.321   7.929  1.00  0.00    -0.084 Cl
HETATM   30  C   UNL     1      44.549  -8.001   8.729  1.00  0.00     0.026 A 
HETATM   31  C   UNL     1      43.454  -7.800   9.574  1.00  0.00     0.038 A 
ENDBRANCH  24  25
ENDBRANCH  23  24
ENDBRANCH  20  23
ENDBRANCH  18  19
ENDBRANCH  17  18
ENDBRANCH   1  17
TORSDOF 8
ENDMDL
MODEL 6
REMARK VINA RESULT:      -7.6      3.520      4.681
REMARK  8 active torsions:
REMARK  status: ('A' for Active; 'I' for Inactive)
REMARK    1  A    between atoms: C_3  and  N_4 
REMARK    2  A    between atoms: N_7  and  C_9 
REMARK    3  A    between atoms: C_9  and  C_10 
REMARK    4  A    between atoms: C_10  and  C_11 
REMARK    5  A    between atoms: C_11  and  N_12 
REMARK       I    between atoms: N_12  and  C_13 
REMARK    6  A    between atoms: C_13  and  C_14 
REMARK    7  A    between atoms: C_14  and  O_15 
REMARK    8  A    between atoms: O_15  and  C_16 
ROOT
HETATM    1  C   UNL     1      40.543 -11.041   6.109  1.00  0.00     0.236 C 
ENDROOT
BRANCH   1   2
HETATM    2  N   UNL     1      40.994 -12.485   6.054  1.00  0.00    -0.069 N 
HETATM    3  C   UNL     1      40.226 -13.315   5.007  1.00  0.00     0.249 C 
HETATM    4  C   UNL     1      40.783 -14.752   4.910  1.00  0.00     0.123 C 
HETATM    5  N   UNL     1      42.233 -14.697   4.633  1.00  0.00    -0.280 NA
HETATM    6  C   UNL     1      43.002 -14.007   5.681  1.00  0.00     0.123 C 
HETATM    7  C   UNL     1      42.510 -12.550   5.791  1.00  0.00     0.249 C 
HETATM    8  H   UNL     1      40.827 -12.921   6.970  1.00  0.00     0.280 HD
BRANCH   5   9
HETATM    9  C   UNL     1      42.753 -15.907   4.142  1.00  0.00     0.018 A 
HETATM   10  C   UNL     1      43.005 -16.056   2.757  1.00  0.00    -0.041 A 
HETATM   11  C   UNL     1      42.748 -14.947   1.768  1.00  0.00     0.050 C 
HETATM   12  C   UNL     1      43.503 -17.273   2.258  1.00  0.00     0.010 A 
HETATM   13  C   UNL     1      43.787 -18.333   3.115  1.00  0.00     0.024 A 
HETATM   14  C   UNL     1      43.564 -18.183   4.477  1.00  0.00     0.035 A 
HETATM   15  C   UNL     1      43.048 -16.989   4.987  1.00  0.00     0.048 A 
HETATM   16 CL   UNL     1      43.917 -19.482   5.549  1.00  0.00    -0.084 Cl
ENDBRANCH   5   9
ENDBRANCH   1   2
BRANCH   1  17
HETATM   17  C   UNL     1      41.607 -10.136   6.713  1.00  0.00     0.047 C 
BRANCH  17  18
HETATM   18  C   UNL     1      40.994  -9.276   7.820  1.00  0.00     0.124 C 
BRANCH  18  19
HETATM   19  N   UNL     1      41.480  -9.636   9.129  1.00  0.00    -0.359 N 
HETATM   20  C   UNL     1      42.643  -9.094   9.642  1.00  0.00     0.241 C 
HETATM   21  O   UNL     1      43.221  -8.154   9.099  1.00  0.00    -0.271 OA
HETATM   22  H   UNL     1      41.151 -10.486   9.585  1.00  0.00     0.162 HD
BRANCH  20  23
HETATM   23  C   UNL     1      43.161  -9.764  10.916  1.00  0.00     0.278 C 
BRANCH  23  24
HETATM   24  O   UNL     1      43.834  -8.810  11.735  1.00  0.00    -0.342 OA
BRANCH  24  25
HETATM   25  C   UNL     1      43.200  -8.420  12.883  1.00  0.00     0.069 A 
HETATM   26  C   UNL     1      43.437  -7.242  13.592  1.00  0.00     0.038 A 
HETATM   27  C   UNL     1      42.720  -6.973  14.765  1.00  0.00     0.026 A 
HETATM   28  C   UNL     1      41.767  -7.879  15.224  1.00  0.00     0.034 A 
HETATM   29 CL   UNL     1      40.890  -7.544  16.664  1.00  0.00    -0.084 Cl
HETATM   30  C   UNL     1      41.525  -9.056  14.522  1.00  0.00     0.026 A 
HETATM   31  C   UNL     1      42.243  -9.324  13.355  1.00  0.00     0.038 A 
ENDBRANCH  24  25
ENDBRANCH  23  24
ENDBRANCH  20  23
ENDBRANCH  18  19
ENDBRANCH  17  18
ENDBRANCH   1  17
TORSDOF 8
ENDMDL
MODEL 7
REMARK VINA RESULT:      -7.4      3.669      6.897
REMARK  8 active torsions:
REMARK  status: ('A' for Active; 'I' for Inactive)
REMARK    1  A    between atoms: C_3  and  N_4 
REMARK    2  A    between atoms: N_7  and  C_9 
REMARK    3  A    between atoms: C_9  and  C_10 
REMARK    4  A    between atoms: C_10  and  C_11 
REMARK    5  A    between atoms: C_11  and  N_12 
REMARK       I    between atoms: N_12  and  C_13 
REMARK    6  A    between atoms: C_13  and  C_14 
REMARK    7  A    between atoms: C_14  and  O_15 
REMARK    8  A    between atoms: O_15  and  C_16 
ROOT
HETATM    1  C   UNL     1      39.818 -13.036   5.546  1.00  0.00     0.236 C 
ENDROOT
BRANCH   1   2
HETATM    2  N   UNL     1      39.415 -13.245   4.101  1.00  0.00    -0.069 N 
HETATM    3  C   UNL     1      39.174 -11.922   3.348  1.00  0.00     0.249 C 
HETATM    4  C   UNL     1      38.866 -12.173   1.855  1.00  0.00     0.123 C 
HETATM    5  N   UNL     1      39.955 -12.972   1.258  1.00  0.00    -0.280 NA
HETATM    6  C   UNL     1      40.127 -14.290   1.890  1.00  0.00     0.123 C 
HETATM    7  C   UNL     1      40.478 -14.093   3.379  1.00  0.00     0.249 C 
HETATM    8  H   UNL     1      38.534 -13.775   4.075  1.00  0.00     0.280 HD
BRANCH   5   9
HETATM    9  C   UNL     1      39.979 -12.921  -0.146  1.00  0.00     0.018 A 
HETATM   10  C   UNL     1      40.659 -11.869  -0.803  1.00  0.00    -0.041 A 
HETATM   11  C   UNL     1      41.386 -10.785  -0.048  1.00  0.00     0.050 C 
HETATM   12  C   UNL     1      40.665 -11.801  -2.208  1.00  0.00     0.010 A 
HETATM   13  C   UNL     1      40.035 -12.781  -2.972  1.00  0.00     0.024 A 
HETATM   14  C   UNL     1      39.386 -13.828  -2.332  1.00  0.00     0.035 A 
HETATM   15  C   UNL     1      39.352 -13.898  -0.937  1.00  0.00     0.048 A 
HETATM   16 CL   UNL     1      38.610 -15.049  -3.263  1.00  0.00    -0.084 Cl
ENDBRANCH   5   9
ENDBRANCH   1   2
BRANCH   1  17
HETATM   17  C   UNL     1      40.315 -11.620   5.797  1.00  0.00     0.047 C 
BRANCH  17  18
HETATM   18  C   UNL     1      41.834 -11.626   5.983  1.00  0.00     0.124 C 
BRANCH  18  19
HETATM   19  N   UNL     1      42.368 -12.959   6.113  1.00  0.00    -0.359 N 
HETATM   20  C   UNL     1      43.494 -13.215   6.871  1.00  0.00     0.241 C 
HETATM   21  O   UNL     1      43.989 -12.369   7.614  1.00  0.00    -0.271 OA
HETATM   22  H   UNL     1      42.114 -13.683   5.442  1.00  0.00     0.162 HD
BRANCH  20  23
HETATM   23  C   UNL     1      44.084 -14.617   6.699  1.00  0.00     0.278 C 
BRANCH  23  24
HETATM   24  O   UNL     1      43.428 -15.300   5.633  1.00  0.00    -0.342 OA
BRANCH  24  25
HETATM   25  C   UNL     1      43.532 -16.663   5.612  1.00  0.00     0.069 A 
HETATM   26  C   UNL     1      43.305 -17.521   6.689  1.00  0.00     0.038 A 
HETATM   27  C   UNL     1      43.461 -18.904   6.530  1.00  0.00     0.026 A 
HETATM   28  C   UNL     1      43.838 -19.427   5.295  1.00  0.00     0.034 A 
HETATM   29 CL   UNL     1      44.027 -21.125   5.104  1.00  0.00    -0.084 Cl
HETATM   30  C   UNL     1      44.065 -18.578   4.215  1.00  0.00     0.026 A 
HETATM   31  C   UNL     1      43.914 -17.198   4.377  1.00  0.00     0.038 A 
ENDBRANCH  24  25
ENDBRANCH  23  24
ENDBRANCH  20  23
ENDBRANCH  18  19
ENDBRANCH  17  18
ENDBRANCH   1  17
TORSDOF 8
ENDMDL
MODEL 8
REMARK VINA RESULT:      -7.4      4.726      7.305
REMARK  8 active torsions:
REMARK  status: ('A' for Active; 'I' for Inactive)
REMARK    1  A    between atoms: C_3  and  N_4 
REMARK    2  A    between atoms: N_7  and  C_9 
REMARK    3  A    between atoms: C_9  and  C_10 
REMARK    4  A    between atoms: C_10  and  C_11 
REMARK    5  A    between atoms: C_11  and  N_12 
REMARK       I    between atoms: N_12  and  C_13 
REMARK    6  A    between atoms: C_13  and  C_14 
REMARK    7  A    between atoms: C_14  and  O_15 
REMARK    8  A    between atoms: O_15  and  C_16 
ROOT
HETATM    1  C   UNL     1      41.066 -12.004   3.595  1.00  0.00     0.236 C 
ENDROOT
BRANCH   1   2
HETATM    2  N   UNL     1      41.413 -13.420   3.186  1.00  0.00    -0.069 N 
HETATM    3  C   UNL     1      42.931 -13.679   3.149  1.00  0.00     0.249 C 
HETATM    4  C   UNL     1      43.242 -15.157   2.828  1.00  0.00     0.123 C 
HETATM    5  N   UNL     1      42.546 -16.025   3.798  1.00  0.00    -0.280 NA
HETATM    6  C   UNL     1      41.082 -15.876   3.770  1.00  0.00     0.123 C 
HETATM    7  C   UNL     1      40.715 -14.421   4.125  1.00  0.00     0.249 C 
HETATM    8  H   UNL     1      41.051 -13.590   2.239  1.00  0.00     0.280 HD
BRANCH   5   9
HETATM    9  C   UNL     1      43.061 -17.332   3.848  1.00  0.00     0.018 A 
HETATM   10  C   UNL     1      43.566 -17.846   5.066  1.00  0.00    -0.041 A 
HETATM   11  C   UNL     1      43.562 -17.042   6.342  1.00  0.00     0.050 C 
HETATM   12  C   UNL     1      44.104 -19.144   5.115  1.00  0.00     0.010 A 
HETATM   13  C   UNL     1      44.118 -19.953   3.981  1.00  0.00     0.024 A 
HETATM   14  C   UNL     1      43.603 -19.463   2.790  1.00  0.00     0.035 A 
HETATM   15  C   UNL     1      43.084 -18.167   2.719  1.00  0.00     0.048 A 
HETATM   16 CL   UNL     1      43.607 -20.454   1.384  1.00  0.00    -0.084 Cl
ENDBRANCH   5   9
ENDBRANCH   1   2
BRANCH   1  17
HETATM   17  C   UNL     1      40.208 -11.305   2.550  1.00  0.00     0.047 C 
BRANCH  17  18
HETATM   18  C   UNL     1      40.989 -10.150   1.921  1.00  0.00     0.124 C 
BRANCH  18  19
HETATM   19  N   UNL     1      41.412 -10.441   0.573  1.00  0.00    -0.359 N 
HETATM   20  C   UNL     1      41.469  -9.455  -0.393  1.00  0.00     0.241 C 
HETATM   21  O   UNL     1      41.343  -8.262  -0.120  1.00  0.00    -0.271 OA
HETATM   22  H   UNL     1      41.405 -11.398   0.227  1.00  0.00     0.162 HD
BRANCH  20  23
HETATM   23  C   UNL     1      41.679  -9.962  -1.822  1.00  0.00     0.278 C 
BRANCH  23  24
HETATM   24  O   UNL     1      40.422 -10.126  -2.476  1.00  0.00    -0.342 OA
BRANCH  24  25
HETATM   25  C   UNL     1      39.896 -11.388  -2.502  1.00  0.00     0.069 A 
HETATM   26  C   UNL     1      38.550 -11.721  -2.343  1.00  0.00     0.038 A 
HETATM   27  C   UNL     1      38.149 -13.062  -2.380  1.00  0.00     0.026 A 
HETATM   28  C   UNL     1      39.092 -14.067  -2.579  1.00  0.00     0.034 A 
HETATM   29 CL   UNL     1      38.595 -15.712  -2.624  1.00  0.00    -0.084 Cl
HETATM   30  C   UNL     1      40.437 -13.744  -2.739  1.00  0.00     0.026 A 
HETATM   31  C   UNL     1      40.835 -12.406  -2.698  1.00  0.00     0.038 A 
ENDBRANCH  24  25
ENDBRANCH  23  24
ENDBRANCH  20  23
ENDBRANCH  18  19
ENDBRANCH  17  18
ENDBRANCH   1  17
TORSDOF 8
ENDMDL
MODEL 9
REMARK VINA RESULT:      -7.3      3.171     10.284
REMARK  8 active torsions:
REMARK  status: ('A' for Active; 'I' for Inactive)
REMARK    1  A    between atoms: C_3  and  N_4 
REMARK    2  A    between atoms: N_7  and  C_9 
REMARK    3  A    between atoms: C_9  and  C_10 
REMARK    4  A    between atoms: C_10  and  C_11 
REMARK    5  A    between atoms: C_11  and  N_12 
REMARK       I    between atoms: N_12  and  C_13 
REMARK    6  A    between atoms: C_13  and  C_14 
REMARK    7  A    between atoms: C_14  and  O_15 
REMARK    8  A    between atoms: O_15  and  C_16 
ROOT
HETATM    1  C   UNL     1      45.513 -10.300   7.521  1.00  0.00     0.236 C 
ENDROOT
BRANCH   1   2
HETATM    2  N   UNL     1      45.061  -9.724   8.847  1.00  0.00    -0.069 N 
HETATM    3  C   UNL     1      44.099  -8.531   8.686  1.00  0.00     0.249 C 
HETATM    4  C   UNL     1      43.581  -8.038  10.055  1.00  0.00     0.123 C 
HETATM    5  N   UNL     1      42.964  -9.166  10.780  1.00  0.00    -0.280 NA
HETATM    6  C   UNL     1      43.898 -10.271  11.045  1.00  0.00     0.123 C 
HETATM    7  C   UNL     1      44.415 -10.829   9.704  1.00  0.00     0.249 C 
HETATM    8  H   UNL     1      45.884  -9.384   9.360  1.00  0.00     0.280 HD
BRANCH   5   9
HETATM    9  C   UNL     1      42.127  -8.761  11.834  1.00  0.00     0.018 A 
HETATM   10  C   UNL     1      40.727  -8.947  11.735  1.00  0.00    -0.041 A 
HETATM   11  C   UNL     1      40.083  -9.585  10.531  1.00  0.00     0.050 C 
HETATM   12  C   UNL     1      39.884  -8.521  12.777  1.00  0.00     0.010 A 
HETATM   13  C   UNL     1      40.411  -7.945  13.931  1.00  0.00     0.024 A 
HETATM   14  C   UNL     1      41.784  -7.782  14.042  1.00  0.00     0.035 A 
HETATM   15  C   UNL     1      42.635  -8.179  13.007  1.00  0.00     0.048 A 
HETATM   16 CL   UNL     1      42.449  -7.079  15.464  1.00  0.00    -0.084 Cl
ENDBRANCH   5   9
ENDBRANCH   1   2
BRANCH   1  17
HETATM   17  C   UNL     1      44.816 -11.615   7.206  1.00  0.00     0.047 C 
BRANCH  17  18
HETATM   18  C   UNL     1      43.905 -11.445   5.988  1.00  0.00     0.124 C 
BRANCH  18  19
HETATM   19  N   UNL     1      43.330 -12.693   5.552  1.00  0.00    -0.359 N 
HETATM   20  C   UNL     1      43.130 -12.966   4.213  1.00  0.00     0.241 C 
HETATM   21  O   UNL     1      43.589 -12.252   3.323  1.00  0.00    -0.271 OA
HETATM   22  H   UNL     1      42.806 -13.274   6.204  1.00  0.00     0.162 HD
BRANCH  20  23
HETATM   23  C   UNL     1      42.279 -14.206   3.926  1.00  0.00     0.278 C 
BRANCH  23  24
HETATM   24  O   UNL     1      42.757 -15.316   4.682  1.00  0.00    -0.342 OA
BRANCH  24  25
HETATM   25  C   UNL     1      42.964 -16.486   4.004  1.00  0.00     0.069 A 
HETATM   26  C   UNL     1      42.283 -16.903   2.859  1.00  0.00     0.038 A 
HETATM   27  C   UNL     1      42.590 -18.137   2.271  1.00  0.00     0.026 A 
HETATM   28  C   UNL     1      43.576 -18.949   2.826  1.00  0.00     0.034 A 
HETATM   29 CL   UNL     1      43.949 -20.463   2.100  1.00  0.00    -0.084 Cl
HETATM   30  C   UNL     1      44.260 -18.540   3.967  1.00  0.00     0.026 A 
HETATM   31  C   UNL     1      43.950 -17.311   4.554  1.00  0.00     0.038 A 
ENDBRANCH  24  25
ENDBRANCH  23  24
ENDBRANCH  20  23
ENDBRANCH  18  19
ENDBRANCH  17  18
ENDBRANCH   1  17
TORSDOF 8
ENDMDL
MODEL 10
REMARK VINA RESULT:      -7.3      3.383     10.576
REMARK  8 active torsions:
REMARK  status: ('A' for Active; 'I' for Inactive)
REMARK    1  A    between atoms: C_3  and  N_4 
REMARK    2  A    between atoms: N_7  and  C_9 
REMARK    3  A    between atoms: C_9  and  C_10 
REMARK    4  A    between atoms: C_10  and  C_11 
REMARK    5  A    between atoms: C_11  and  N_12 
REMARK       I    between atoms: N_12  and  C_13 
REMARK    6  A    between atoms: C_13  and  C_14 
REMARK    7  A    between atoms: C_14  and  O_15 
REMARK    8  A    between atoms: O_15  and  C_16 
ROOT
HETATM    1  C   UNL     1      43.926 -10.641   7.092  1.00  0.00     0.236 C 
ENDROOT
BRANCH   1   2
HETATM    2  N   UNL     1      43.471 -10.316   8.499  1.00  0.00    -0.069 N 
HETATM    3  C   UNL     1      44.556  -9.605   9.331  1.00  0.00     0.249 C 
HETATM    4  C   UNL     1      44.022  -9.199  10.722  1.00  0.00     0.123 C 
HETATM    5  N   UNL     1      42.807  -8.376  10.559  1.00  0.00    -0.280 NA
HETATM    6  C   UNL     1      41.715  -9.077   9.865  1.00  0.00     0.123 C 
HETATM    7  C   UNL     1      42.185  -9.470   8.450  1.00  0.00     0.249 C 
HETATM    8  H   UNL     1      43.240 -11.192   8.984  1.00  0.00     0.280 HD
BRANCH   5   9
HETATM    9  C   UNL     1      42.474  -7.639  11.708  1.00  0.00     0.018 A 
HETATM   10  C   UNL     1      42.394  -6.227  11.643  1.00  0.00    -0.041 A 
HETATM   11  C   UNL     1      42.642  -5.465  10.366  1.00  0.00     0.050 C 
HETATM   12  C   UNL     1      42.084  -5.485  12.796  1.00  0.00     0.010 A 
HETATM   13  C   UNL     1      41.819  -6.122  14.006  1.00  0.00     0.024 A 
HETATM   14  C   UNL     1      41.873  -7.507  14.069  1.00  0.00     0.035 A 
HETATM   15  C   UNL     1      42.201  -8.260  12.938  1.00  0.00     0.048 A 
HETATM   16 CL   UNL     1      41.540  -8.309  15.555  1.00  0.00    -0.084 Cl
ENDBRANCH   5   9
ENDBRANCH   1   2
BRANCH   1  17
HETATM   17  C   UNL     1      44.664 -11.970   7.027  1.00  0.00     0.047 C 
BRANCH  17  18
HETATM   18  C   UNL     1      43.661 -13.125   7.041  1.00  0.00     0.124 C 
BRANCH  18  19
HETATM   19  N   UNL     1      43.262 -13.525   5.714  1.00  0.00    -0.359 N 
HETATM   20  C   UNL     1      42.080 -14.204   5.490  1.00  0.00     0.241 C 
HETATM   21  O   UNL     1      41.228 -14.342   6.366  1.00  0.00    -0.271 OA
HETATM   22  H   UNL     1      43.949 -13.574   4.964  1.00  0.00     0.162 HD
BRANCH  20  23
HETATM   23  C   UNL     1      41.925 -14.784   4.082  1.00  0.00     0.278 C 
BRANCH  23  24
HETATM   24  O   UNL     1      43.185 -15.247   3.599  1.00  0.00    -0.342 OA
BRANCH  24  25
HETATM   25  C   UNL     1      43.337 -16.598   3.456  1.00  0.00     0.069 A 
HETATM   26  C   UNL     1      43.011 -17.346   2.324  1.00  0.00     0.038 A 
HETATM   27  C   UNL     1      43.209 -18.733   2.318  1.00  0.00     0.026 A 
HETATM   28  C   UNL     1      43.732 -19.368   3.441  1.00  0.00     0.034 A 
HETATM   29 CL   UNL     1      43.973 -21.070   3.430  1.00  0.00    -0.084 Cl
HETATM   30  C   UNL     1      44.060 -18.629   4.575  1.00  0.00     0.026 A 
HETATM   31  C   UNL     1      43.859 -17.247   4.580  1.00  0.00     0.038 A 
ENDBRANCH  24  25
ENDBRANCH  23  24
ENDBRANCH  20  23
ENDBRANCH  18  19
ENDBRANCH  17  18
ENDBRANCH   1  17
TORSDOF 8
ENDMDL
