MODEL 1
REMARK VINA RESULT:      -9.2      0.000      0.000
REMARK  7 active torsions:
REMARK  status: ('A' for Active; 'I' for Inactive)
REMARK    1  A    between atoms: C_2  and  O_3 
REMARK    2  A    between atoms: O_3  and  C_4 
REMARK    3  A    between atoms: C_7  and  N_8 
REMARK       I    between atoms: N_8  and  C_9 
REMARK    4  A    between atoms: C_9  and  C_10 
REMARK    5  A    between atoms: C_10  and  S_11 
REMARK    6  A    between atoms: S_11  and  C_12 
REMARK    7  A    between atoms: N_13  and  C_14 
ROOT
HETATM    1  C   UNL     1      42.551 -11.572   5.930  1.00  0.00     0.178 A 
HETATM    2  N   UNL     1      41.812 -12.783   5.974  1.00  0.00    -0.255 N 
HETATM    3  C   UNL     1      40.404 -12.781   6.100  1.00  0.00     0.270 A 
HETATM    4  O   UNL     1      39.676 -13.769   6.111  1.00  0.00    -0.266 OA
HETATM    5  C   UNL     1      39.859 -11.463   6.247  1.00  0.00     0.099 A 
HETATM    6  C   UNL     1      40.699 -10.386   6.233  1.00  0.00     0.164 A 
HETATM    7  N   UNL     1      39.905  -9.287   6.383  1.00  0.00    -0.260 N 
HETATM    8  H   UNL     1      40.189  -8.315   6.399  1.00  0.00     0.191 HD
HETATM    9  N   UNL     1      38.596  -9.596   6.521  1.00  0.00    -0.184 NA
HETATM   10  C   UNL     1      38.576 -10.933   6.432  1.00  0.00     0.159 A 
HETATM   11  N   UNL     1      42.036 -10.381   6.079  1.00  0.00    -0.204 NA
ENDROOT
BRANCH   1  12
HETATM   12  S   UNL     1      44.295 -11.646   5.676  1.00  0.00    -0.082 SA
BRANCH  12  13
HETATM   13  C   UNL     1      44.916 -11.631   7.378  1.00  0.00     0.185 C 
BRANCH  13  14
HETATM   14  C   UNL     1      46.082 -10.673   7.500  1.00  0.00     0.231 C 
HETATM   15  N   UNL     1      45.991  -9.497   8.188  1.00  0.00    -0.327 N 
HETATM   16  H   UNL     1      46.793  -8.908   7.989  1.00  0.00     0.169 HD
HETATM   17  O   UNL     1      47.147 -10.905   6.911  1.00  0.00    -0.272 OA
BRANCH  15  18
HETATM   18  C   UNL     1      45.069  -8.975   9.114  1.00  0.00     0.034 A 
HETATM   19  C   UNL     1      44.203  -7.912   8.873  1.00  0.00     0.032 A 
HETATM   20  C   UNL     1      43.300  -7.492   9.858  1.00  0.00     0.039 A 
HETATM   21  C   UNL     1      43.227  -8.140  11.090  1.00  0.00     0.068 A 
HETATM   22  C   UNL     1      44.077  -9.213  11.336  1.00  0.00     0.039 A 
HETATM   23  C   UNL     1      44.983  -9.630  10.351  1.00  0.00     0.032 A 
BRANCH  21  24
HETATM   24  O   UNL     1      42.293  -7.633  11.949  1.00  0.00    -0.352 OA
BRANCH  24  25
HETATM   25  C   UNL     1      42.338  -8.094  13.299  1.00  0.00     0.171 C 
HETATM   26  C   UNL     1      43.134  -7.086  14.108  1.00  0.00     0.034 C 
ENDBRANCH  24  25
ENDBRANCH  21  24
ENDBRANCH  15  18
ENDBRANCH  13  14
ENDBRANCH  12  13
ENDBRANCH   1  12
BRANCH   2  27
HETATM   27  C   UNL     1      42.431 -14.072   5.886  1.00  0.00     0.056 A 
HETATM   28  C   UNL     1      42.683 -14.710   4.636  1.00  0.00     0.002 A 
HETATM   29  C   UNL     1      43.274 -16.000   4.648  1.00  0.00    -0.024 A 
HETATM   30  C   UNL     1      42.412 -14.130   3.371  1.00  0.00     0.014 A 
HETATM   31  C   UNL     1      43.511 -16.677   3.441  1.00  0.00     0.012 A 
HETATM   32  C   UNL     1      43.636 -16.594   5.866  1.00  0.00     0.012 A 
HETATM   33  C   UNL     1      43.193 -16.095   2.215  1.00  0.00     0.001 A 
HETATM   34  C   UNL     1      42.652 -14.817   2.179  1.00  0.00     0.001 A 
HETATM   35  C   UNL     1      43.432 -15.937   7.076  1.00  0.00     0.003 A 
HETATM   36  C   UNL     1      42.832 -14.684   7.087  1.00  0.00     0.031 A 
ENDBRANCH   2  27
TORSDOF 7
ENDMDL
MODEL 2
REMARK VINA RESULT:      -9.2      3.205      5.161
REMARK  7 active torsions:
REMARK  status: ('A' for Active; 'I' for Inactive)
REMARK    1  A    between atoms: C_2  and  O_3 
REMARK    2  A    between atoms: O_3  and  C_4 
REMARK    3  A    between atoms: C_7  and  N_8 
REMARK       I    between atoms: N_8  and  C_9 
REMARK    4  A    between atoms: C_9  and  C_10 
REMARK    5  A    between atoms: C_10  and  S_11 
REMARK    6  A    between atoms: S_11  and  C_12 
REMARK    7  A    between atoms: N_13  and  C_14 
ROOT
HETATM    1  C   UNL     1      41.908 -13.395   1.750  1.00  0.00     0.178 A 
HETATM    2  N   UNL     1      41.202 -14.558   2.153  1.00  0.00    -0.255 N 
HETATM    3  C   UNL     1      40.293 -15.205   1.286  1.00  0.00     0.270 A 
HETATM    4  O   UNL     1      39.665 -16.230   1.529  1.00  0.00    -0.266 OA
HETATM    5  C   UNL     1      40.130 -14.518   0.037  1.00  0.00     0.099 A 
HETATM    6  C   UNL     1      40.843 -13.378  -0.198  1.00  0.00     0.164 A 
HETATM    7  N   UNL     1      40.490 -12.964  -1.448  1.00  0.00    -0.260 N 
HETATM    8  H   UNL     1      40.838 -12.159  -1.956  1.00  0.00     0.191 HD
HETATM    9  N   UNL     1      39.565 -13.762  -2.028  1.00  0.00    -0.184 NA
HETATM   10  C   UNL     1      39.353 -14.716  -1.111  1.00  0.00     0.159 A 
HETATM   11  N   UNL     1      41.735 -12.778   0.611  1.00  0.00    -0.204 NA
ENDROOT
BRANCH   1  12
HETATM   12  S   UNL     1      43.099 -12.695   2.848  1.00  0.00    -0.082 SA
BRANCH  12  13
HETATM   13  C   UNL     1      42.497 -10.992   3.006  1.00  0.00     0.185 C 
BRANCH  13  14
HETATM   14  C   UNL     1      41.217 -10.963   3.812  1.00  0.00     0.231 C 
HETATM   15  N   UNL     1      41.202 -11.155   5.164  1.00  0.00    -0.327 N 
HETATM   16  H   UNL     1      40.252 -11.301   5.490  1.00  0.00     0.169 HD
HETATM   17  O   UNL     1      40.124 -10.829   3.245  1.00  0.00    -0.272 OA
BRANCH  15  18
HETATM   18  C   UNL     1      42.192 -11.147   6.164  1.00  0.00     0.034 A 
HETATM   19  C   UNL     1      43.030 -12.215   6.472  1.00  0.00     0.032 A 
HETATM   20  C   UNL     1      44.007 -12.089   7.468  1.00  0.00     0.039 A 
HETATM   21  C   UNL     1      44.183 -10.889   8.155  1.00  0.00     0.068 A 
HETATM   22  C   UNL     1      43.362  -9.811   7.844  1.00  0.00     0.039 A 
HETATM   23  C   UNL     1      42.382  -9.939   6.850  1.00  0.00     0.032 A 
BRANCH  21  24
HETATM   24  O   UNL     1      45.179 -10.905   9.089  1.00  0.00    -0.352 OA
BRANCH  24  25
HETATM   25  C   UNL     1      45.057  -9.995  10.181  1.00  0.00     0.171 C 
HETATM   26  C   UNL     1      44.141 -10.628  11.214  1.00  0.00     0.034 C 
ENDBRANCH  24  25
ENDBRANCH  21  24
ENDBRANCH  15  18
ENDBRANCH  13  14
ENDBRANCH  12  13
ENDBRANCH   1  12
BRANCH   2  27
HETATM   27  C   UNL     1      41.367 -15.154   3.446  1.00  0.00     0.056 A 
HETATM   28  C   UNL     1      42.272 -16.232   3.676  1.00  0.00     0.002 A 
HETATM   29  C   UNL     1      42.346 -16.780   4.982  1.00  0.00    -0.024 A 
HETATM   30  C   UNL     1      43.131 -16.781   2.690  1.00  0.00     0.014 A 
HETATM   31  C   UNL     1      43.200 -17.863   5.245  1.00  0.00     0.012 A 
HETATM   32  C   UNL     1      41.577 -16.229   6.018  1.00  0.00     0.012 A 
HETATM   33  C   UNL     1      44.002 -18.406   4.243  1.00  0.00     0.001 A 
HETATM   34  C   UNL     1      43.975 -17.859   2.967  1.00  0.00     0.001 A 
HETATM   35  C   UNL     1      40.737 -15.142   5.791  1.00  0.00     0.003 A 
HETATM   36  C   UNL     1      40.632 -14.608   4.512  1.00  0.00     0.031 A 
ENDBRANCH   2  27
TORSDOF 7
ENDMDL
MODEL 3
REMARK VINA RESULT:      -8.9      0.696      2.036
REMARK  7 active torsions:
REMARK  status: ('A' for Active; 'I' for Inactive)
REMARK    1  A    between atoms: C_2  and  O_3 
REMARK    2  A    between atoms: O_3  and  C_4 
REMARK    3  A    between atoms: C_7  and  N_8 
REMARK       I    between atoms: N_8  and  C_9 
REMARK    4  A    between atoms: C_9  and  C_10 
REMARK    5  A    between atoms: C_10  and  S_11 
REMARK    6  A    between atoms: S_11  and  C_12 
REMARK    7  A    between atoms: N_13  and  C_14 
ROOT
HETATM    1  C   UNL     1      42.559 -11.459   5.736  1.00  0.00     0.178 A 
HETATM    2  N   UNL     1      41.738 -12.400   5.061  1.00  0.00    -0.255 N 
HETATM    3  C   UNL     1      40.329 -12.290   5.074  1.00  0.00     0.270 A 
HETATM    4  O   UNL     1      39.540 -13.029   4.494  1.00  0.00    -0.266 OA
HETATM    5  C   UNL     1      39.863 -11.202   5.884  1.00  0.00     0.099 A 
HETATM    6  C   UNL     1      40.769 -10.401   6.516  1.00  0.00     0.164 A 
HETATM    7  N   UNL     1      40.041  -9.468   7.191  1.00  0.00    -0.260 N 
HETATM    8  H   UNL     1      40.387  -8.701   7.757  1.00  0.00     0.191 HD
HETATM    9  N   UNL     1      38.706  -9.636   7.052  1.00  0.00    -0.184 NA
HETATM   10  C   UNL     1      38.606 -10.700   6.243  1.00  0.00     0.159 A 
HETATM   11  N   UNL     1      42.112 -10.482   6.479  1.00  0.00    -0.204 NA
ENDROOT
BRANCH   1  12
HETATM   12  S   UNL     1      44.312 -11.601   5.598  1.00  0.00    -0.082 SA
BRANCH  12  13
HETATM   13  C   UNL     1      44.814 -11.660   7.339  1.00  0.00     0.185 C 
BRANCH  13  14
HETATM   14  C   UNL     1      45.983 -10.728   7.576  1.00  0.00     0.231 C 
HETATM   15  N   UNL     1      45.887  -9.628   8.380  1.00  0.00    -0.327 N 
HETATM   16  H   UNL     1      46.696  -9.027   8.255  1.00  0.00     0.169 HD
HETATM   17  O   UNL     1      47.056 -10.906   6.984  1.00  0.00    -0.272 OA
BRANCH  15  18
HETATM   18  C   UNL     1      44.953  -9.197   9.340  1.00  0.00     0.034 A 
HETATM   19  C   UNL     1      44.746  -9.790  10.582  1.00  0.00     0.032 A 
HETATM   20  C   UNL     1      43.809  -9.260  11.478  1.00  0.00     0.039 A 
HETATM   21  C   UNL     1      43.082  -8.113  11.163  1.00  0.00     0.068 A 
HETATM   22  C   UNL     1      43.292  -7.503   9.931  1.00  0.00     0.039 A 
HETATM   23  C   UNL     1      44.227  -8.037   9.033  1.00  0.00     0.032 A 
BRANCH  21  24
HETATM   24  O   UNL     1      42.215  -7.700  12.133  1.00  0.00    -0.352 OA
BRANCH  24  25
HETATM   25  C   UNL     1      42.477  -8.138  13.466  1.00  0.00     0.171 C 
HETATM   26  C   UNL     1      43.153  -6.998  14.206  1.00  0.00     0.034 C 
ENDBRANCH  24  25
ENDBRANCH  21  24
ENDBRANCH  15  18
ENDBRANCH  13  14
ENDBRANCH  12  13
ENDBRANCH   1  12
BRANCH   2  27
HETATM   27  C   UNL     1      42.274 -13.505   4.322  1.00  0.00     0.056 A 
HETATM   28  C   UNL     1      42.488 -14.783   4.915  1.00  0.00     0.002 A 
HETATM   29  C   UNL     1      43.051 -15.810   4.114  1.00  0.00    -0.024 A 
HETATM   30  C   UNL     1      42.148 -15.114   6.252  1.00  0.00     0.014 A 
HETATM   31  C   UNL     1      43.308 -17.075   4.667  1.00  0.00     0.012 A 
HETATM   32  C   UNL     1      43.338 -15.567   2.762  1.00  0.00     0.012 A 
HETATM   33  C   UNL     1      43.000 -17.354   5.997  1.00  0.00     0.001 A 
HETATM   34  C   UNL     1      42.411 -16.377   6.787  1.00  0.00     0.001 A 
HETATM   35  C   UNL     1      43.075 -14.328   2.183  1.00  0.00     0.003 A 
HETATM   36  C   UNL     1      42.547 -13.303   2.958  1.00  0.00     0.031 A 
ENDBRANCH   2  27
TORSDOF 7
ENDMDL
MODEL 4
REMARK VINA RESULT:      -8.8      4.597      7.586
REMARK  7 active torsions:
REMARK  status: ('A' for Active; 'I' for Inactive)
REMARK    1  A    between atoms: C_2  and  O_3 
REMARK    2  A    between atoms: O_3  and  C_4 
REMARK    3  A    between atoms: C_7  and  N_8 
REMARK       I    between atoms: N_8  and  C_9 
REMARK    4  A    between atoms: C_9  and  C_10 
REMARK    5  A    between atoms: C_10  and  S_11 
REMARK    6  A    between atoms: S_11  and  C_12 
REMARK    7  A    between atoms: N_13  and  C_14 
ROOT
HETATM    1  C   UNL     1      42.093 -13.357   2.487  1.00  0.00     0.178 A 
HETATM    2  N   UNL     1      41.290 -14.467   2.858  1.00  0.00    -0.255 N 
HETATM    3  C   UNL     1      40.412 -15.080   1.935  1.00  0.00     0.270 A 
HETATM    4  O   UNL     1      39.707 -16.061   2.148  1.00  0.00    -0.266 OA
HETATM    5  C   UNL     1      40.385 -14.414   0.665  1.00  0.00     0.099 A 
HETATM    6  C   UNL     1      41.181 -13.323   0.463  1.00  0.00     0.164 A 
HETATM    7  N   UNL     1      40.949 -12.919  -0.818  1.00  0.00    -0.260 N 
HETATM    8  H   UNL     1      41.382 -12.148  -1.313  1.00  0.00     0.191 HD
HETATM    9  N   UNL     1      40.024 -13.674  -1.451  1.00  0.00    -0.184 NA
HETATM   10  C   UNL     1      39.687 -14.593  -0.536  1.00  0.00     0.159 A 
HETATM   11  N   UNL     1      42.044 -12.757   1.328  1.00  0.00    -0.204 NA
ENDROOT
BRANCH   1  12
HETATM   12  S   UNL     1      43.237 -12.702   3.660  1.00  0.00    -0.082 SA
BRANCH  12  13
HETATM   13  C   UNL     1      43.016 -10.917   3.434  1.00  0.00     0.185 C 
BRANCH  13  14
HETATM   14  C   UNL     1      42.030 -10.380   4.449  1.00  0.00     0.231 C 
HETATM   15  N   UNL     1      40.735 -10.089   4.125  1.00  0.00    -0.327 N 
HETATM   16  H   UNL     1      40.296  -9.559   4.871  1.00  0.00     0.169 HD
HETATM   17  O   UNL     1      42.398 -10.125   5.604  1.00  0.00    -0.272 OA
BRANCH  15  18
HETATM   18  C   UNL     1      39.908 -10.401   3.031  1.00  0.00     0.034 A 
HETATM   19  C   UNL     1      39.920  -9.745   1.803  1.00  0.00     0.032 A 
HETATM   20  C   UNL     1      39.072 -10.158   0.767  1.00  0.00     0.039 A 
HETATM   21  C   UNL     1      38.218 -11.247   0.928  1.00  0.00     0.068 A 
HETATM   22  C   UNL     1      38.209 -11.920   2.145  1.00  0.00     0.039 A 
HETATM   23  C   UNL     1      39.055 -11.503   3.183  1.00  0.00     0.032 A 
BRANCH  21  24
HETATM   24  O   UNL     1      37.459 -11.546  -0.168  1.00  0.00    -0.352 OA
BRANCH  24  25
HETATM   25  C   UNL     1      37.742 -10.828  -1.367  1.00  0.00     0.171 C 
HETATM   26  C   UNL     1      37.298 -11.685  -2.539  1.00  0.00     0.034 C 
ENDBRANCH  24  25
ENDBRANCH  21  24
ENDBRANCH  15  18
ENDBRANCH  13  14
ENDBRANCH  12  13
ENDBRANCH   1  12
BRANCH   2  27
HETATM   27  C   UNL     1      41.321 -15.041   4.170  1.00  0.00     0.056 A 
HETATM   28  C   UNL     1      42.188 -16.122   4.506  1.00  0.00     0.002 A 
HETATM   29  C   UNL     1      42.128 -16.646   5.823  1.00  0.00    -0.024 A 
HETATM   30  C   UNL     1      43.137 -16.694   3.620  1.00  0.00     0.014 A 
HETATM   31  C   UNL     1      42.943 -17.731   6.187  1.00  0.00     0.012 A 
HETATM   32  C   UNL     1      41.265 -16.072   6.768  1.00  0.00     0.012 A 
HETATM   33  C   UNL     1      43.835 -18.298   5.279  1.00  0.00     0.001 A 
HETATM   34  C   UNL     1      43.939 -17.773   3.998  1.00  0.00     0.001 A 
HETATM   35  C   UNL     1      40.461 -14.983   6.440  1.00  0.00     0.003 A 
HETATM   36  C   UNL     1      40.488 -14.471   5.149  1.00  0.00     0.031 A 
ENDBRANCH   2  27
TORSDOF 7
ENDMDL
MODEL 5
REMARK VINA RESULT:      -8.8      2.762      8.020
REMARK  7 active torsions:
REMARK  status: ('A' for Active; 'I' for Inactive)
REMARK    1  A    between atoms: C_2  and  O_3 
REMARK    2  A    between atoms: O_3  and  C_4 
REMARK    3  A    between atoms: C_7  and  N_8 
REMARK       I    between atoms: N_8  and  C_9 
REMARK    4  A    between atoms: C_9  and  C_10 
REMARK    5  A    between atoms: C_10  and  S_11 
REMARK    6  A    between atoms: S_11  and  C_12 
REMARK    7  A    between atoms: N_13  and  C_14 
ROOT
HETATM    1  C   UNL     1      42.134 -13.116   6.026  1.00  0.00     0.178 A 
HETATM    2  N   UNL     1      42.626 -11.798   5.841  1.00  0.00    -0.255 N 
HETATM    3  C   UNL     1      41.942 -10.865   5.028  1.00  0.00     0.270 A 
HETATM    4  O   UNL     1      42.265  -9.698   4.835  1.00  0.00    -0.266 OA
HETATM    5  C   UNL     1      40.788 -11.426   4.386  1.00  0.00     0.099 A 
HETATM    6  C   UNL     1      40.458 -12.730   4.622  1.00  0.00     0.164 A 
HETATM    7  N   UNL     1      39.331 -12.971   3.894  1.00  0.00    -0.260 N 
HETATM    8  H   UNL     1      38.798 -13.832   3.843  1.00  0.00     0.191 HD
HETATM    9  N   UNL     1      38.925 -11.900   3.177  1.00  0.00    -0.184 NA
HETATM   10  C   UNL     1      39.822 -10.954   3.489  1.00  0.00     0.159 A 
HETATM   11  N   UNL     1      41.087 -13.611   5.422  1.00  0.00    -0.204 NA
ENDROOT
BRANCH   1  12
HETATM   12  S   UNL     1      42.987 -14.197   7.130  1.00  0.00    -0.082 SA
BRANCH  12  13
HETATM   13  C   UNL     1      41.988 -15.705   7.012  1.00  0.00     0.185 C 
BRANCH  13  14
HETATM   14  C   UNL     1      42.813 -16.833   6.430  1.00  0.00     0.231 C 
HETATM   15  N   UNL     1      42.827 -17.111   5.092  1.00  0.00    -0.327 N 
HETATM   16  H   UNL     1      43.267 -18.010   4.923  1.00  0.00     0.169 HD
HETATM   17  O   UNL     1      43.456 -17.586   7.173  1.00  0.00    -0.272 OA
BRANCH  15  18
HETATM   18  C   UNL     1      42.410 -16.413   3.944  1.00  0.00     0.034 A 
HETATM   19  C   UNL     1      41.146 -16.498   3.368  1.00  0.00     0.032 A 
HETATM   20  C   UNL     1      40.825 -15.732   2.239  1.00  0.00     0.039 A 
HETATM   21  C   UNL     1      41.749 -14.849   1.683  1.00  0.00     0.068 A 
HETATM   22  C   UNL     1      43.010 -14.744   2.261  1.00  0.00     0.039 A 
HETATM   23  C   UNL     1      43.332 -15.514   3.388  1.00  0.00     0.032 A 
BRANCH  21  24
HETATM   24  O   UNL     1      41.298 -14.158   0.595  1.00  0.00    -0.352 OA
BRANCH  24  25
HETATM   25  C   UNL     1      39.890 -14.158   0.366  1.00  0.00     0.171 C 
HETATM   26  C   UNL     1      39.659 -14.337  -1.123  1.00  0.00     0.034 C 
ENDBRANCH  24  25
ENDBRANCH  21  24
ENDBRANCH  15  18
ENDBRANCH  13  14
ENDBRANCH  12  13
ENDBRANCH   1  12
BRANCH   2  27
HETATM   27  C   UNL     1      43.826 -11.324   6.464  1.00  0.00     0.056 A 
HETATM   28  C   UNL     1      43.805 -10.533   7.650  1.00  0.00     0.002 A 
HETATM   29  C   UNL     1      45.042 -10.083   8.179  1.00  0.00    -0.024 A 
HETATM   30  C   UNL     1      42.628 -10.187   8.362  1.00  0.00     0.014 A 
HETATM   31  C   UNL     1      45.065  -9.276   9.327  1.00  0.00     0.012 A 
HETATM   32  C   UNL     1      46.245 -10.457   7.563  1.00  0.00     0.012 A 
HETATM   33  C   UNL     1      43.886  -8.918   9.980  1.00  0.00     0.001 A 
HETATM   34  C   UNL     1      42.668  -9.382   9.502  1.00  0.00     0.001 A 
HETATM   35  C   UNL     1      46.253 -11.273   6.435  1.00  0.00     0.003 A 
HETATM   36  C   UNL     1      45.051 -11.704   5.888  1.00  0.00     0.031 A 
ENDBRANCH   2  27
TORSDOF 7
ENDMDL
MODEL 6
REMARK VINA RESULT:      -8.8      1.758      2.019
REMARK  7 active torsions:
REMARK  status: ('A' for Active; 'I' for Inactive)
REMARK    1  A    between atoms: C_2  and  O_3 
REMARK    2  A    between atoms: O_3  and  C_4 
REMARK    3  A    between atoms: C_7  and  N_8 
REMARK       I    between atoms: N_8  and  C_9 
REMARK    4  A    between atoms: C_9  and  C_10 
REMARK    5  A    between atoms: C_10  and  S_11 
REMARK    6  A    between atoms: S_11  and  C_12 
REMARK    7  A    between atoms: N_13  and  C_14 
ROOT
HETATM    1  C   UNL     1      42.552 -11.634   4.773  1.00  0.00     0.178 A 
HETATM    2  N   UNL     1      41.486 -12.472   4.353  1.00  0.00    -0.255 N 
HETATM    3  C   UNL     1      40.388 -11.957   3.627  1.00  0.00     0.270 A 
HETATM    4  O   UNL     1      39.440 -12.603   3.191  1.00  0.00    -0.266 OA
HETATM    5  C   UNL     1      40.455 -10.535   3.450  1.00  0.00     0.099 A 
HETATM    6  C   UNL     1      41.523  -9.847   3.950  1.00  0.00     0.164 A 
HETATM    7  N   UNL     1      41.315  -8.540   3.625  1.00  0.00    -0.260 N 
HETATM    8  H   UNL     1      41.916  -7.748   3.823  1.00  0.00     0.191 HD
HETATM    9  N   UNL     1      40.154  -8.338   2.962  1.00  0.00    -0.184 NA
HETATM   10  C   UNL     1      39.635  -9.568   2.855  1.00  0.00     0.159 A 
HETATM   11  N   UNL     1      42.587 -10.338   4.612  1.00  0.00    -0.204 NA
ENDROOT
BRANCH   1  12
HETATM   12  S   UNL     1      43.936 -12.361   5.591  1.00  0.00    -0.082 SA
BRANCH  12  13
HETATM   13  C   UNL     1      43.941 -11.469   7.169  1.00  0.00     0.185 C 
BRANCH  13  14
HETATM   14  C   UNL     1      45.288 -10.817   7.397  1.00  0.00     0.231 C 
HETATM   15  N   UNL     1      45.460  -9.787   8.277  1.00  0.00    -0.327 N 
HETATM   16  H   UNL     1      46.370  -9.357   8.143  1.00  0.00     0.169 HD
HETATM   17  O   UNL     1      46.271 -11.165   6.729  1.00  0.00    -0.272 OA
BRANCH  15  18
HETATM   18  C   UNL     1      44.682  -9.251   9.319  1.00  0.00     0.034 A 
HETATM   19  C   UNL     1      44.555  -9.801  10.591  1.00  0.00     0.032 A 
HETATM   20  C   UNL     1      43.775  -9.166  11.567  1.00  0.00     0.039 A 
HETATM   21  C   UNL     1      43.132  -7.958  11.300  1.00  0.00     0.068 A 
HETATM   22  C   UNL     1      43.265  -7.392  10.037  1.00  0.00     0.039 A 
HETATM   23  C   UNL     1      44.042  -8.030   9.060  1.00  0.00     0.032 A 
BRANCH  21  24
HETATM   24  O   UNL     1      42.419  -7.446  12.346  1.00  0.00    -0.352 OA
BRANCH  24  25
HETATM   25  C   UNL     1      42.612  -8.055  13.622  1.00  0.00     0.171 C 
HETATM   26  C   UNL     1      42.989  -6.964  14.608  1.00  0.00     0.034 C 
ENDBRANCH  24  25
ENDBRANCH  21  24
ENDBRANCH  15  18
ENDBRANCH  13  14
ENDBRANCH  12  13
ENDBRANCH   1  12
BRANCH   2  27
HETATM   27  C   UNL     1      41.454 -13.879   4.623  1.00  0.00     0.056 A 
HETATM   28  C   UNL     1      42.065 -14.833   3.757  1.00  0.00     0.002 A 
HETATM   29  C   UNL     1      41.956 -16.207   4.089  1.00  0.00    -0.024 A 
HETATM   30  C   UNL     1      42.805 -14.501   2.594  1.00  0.00     0.014 A 
HETATM   31  C   UNL     1      42.516 -17.182   3.247  1.00  0.00     0.012 A 
HETATM   32  C   UNL     1      41.302 -16.594   5.268  1.00  0.00     0.012 A 
HETATM   33  C   UNL     1      43.202 -16.824   2.088  1.00  0.00     0.001 A 
HETATM   34  C   UNL     1      43.355 -15.482   1.766  1.00  0.00     0.001 A 
HETATM   35  C   UNL     1      40.756 -15.649   6.132  1.00  0.00     0.003 A 
HETATM   36  C   UNL     1      40.830 -14.298   5.811  1.00  0.00     0.031 A 
ENDBRANCH   2  27
TORSDOF 7
ENDMDL
MODEL 7
REMARK VINA RESULT:      -8.6      5.000      7.942
REMARK  7 active torsions:
REMARK  status: ('A' for Active; 'I' for Inactive)
REMARK    1  A    between atoms: C_2  and  O_3 
REMARK    2  A    between atoms: O_3  and  C_4 
REMARK    3  A    between atoms: C_7  and  N_8 
REMARK       I    between atoms: N_8  and  C_9 
REMARK    4  A    between atoms: C_9  and  C_10 
REMARK    5  A    between atoms: C_10  and  S_11 
REMARK    6  A    between atoms: S_11  and  C_12 
REMARK    7  A    between atoms: N_13  and  C_14 
ROOT
HETATM    1  C   UNL     1      41.367 -16.381   2.732  1.00  0.00     0.178 A 
HETATM    2  N   UNL     1      41.979 -15.917   3.926  1.00  0.00    -0.255 N 
HETATM    3  C   UNL     1      43.098 -16.577   4.482  1.00  0.00     0.270 A 
HETATM    4  O   UNL     1      43.716 -16.234   5.486  1.00  0.00    -0.266 OA
HETATM    5  C   UNL     1      43.464 -17.760   3.760  1.00  0.00     0.099 A 
HETATM    6  C   UNL     1      42.754 -18.113   2.649  1.00  0.00     0.164 A 
HETATM    7  N   UNL     1      43.330 -19.256   2.180  1.00  0.00    -0.260 N 
HETATM    8  H   UNL     1      43.072 -19.789   1.357  1.00  0.00     0.191 HD
HETATM    9  N   UNL     1      44.363 -19.679   2.943  1.00  0.00    -0.184 NA
HETATM   10  C   UNL     1      44.441 -18.752   3.908  1.00  0.00     0.159 A 
HETATM   11  N   UNL     1      41.708 -17.470   2.096  1.00  0.00    -0.204 NA
ENDROOT
BRANCH   1  12
HETATM   12  S   UNL     1      40.034 -15.455   2.041  1.00  0.00    -0.082 SA
BRANCH  12  13
HETATM   13  C   UNL     1      40.859 -14.577   0.686  1.00  0.00     0.185 C 
BRANCH  13  14
HETATM   14  C   UNL     1      39.832 -14.021  -0.277  1.00  0.00     0.231 C 
HETATM   15  N   UNL     1      39.069 -12.928   0.022  1.00  0.00    -0.327 N 
HETATM   16  H   UNL     1      38.312 -12.832  -0.647  1.00  0.00     0.169 HD
HETATM   17  O   UNL     1      39.608 -14.593  -1.352  1.00  0.00    -0.272 OA
BRANCH  15  18
HETATM   18  C   UNL     1      39.142 -11.923   1.005  1.00  0.00     0.034 A 
HETATM   19  C   UNL     1      38.528 -11.974   2.253  1.00  0.00     0.032 A 
HETATM   20  C   UNL     1      38.693 -10.929   3.171  1.00  0.00     0.039 A 
HETATM   21  C   UNL     1      39.494  -9.829   2.872  1.00  0.00     0.068 A 
HETATM   22  C   UNL     1      40.125  -9.775   1.634  1.00  0.00     0.039 A 
HETATM   23  C   UNL     1      39.957 -10.819   0.713  1.00  0.00     0.032 A 
BRANCH  21  24
HETATM   24  O   UNL     1      39.575  -8.893   3.863  1.00  0.00    -0.352 OA
BRANCH  24  25
HETATM   25  C   UNL     1      38.816  -9.136   5.046  1.00  0.00     0.171 C 
HETATM   26  C   UNL     1      39.528  -8.458   6.204  1.00  0.00     0.034 C 
ENDBRANCH  24  25
ENDBRANCH  21  24
ENDBRANCH  15  18
ENDBRANCH  13  14
ENDBRANCH  12  13
ENDBRANCH   1  12
BRANCH   2  27
HETATM   27  C   UNL     1      41.517 -14.760   4.634  1.00  0.00     0.056 A 
HETATM   28  C   UNL     1      42.022 -13.454   4.365  1.00  0.00     0.002 A 
HETATM   29  C   UNL     1      41.528 -12.371   5.137  1.00  0.00    -0.024 A 
HETATM   30  C   UNL     1      42.969 -13.153   3.353  1.00  0.00     0.014 A 
HETATM   31  C   UNL     1      42.021 -11.073   4.928  1.00  0.00     0.012 A 
HETATM   32  C   UNL     1      40.533 -12.594   6.101  1.00  0.00     0.012 A 
HETATM   33  C   UNL     1      42.983 -10.818   3.953  1.00  0.00     0.001 A 
HETATM   34  C   UNL     1      43.450 -11.856   3.158  1.00  0.00     0.001 A 
HETATM   35  C   UNL     1      40.012 -13.867   6.316  1.00  0.00     0.003 A 
HETATM   36  C   UNL     1      40.501 -14.944   5.587  1.00  0.00     0.031 A 
ENDBRANCH   2  27
TORSDOF 7
ENDMDL
MODEL 8
REMARK VINA RESULT:      -8.6      2.937      7.910
REMARK  7 active torsions:
REMARK  status: ('A' for Active; 'I' for Inactive)
REMARK    1  A    between atoms: C_2  and  O_3 
REMARK    2  A    between atoms: O_3  and  C_4 
REMARK    3  A    between atoms: C_7  and  N_8 
REMARK       I    between atoms: N_8  and  C_9 
REMARK    4  A    between atoms: C_9  and  C_10 
REMARK    5  A    between atoms: C_10  and  S_11 
REMARK    6  A    between atoms: S_11  and  C_12 
REMARK    7  A    between atoms: N_13  and  C_14 
ROOT
HETATM    1  C   UNL     1      42.346 -10.745   6.594  1.00  0.00     0.178 A 
HETATM    2  N   UNL     1      43.440 -11.532   6.148  1.00  0.00    -0.255 N 
HETATM    3  C   UNL     1      44.766 -11.241   6.543  1.00  0.00     0.270 A 
HETATM    4  O   UNL     1      45.768 -11.880   6.241  1.00  0.00    -0.266 OA
HETATM    5  C   UNL     1      44.859 -10.058   7.348  1.00  0.00     0.099 A 
HETATM    6  C   UNL     1      43.723  -9.370   7.663  1.00  0.00     0.164 A 
HETATM    7  N   UNL     1      44.121  -8.317   8.432  1.00  0.00    -0.260 N 
HETATM    8  H   UNL     1      43.538  -7.605   8.858  1.00  0.00     0.191 HD
HETATM    9  N   UNL     1      45.460  -8.269   8.611  1.00  0.00    -0.184 NA
HETATM   10  C   UNL     1      45.905  -9.344   7.947  1.00  0.00     0.159 A 
HETATM   11  N   UNL     1      42.456  -9.663   7.318  1.00  0.00    -0.204 NA
ENDROOT
BRANCH   1  12
HETATM   12  S   UNL     1      40.710 -11.223   6.140  1.00  0.00    -0.082 SA
BRANCH  12  13
HETATM   13  C   UNL     1      40.209  -9.849   5.069  1.00  0.00     0.185 C 
BRANCH  13  14
HETATM   14  C   UNL     1      38.727  -9.933   4.771  1.00  0.00     0.231 C 
HETATM   15  N   UNL     1      38.241 -10.571   3.665  1.00  0.00    -0.327 N 
HETATM   16  H   UNL     1      37.259 -10.349   3.533  1.00  0.00     0.169 HD
HETATM   17  O   UNL     1      37.908  -9.358   5.500  1.00  0.00    -0.272 OA
BRANCH  15  18
HETATM   18  C   UNL     1      38.791 -11.472   2.735  1.00  0.00     0.034 A 
HETATM   19  C   UNL     1      39.171 -12.782   3.014  1.00  0.00     0.032 A 
HETATM   20  C   UNL     1      39.681 -13.606   2.002  1.00  0.00     0.039 A 
HETATM   21  C   UNL     1      39.796 -13.148   0.691  1.00  0.00     0.068 A 
HETATM   22  C   UNL     1      39.405 -11.846   0.398  1.00  0.00     0.039 A 
HETATM   23  C   UNL     1      38.898 -11.020   1.412  1.00  0.00     0.032 A 
BRANCH  21  24
HETATM   24  O   UNL     1      40.295 -14.061  -0.193  1.00  0.00    -0.352 OA
BRANCH  24  25
HETATM   25  C   UNL     1      39.480 -14.387  -1.318  1.00  0.00     0.171 C 
HETATM   26  C   UNL     1      40.207 -13.929  -2.569  1.00  0.00     0.034 C 
ENDBRANCH  24  25
ENDBRANCH  21  24
ENDBRANCH  15  18
ENDBRANCH  13  14
ENDBRANCH  12  13
ENDBRANCH   1  12
BRANCH   2  27
HETATM   27  C   UNL     1      43.278 -12.667   5.287  1.00  0.00     0.056 A 
HETATM   28  C   UNL     1      43.104 -13.987   5.795  1.00  0.00     0.002 A 
HETATM   29  C   UNL     1      42.981 -15.053   4.867  1.00  0.00    -0.024 A 
HETATM   30  C   UNL     1      43.013 -14.310   7.173  1.00  0.00     0.014 A 
HETATM   31  C   UNL     1      42.839 -16.373   5.325  1.00  0.00     0.012 A 
HETATM   32  C   UNL     1      42.985 -14.787   3.490  1.00  0.00     0.012 A 
HETATM   33  C   UNL     1      42.796 -16.661   6.688  1.00  0.00     0.001 A 
HETATM   34  C   UNL     1      42.873 -15.629   7.612  1.00  0.00     0.001 A 
HETATM   35  C   UNL     1      43.104 -13.486   3.008  1.00  0.00     0.003 A 
HETATM   36  C   UNL     1      43.250 -12.432   3.901  1.00  0.00     0.031 A 
ENDBRANCH   2  27
TORSDOF 7
ENDMDL
MODEL 9
REMARK VINA RESULT:      -8.6      3.347      7.662
REMARK  7 active torsions:
REMARK  status: ('A' for Active; 'I' for Inactive)
REMARK    1  A    between atoms: C_2  and  O_3 
REMARK    2  A    between atoms: O_3  and  C_4 
REMARK    3  A    between atoms: C_7  and  N_8 
REMARK       I    between atoms: N_8  and  C_9 
REMARK    4  A    between atoms: C_9  and  C_10 
REMARK    5  A    between atoms: C_10  and  S_11 
REMARK    6  A    between atoms: S_11  and  C_12 
REMARK    7  A    between atoms: N_13  and  C_14 
ROOT
HETATM    1  C   UNL     1      41.722 -11.555   6.369  1.00  0.00     0.178 A 
HETATM    2  N   UNL     1      42.454 -12.764   6.241  1.00  0.00    -0.255 N 
HETATM    3  C   UNL     1      43.798 -12.859   6.669  1.00  0.00     0.270 A 
HETATM    4  O   UNL     1      44.500 -13.864   6.634  1.00  0.00    -0.266 OA
HETATM    5  C   UNL     1      44.318 -11.613   7.152  1.00  0.00     0.099 A 
HETATM    6  C   UNL     1      43.509 -10.513   7.175  1.00  0.00     0.164 A 
HETATM    7  N   UNL     1      44.266  -9.499   7.683  1.00  0.00    -0.260 N 
HETATM    8  H   UNL     1      43.983  -8.542   7.858  1.00  0.00     0.191 HD
HETATM    9  N   UNL     1      45.533  -9.876   7.968  1.00  0.00    -0.184 NA
HETATM   10  C   UNL     1      45.555 -11.176   7.643  1.00  0.00     0.159 A 
HETATM   11  N   UNL     1      42.219 -10.427   6.800  1.00  0.00    -0.204 NA
ENDROOT
BRANCH   1  12
HETATM   12  S   UNL     1      40.020 -11.534   5.902  1.00  0.00    -0.082 SA
BRANCH  12  13
HETATM   13  C   UNL     1      39.849  -9.869   5.208  1.00  0.00     0.185 C 
BRANCH  13  14
HETATM   14  C   UNL     1      38.457  -9.680   4.643  1.00  0.00     0.231 C 
HETATM   15  N   UNL     1      38.122 -10.077   3.380  1.00  0.00    -0.327 N 
HETATM   16  H   UNL     1      37.223  -9.689   3.115  1.00  0.00     0.169 HD
HETATM   17  O   UNL     1      37.591  -9.089   5.302  1.00  0.00    -0.272 OA
BRANCH  15  18
HETATM   18  C   UNL     1      38.727 -10.916   2.426  1.00  0.00     0.034 A 
HETATM   19  C   UNL     1      38.870 -12.296   2.546  1.00  0.00     0.032 A 
HETATM   20  C   UNL     1      39.461 -13.042   1.519  1.00  0.00     0.039 A 
HETATM   21  C   UNL     1      39.895 -12.431   0.344  1.00  0.00     0.068 A 
HETATM   22  C   UNL     1      39.744 -11.055   0.207  1.00  0.00     0.039 A 
HETATM   23  C   UNL     1      39.155 -10.308   1.238  1.00  0.00     0.032 A 
BRANCH  21  24
HETATM   24  O   UNL     1      40.440 -13.281  -0.576  1.00  0.00    -0.352 OA
BRANCH  24  25
HETATM   25  C   UNL     1      39.759 -14.515  -0.800  1.00  0.00     0.171 C 
HETATM   26  C   UNL     1      38.920 -14.363  -2.056  1.00  0.00     0.034 C 
ENDBRANCH  24  25
ENDBRANCH  21  24
ENDBRANCH  15  18
ENDBRANCH  13  14
ENDBRANCH  12  13
ENDBRANCH   1  12
BRANCH   2  27
HETATM   27  C   UNL     1      41.888 -13.958   5.686  1.00  0.00     0.056 A 
HETATM   28  C   UNL     1      42.111 -14.346   4.333  1.00  0.00     0.002 A 
HETATM   29  C   UNL     1      41.484 -15.529   3.862  1.00  0.00    -0.024 A 
HETATM   30  C   UNL     1      42.945 -13.646   3.425  1.00  0.00     0.014 A 
HETATM   31  C   UNL     1      41.651 -15.932   2.527  1.00  0.00     0.012 A 
HETATM   32  C   UNL     1      40.709 -16.307   4.735  1.00  0.00     0.012 A 
HETATM   33  C   UNL     1      42.445 -15.197   1.648  1.00  0.00     0.001 A 
HETATM   34  C   UNL     1      43.100 -14.059   2.099  1.00  0.00     0.001 A 
HETATM   35  C   UNL     1      40.543 -15.943   6.068  1.00  0.00     0.003 A 
HETATM   36  C   UNL     1      41.128 -14.775   6.542  1.00  0.00     0.031 A 
ENDBRANCH   2  27
TORSDOF 7
ENDMDL
MODEL 10
REMARK VINA RESULT:      -8.4      2.562      8.658
REMARK  7 active torsions:
REMARK  status: ('A' for Active; 'I' for Inactive)
REMARK    1  A    between atoms: C_2  and  O_3 
REMARK    2  A    between atoms: O_3  and  C_4 
REMARK    3  A    between atoms: C_7  and  N_8 
REMARK       I    between atoms: N_8  and  C_9 
REMARK    4  A    between atoms: C_9  and  C_10 
REMARK    5  A    between atoms: C_10  and  S_11 
REMARK    6  A    between atoms: S_11  and  C_12 
REMARK    7  A    between atoms: N_13  and  C_14 
ROOT
HETATM    1  C   UNL     1      42.066  -9.744   6.247  1.00  0.00     0.178 A 
HETATM    2  N   UNL     1      42.559  -8.790   7.174  1.00  0.00    -0.255 N 
HETATM    3  C   UNL     1      42.280  -7.412   7.030  1.00  0.00     0.270 A 
HETATM    4  O   UNL     1      42.629  -6.518   7.795  1.00  0.00    -0.266 OA
HETATM    5  C   UNL     1      41.536  -7.116   5.840  1.00  0.00     0.099 A 
HETATM    6  C   UNL     1      41.166  -8.135   5.010  1.00  0.00     0.164 A 
HETATM    7  N   UNL     1      40.478  -7.556   3.986  1.00  0.00    -0.260 N 
HETATM    8  H   UNL     1      40.040  -8.015   3.196  1.00  0.00     0.191 HD
HETATM    9  N   UNL     1      40.403  -6.210   4.093  1.00  0.00    -0.184 NA
HETATM   10  C   UNL     1      41.051  -5.949   5.237  1.00  0.00     0.159 A 
HETATM   11  N   UNL     1      41.401  -9.452   5.161  1.00  0.00    -0.204 NA
ENDROOT
BRANCH   1  12
HETATM   12  S   UNL     1      42.373 -11.457   6.540  1.00  0.00    -0.082 SA
BRANCH  12  13
HETATM   13  C   UNL     1      41.465 -12.233   5.177  1.00  0.00     0.185 C 
BRANCH  13  14
HETATM   14  C   UNL     1      40.354 -13.106   5.719  1.00  0.00     0.231 C 
HETATM   15  N   UNL     1      40.137 -14.376   5.266  1.00  0.00    -0.327 N 
HETATM   16  H   UNL     1      39.241 -14.720   5.595  1.00  0.00     0.169 HD
HETATM   17  O   UNL     1      39.558 -12.658   6.555  1.00  0.00    -0.272 OA
BRANCH  15  18
HETATM   18  C   UNL     1      40.893 -15.284   4.502  1.00  0.00     0.034 A 
HETATM   19  C   UNL     1      40.667 -15.589   3.163  1.00  0.00     0.032 A 
HETATM   20  C   UNL     1      41.503 -16.488   2.486  1.00  0.00     0.039 A 
HETATM   21  C   UNL     1      42.594 -17.075   3.125  1.00  0.00     0.068 A 
HETATM   22  C   UNL     1      42.839 -16.764   4.458  1.00  0.00     0.039 A 
HETATM   23  C   UNL     1      41.999 -15.868   5.136  1.00  0.00     0.032 A 
BRANCH  21  24
HETATM   24  O   UNL     1      43.329 -17.918   2.342  1.00  0.00    -0.352 OA
BRANCH  24  25
HETATM   25  C   UNL     1      43.735 -19.155   2.926  1.00  0.00     0.171 C 
HETATM   26  C   UNL     1      43.508 -20.251   1.901  1.00  0.00     0.034 C 
ENDBRANCH  24  25
ENDBRANCH  21  24
ENDBRANCH  15  18
ENDBRANCH  13  14
ENDBRANCH  12  13
ENDBRANCH   1  12
BRANCH   2  27
HETATM   27  C   UNL     1      43.355  -9.153   8.310  1.00  0.00     0.056 A 
HETATM   28  C   UNL     1      42.782  -9.387   9.595  1.00  0.00     0.002 A 
HETATM   29  C   UNL     1      43.651  -9.712  10.668  1.00  0.00    -0.024 A 
HETATM   30  C   UNL     1      41.392  -9.348   9.872  1.00  0.00     0.014 A 
HETATM   31  C   UNL     1      43.133  -9.920  11.956  1.00  0.00     0.012 A 
HETATM   32  C   UNL     1      45.029  -9.842  10.440  1.00  0.00     0.012 A 
HETATM   33  C   UNL     1      41.764  -9.833  12.204  1.00  0.00     0.001 A 
HETATM   34  C   UNL     1      40.892  -9.556  11.159  1.00  0.00     0.001 A 
HETATM   35  C   UNL     1      45.568  -9.661   9.169  1.00  0.00     0.003 A 
HETATM   36  C   UNL     1      44.736  -9.318   8.110  1.00  0.00     0.031 A 
ENDBRANCH   2  27
TORSDOF 7
ENDMDL
