MODEL 1
REMARK VINA RESULT:      -7.3      0.000      0.000
REMARK  5 active torsions:
REMARK  status: ('A' for Active; 'I' for Inactive)
REMARK    1  A    between atoms: C_2  and  C_3 
REMARK    2  A    between atoms: C_3  and  N_4 
REMARK    3  A    between atoms: C_3  and  C_19 
REMARK       I    between atoms: N_4  and  C_5 
REMARK    4  A    between atoms: C_5  and  C_6 
REMARK    5  A    between atoms: C_7  and  C_8 
ROOT
HETATM    1  N   UNL     1      46.161 -29.857   1.612  1.00  0.00    -0.345 N 
HETATM    2  C   UNL     1      46.828 -28.759   1.128  1.00  0.00     0.255 C 
HETATM    3  O   UNL     1      46.937 -27.718   1.770  1.00  0.00    -0.268 OA
HETATM    4  H   UNL     1      45.959 -30.629   0.995  1.00  0.00     0.163 HD
ENDROOT
BRANCH   2   5
HETATM    5  C   UNL     1      47.415 -28.935  -0.191  1.00  0.00     0.075 A 
HETATM    6  C   UNL     1      46.802 -28.718  -1.466  1.00  0.00     0.076 A 
HETATM    7  N   UNL     1      47.654 -28.989  -2.467  1.00  0.00    -0.178 NA
HETATM    8  N   UNL     1      48.779 -29.375  -1.857  1.00  0.00    -0.288 N 
HETATM    9  H   UNL     1      49.569 -29.643  -2.435  1.00  0.00     0.188 HD
HETATM   10  C   UNL     1      48.697 -29.351  -0.498  1.00  0.00     0.128 A 
BRANCH   6  11
HETATM   11  C   UNL     1      45.395 -28.227  -1.742  1.00  0.00     0.040 C 
HETATM   12  C   UNL     1      45.235 -27.701  -3.182  1.00  0.00     0.011 C 
HETATM   13  C   UNL     1      45.121 -28.819  -4.215  1.00  0.00     0.001 C 
HETATM   14  C   UNL     1      43.969 -29.761  -3.883  1.00  0.00     0.000 C 
HETATM   15  C   UNL     1      44.101 -30.335  -2.478  1.00  0.00     0.001 C 
HETATM   16  C   UNL     1      44.279 -29.243  -1.420  1.00  0.00     0.011 C 
ENDBRANCH   6  11
ENDBRANCH   2   5
BRANCH   1  17
HETATM   17  C   UNL     1      45.480 -29.838   2.892  1.00  0.00     0.154 C 
BRANCH  17  18
HETATM   18  C   UNL     1      45.971 -30.977   3.795  1.00  0.00     0.028 C 
HETATM   19  C   UNL     1      47.061 -30.520   4.758  1.00  0.00     0.007 C 
ENDBRANCH  17  18
BRANCH  17  20
HETATM   20  C   UNL     1      44.012 -29.950   2.608  1.00  0.00     0.127 A 
HETATM   21  N   UNL     1      43.212 -30.965   2.873  1.00  0.00    -0.237 NA
HETATM   22  C   UNL     1      41.968 -30.593   2.422  1.00  0.00     0.048 A 
HETATM   23  C   UNL     1      40.804 -31.491   2.583  1.00  0.00     0.072 C 
HETATM   24  C   UNL     1      42.022 -29.340   1.853  1.00  0.00     0.116 A 
HETATM   25  N   UNL     1      43.326 -28.948   1.963  1.00  0.00    -0.351 N 
HETATM   26  H   UNL     1      43.737 -28.089   1.620  1.00  0.00     0.166 HD
ENDBRANCH  17  20
ENDBRANCH   1  17
TORSDOF 5
ENDMDL
MODEL 2
REMARK VINA RESULT:      -7.2     18.285     19.577
REMARK  5 active torsions:
REMARK  status: ('A' for Active; 'I' for Inactive)
REMARK    1  A    between atoms: C_2  and  C_3 
REMARK    2  A    between atoms: C_3  and  N_4 
REMARK    3  A    between atoms: C_3  and  C_19 
REMARK       I    between atoms: N_4  and  C_5 
REMARK    4  A    between atoms: C_5  and  C_6 
REMARK    5  A    between atoms: C_7  and  C_8 
ROOT
HETATM    1  N   UNL     1      42.935 -11.163   7.568  1.00  0.00    -0.345 N 
HETATM    2  C   UNL     1      42.450 -11.162   6.283  1.00  0.00     0.255 C 
HETATM    3  O   UNL     1      42.850 -10.375   5.429  1.00  0.00    -0.268 OA
HETATM    4  H   UNL     1      42.470 -11.714   8.274  1.00  0.00     0.163 HD
ENDROOT
BRANCH   2   5
HETATM    5  C   UNL     1      41.448 -12.180   6.008  1.00  0.00     0.075 A 
HETATM    6  C   UNL     1      41.655 -13.561   5.697  1.00  0.00     0.076 A 
HETATM    7  N   UNL     1      40.488 -14.195   5.500  1.00  0.00    -0.178 NA
HETATM    8  N   UNL     1      39.558 -13.250   5.674  1.00  0.00    -0.288 N 
HETATM    9  H   UNL     1      38.584 -13.512   5.560  1.00  0.00     0.188 HD
HETATM   10  C   UNL     1      40.074 -12.031   5.991  1.00  0.00     0.128 A 
BRANCH   6  11
HETATM   11  C   UNL     1      42.977 -14.298   5.602  1.00  0.00     0.040 C 
HETATM   12  C   UNL     1      43.589 -14.573   6.989  1.00  0.00     0.011 C 
HETATM   13  C   UNL     1      42.917 -15.734   7.717  1.00  0.00     0.001 C 
HETATM   14  C   UNL     1      42.954 -17.007   6.879  1.00  0.00     0.000 C 
HETATM   15  C   UNL     1      42.327 -16.793   5.507  1.00  0.00     0.001 C 
HETATM   16  C   UNL     1      42.937 -15.596   4.770  1.00  0.00     0.011 C 
ENDBRANCH   6  11
ENDBRANCH   2   5
BRANCH   1  17
HETATM   17  C   UNL     1      43.906 -10.187   8.023  1.00  0.00     0.154 C 
BRANCH  17  18
HETATM   18  C   UNL     1      45.337 -10.656   7.730  1.00  0.00     0.028 C 
HETATM   19  C   UNL     1      46.359  -9.540   7.917  1.00  0.00     0.007 C 
ENDBRANCH  17  18
BRANCH  17  20
HETATM   20  C   UNL     1      43.675  -9.993   9.492  1.00  0.00     0.127 A 
HETATM   21  N   UNL     1      43.690  -8.862  10.170  1.00  0.00    -0.237 NA
HETATM   22  C   UNL     1      43.429  -9.201  11.476  1.00  0.00     0.048 A 
HETATM   23  C   UNL     1      43.342  -8.163  12.526  1.00  0.00     0.072 C 
HETATM   24  C   UNL     1      43.276 -10.565  11.593  1.00  0.00     0.116 A 
HETATM   25  N   UNL     1      43.450 -11.058  10.330  1.00  0.00    -0.351 N 
HETATM   26  H   UNL     1      43.438 -12.030  10.048  1.00  0.00     0.166 HD
ENDBRANCH  17  20
ENDBRANCH   1  17
TORSDOF 5
ENDMDL
MODEL 3
REMARK VINA RESULT:      -7.1     13.946     15.472
REMARK  5 active torsions:
REMARK  status: ('A' for Active; 'I' for Inactive)
REMARK    1  A    between atoms: C_2  and  C_3 
REMARK    2  A    between atoms: C_3  and  N_4 
REMARK    3  A    between atoms: C_3  and  C_19 
REMARK       I    between atoms: N_4  and  C_5 
REMARK    4  A    between atoms: C_5  and  C_6 
REMARK    5  A    between atoms: C_7  and  C_8 
ROOT
HETATM    1  N   UNL     1      41.035 -14.442   4.364  1.00  0.00    -0.345 N 
HETATM    2  C   UNL     1      42.331 -14.560   4.802  1.00  0.00     0.255 C 
HETATM    3  O   UNL     1      43.194 -13.729   4.538  1.00  0.00    -0.268 OA
HETATM    4  H   UNL     1      40.401 -15.220   4.468  1.00  0.00     0.163 HD
ENDROOT
BRANCH   2   5
HETATM    5  C   UNL     1      42.591 -15.732   5.624  1.00  0.00     0.075 A 
HETATM    6  C   UNL     1      43.393 -16.873   5.306  1.00  0.00     0.076 A 
HETATM    7  N   UNL     1      43.397 -17.761   6.313  1.00  0.00    -0.178 NA
HETATM    8  N   UNL     1      42.618 -17.211   7.250  1.00  0.00    -0.288 N 
HETATM    9  H   UNL     1      42.470 -17.727   8.111  1.00  0.00     0.188 HD
HETATM   10  C   UNL     1      42.119 -15.994   6.897  1.00  0.00     0.128 A 
BRANCH   6  11
HETATM   11  C   UNL     1      44.183 -17.121   4.036  1.00  0.00     0.040 C 
HETATM   12  C   UNL     1      44.806 -18.530   4.004  1.00  0.00     0.011 C 
HETATM   13  C   UNL     1      43.794 -19.621   3.668  1.00  0.00     0.001 C 
HETATM   14  C   UNL     1      43.100 -19.339   2.340  1.00  0.00     0.000 C 
HETATM   15  C   UNL     1      42.438 -17.967   2.335  1.00  0.00     0.001 C 
HETATM   16  C   UNL     1      43.411 -16.851   2.728  1.00  0.00     0.011 C 
ENDBRANCH   6  11
ENDBRANCH   2   5
BRANCH   1  17
HETATM   17  C   UNL     1      40.614 -13.358   3.498  1.00  0.00     0.154 C 
BRANCH  17  18
HETATM   18  C   UNL     1      39.366 -12.661   4.054  1.00  0.00     0.028 C 
HETATM   19  C   UNL     1      39.442 -12.459   5.563  1.00  0.00     0.007 C 
ENDBRANCH  17  18
BRANCH  17  20
HETATM   20  C   UNL     1      40.362 -13.952   2.144  1.00  0.00     0.127 A 
HETATM   21  N   UNL     1      40.365 -13.336   0.977  1.00  0.00    -0.237 NA
HETATM   22  C   UNL     1      40.079 -14.300   0.041  1.00  0.00     0.048 A 
HETATM   23  C   UNL     1      40.026 -13.967  -1.399  1.00  0.00     0.072 C 
HETATM   24  C   UNL     1      39.876 -15.516   0.655  1.00  0.00     0.116 A 
HETATM   25  N   UNL     1      40.044 -15.280   1.991  1.00  0.00    -0.351 N 
HETATM   26  H   UNL     1      39.937 -15.945   2.746  1.00  0.00     0.166 HD
ENDBRANCH  17  20
ENDBRANCH   1  17
TORSDOF 5
ENDMDL
MODEL 4
REMARK VINA RESULT:      -7.1     16.166     17.360
REMARK  5 active torsions:
REMARK  status: ('A' for Active; 'I' for Inactive)
REMARK    1  A    between atoms: C_2  and  C_3 
REMARK    2  A    between atoms: C_3  and  N_4 
REMARK    3  A    between atoms: C_3  and  C_19 
REMARK       I    between atoms: N_4  and  C_5 
REMARK    4  A    between atoms: C_5  and  C_6 
REMARK    5  A    between atoms: C_7  and  C_8 
ROOT
HETATM    1  N   UNL     1      43.334 -13.120   6.197  1.00  0.00    -0.345 N 
HETATM    2  C   UNL     1      42.374 -14.098   6.280  1.00  0.00     0.255 C 
HETATM    3  O   UNL     1      41.185 -13.841   6.446  1.00  0.00    -0.268 OA
HETATM    4  H   UNL     1      44.309 -13.377   6.220  1.00  0.00     0.163 HD
ENDROOT
BRANCH   2   5
HETATM    5  C   UNL     1      42.872 -15.456   6.129  1.00  0.00     0.075 A 
HETATM    6  C   UNL     1      42.614 -16.378   5.065  1.00  0.00     0.076 A 
HETATM    7  N   UNL     1      43.244 -17.545   5.270  1.00  0.00    -0.178 NA
HETATM    8  N   UNL     1      43.884 -17.383   6.433  1.00  0.00    -0.288 N 
HETATM    9  H   UNL     1      44.428 -18.161   6.792  1.00  0.00     0.188 HD
HETATM   10  C   UNL     1      43.707 -16.151   6.984  1.00  0.00     0.128 A 
BRANCH   6  11
HETATM   11  C   UNL     1      41.773 -16.145   3.825  1.00  0.00     0.040 C 
HETATM   12  C   UNL     1      42.048 -14.770   3.186  1.00  0.00     0.011 C 
HETATM   13  C   UNL     1      43.351 -14.733   2.392  1.00  0.00     0.001 C 
HETATM   14  C   UNL     1      43.371 -15.812   1.315  1.00  0.00     0.000 C 
HETATM   15  C   UNL     1      43.137 -17.197   1.904  1.00  0.00     0.001 C 
HETATM   16  C   UNL     1      41.867 -17.256   2.760  1.00  0.00     0.011 C 
ENDBRANCH   6  11
ENDBRANCH   2   5
BRANCH   1  17
HETATM   17  C   UNL     1      43.017 -11.716   6.370  1.00  0.00     0.154 C 
BRANCH  17  18
HETATM   18  C   UNL     1      42.997 -10.985   5.021  1.00  0.00     0.028 C 
HETATM   19  C   UNL     1      43.893 -11.658   3.988  1.00  0.00     0.007 C 
ENDBRANCH  17  18
BRANCH  17  20
HETATM   20  C   UNL     1      44.049 -11.145   7.296  1.00  0.00     0.127 A 
HETATM   21  N   UNL     1      43.870 -10.679   8.518  1.00  0.00    -0.237 NA
HETATM   22  C   UNL     1      45.108 -10.268   8.950  1.00  0.00     0.048 A 
HETATM   23  C   UNL     1      45.291  -9.708  10.306  1.00  0.00     0.072 C 
HETATM   24  C   UNL     1      46.048 -10.468   7.963  1.00  0.00     0.116 A 
HETATM   25  N   UNL     1      45.362 -11.011   6.913  1.00  0.00    -0.351 N 
HETATM   26  H   UNL     1      45.732 -11.257   6.004  1.00  0.00     0.166 HD
ENDBRANCH  17  20
ENDBRANCH   1  17
TORSDOF 5
ENDMDL
MODEL 5
REMARK VINA RESULT:      -7.0     17.615     18.684
REMARK  5 active torsions:
REMARK  status: ('A' for Active; 'I' for Inactive)
REMARK    1  A    between atoms: C_2  and  C_3 
REMARK    2  A    between atoms: C_3  and  N_4 
REMARK    3  A    between atoms: C_3  and  C_19 
REMARK       I    between atoms: N_4  and  C_5 
REMARK    4  A    between atoms: C_5  and  C_6 
REMARK    5  A    between atoms: C_7  and  C_8 
ROOT
HETATM    1  N   UNL     1      43.662 -12.105   7.950  1.00  0.00    -0.345 N 
HETATM    2  C   UNL     1      43.681 -12.799   6.765  1.00  0.00     0.255 C 
HETATM    3  O   UNL     1      44.179 -12.340   5.741  1.00  0.00    -0.268 OA
HETATM    4  H   UNL     1      43.107 -12.449   8.719  1.00  0.00     0.163 HD
ENDROOT
BRANCH   2   5
HETATM    5  C   UNL     1      43.089 -14.126   6.826  1.00  0.00     0.075 A 
HETATM    6  C   UNL     1      42.338 -14.806   5.815  1.00  0.00     0.076 A 
HETATM    7  N   UNL     1      41.947 -16.019   6.233  1.00  0.00    -0.178 NA
HETATM    8  N   UNL     1      42.425 -16.117   7.478  1.00  0.00    -0.288 N 
HETATM    9  H   UNL     1      42.234 -16.968   7.997  1.00  0.00     0.188 HD
HETATM   10  C   UNL     1      43.125 -15.021   7.880  1.00  0.00     0.128 A 
BRANCH   6  11
HETATM   11  C   UNL     1      42.002 -14.307   4.423  1.00  0.00     0.040 C 
HETATM   12  C   UNL     1      43.086 -14.682   3.394  1.00  0.00     0.011 C 
HETATM   13  C   UNL     1      43.014 -16.144   2.961  1.00  0.00     0.001 C 
HETATM   14  C   UNL     1      41.637 -16.487   2.403  1.00  0.00     0.000 C 
HETATM   15  C   UNL     1      40.532 -16.165   3.401  1.00  0.00     0.001 C 
HETATM   16  C   UNL     1      40.609 -14.720   3.905  1.00  0.00     0.011 C 
ENDBRANCH   6  11
ENDBRANCH   2   5
BRANCH   1  17
HETATM   17  C   UNL     1      44.171 -10.751   8.054  1.00  0.00     0.154 C 
BRANCH  17  18
HETATM   18  C   UNL     1      45.693 -10.748   8.245  1.00  0.00     0.028 C 
HETATM   19  C   UNL     1      46.318  -9.411   7.865  1.00  0.00     0.007 C 
ENDBRANCH  17  18
BRANCH  17  20
HETATM   20  C   UNL     1      43.465 -10.107   9.210  1.00  0.00     0.127 A 
HETATM   21  N   UNL     1      43.974  -9.763  10.378  1.00  0.00    -0.237 NA
HETATM   22  C   UNL     1      42.937  -9.217  11.096  1.00  0.00     0.048 A 
HETATM   23  C   UNL     1      43.154  -8.691  12.461  1.00  0.00     0.072 C 
HETATM   24  C   UNL     1      41.775  -9.252  10.357  1.00  0.00     0.116 A 
HETATM   25  N   UNL     1      42.119  -9.833   9.168  1.00  0.00    -0.351 N 
HETATM   26  H   UNL     1      41.505 -10.049   8.394  1.00  0.00     0.166 HD
ENDBRANCH  17  20
ENDBRANCH   1  17
TORSDOF 5
ENDMDL
MODEL 6
REMARK VINA RESULT:      -6.9     14.311     15.601
REMARK  5 active torsions:
REMARK  status: ('A' for Active; 'I' for Inactive)
REMARK    1  A    between atoms: C_2  and  C_3 
REMARK    2  A    between atoms: C_3  and  N_4 
REMARK    3  A    between atoms: C_3  and  C_19 
REMARK       I    between atoms: N_4  and  C_5 
REMARK    4  A    between atoms: C_5  and  C_6 
REMARK    5  A    between atoms: C_7  and  C_8 
ROOT
HETATM    1  N   UNL     1      42.464 -16.348   4.493  1.00  0.00    -0.345 N 
HETATM    2  C   UNL     1      41.130 -16.071   4.661  1.00  0.00     0.255 C 
HETATM    3  O   UNL     1      40.495 -16.459   5.637  1.00  0.00    -0.268 OA
HETATM    4  H   UNL     1      42.907 -16.150   3.608  1.00  0.00     0.163 HD
ENDROOT
BRANCH   2   5
HETATM    5  C   UNL     1      40.538 -15.264   3.606  1.00  0.00     0.075 A 
HETATM    6  C   UNL     1      40.339 -13.847   3.585  1.00  0.00     0.076 A 
HETATM    7  N   UNL     1      39.757 -13.455   2.441  1.00  0.00    -0.178 NA
HETATM    8  N   UNL     1      39.580 -14.585   1.749  1.00  0.00    -0.288 N 
HETATM    9  H   UNL     1      39.137 -14.522   0.838  1.00  0.00     0.188 HD
HETATM   10  C   UNL     1      40.038 -15.694   2.391  1.00  0.00     0.128 A 
BRANCH   6  11
HETATM   11  C   UNL     1      40.724 -12.845   4.656  1.00  0.00     0.040 C 
HETATM   12  C   UNL     1      42.251 -12.687   4.782  1.00  0.00     0.011 C 
HETATM   13  C   UNL     1      42.855 -11.834   3.670  1.00  0.00     0.001 C 
HETATM   14  C   UNL     1      42.202 -10.458   3.614  1.00  0.00     0.000 C 
HETATM   15  C   UNL     1      40.690 -10.561   3.455  1.00  0.00     0.001 C 
HETATM   16  C   UNL     1      40.055 -11.462   4.519  1.00  0.00     0.011 C 
ENDBRANCH   6  11
ENDBRANCH   2   5
BRANCH   1  17
HETATM   17  C   UNL     1      43.200 -17.178   5.428  1.00  0.00     0.154 C 
BRANCH  17  18
HETATM   18  C   UNL     1      44.451 -16.453   5.941  1.00  0.00     0.028 C 
HETATM   19  C   UNL     1      44.108 -15.191   6.723  1.00  0.00     0.007 C 
ENDBRANCH  17  18
BRANCH  17  20
HETATM   20  C   UNL     1      43.548 -18.446   4.707  1.00  0.00     0.127 A 
HETATM   21  N   UNL     1      43.490 -18.680   3.410  1.00  0.00    -0.237 NA
HETATM   22  C   UNL     1      43.904 -19.980   3.243  1.00  0.00     0.048 A 
HETATM   23  C   UNL     1      43.991 -20.580   1.894  1.00  0.00     0.072 C 
HETATM   24  C   UNL     1      44.196 -20.548   4.463  1.00  0.00     0.116 A 
HETATM   25  N   UNL     1      43.952 -19.570   5.386  1.00  0.00    -0.351 N 
HETATM   26  H   UNL     1      44.029 -19.647   6.392  1.00  0.00     0.166 HD
ENDBRANCH  17  20
ENDBRANCH   1  17
TORSDOF 5
ENDMDL
MODEL 7
REMARK VINA RESULT:      -6.8     14.412     15.724
REMARK  5 active torsions:
REMARK  status: ('A' for Active; 'I' for Inactive)
REMARK    1  A    between atoms: C_2  and  C_3 
REMARK    2  A    between atoms: C_3  and  N_4 
REMARK    3  A    between atoms: C_3  and  C_19 
REMARK       I    between atoms: N_4  and  C_5 
REMARK    4  A    between atoms: C_5  and  C_6 
REMARK    5  A    between atoms: C_7  and  C_8 
ROOT
HETATM    1  N   UNL     1      42.063 -16.641   2.109  1.00  0.00    -0.345 N 
HETATM    2  C   UNL     1      42.394 -15.390   1.649  1.00  0.00     0.255 C 
HETATM    3  O   UNL     1      43.555 -14.999   1.584  1.00  0.00    -0.268 OA
HETATM    4  H   UNL     1      41.096 -16.864   2.295  1.00  0.00     0.163 HD
ENDROOT
BRANCH   2   5
HETATM    5  C   UNL     1      41.264 -14.579   1.224  1.00  0.00     0.075 A 
HETATM    6  C   UNL     1      40.810 -13.339   1.777  1.00  0.00     0.076 A 
HETATM    7  N   UNL     1      39.730 -12.883   1.124  1.00  0.00    -0.178 NA
HETATM    8  N   UNL     1      39.492 -13.802   0.183  1.00  0.00    -0.288 N 
HETATM    9  H   UNL     1      38.697 -13.660  -0.433  1.00  0.00     0.188 HD
HETATM   10  C   UNL     1      40.383 -14.831   0.189  1.00  0.00     0.128 A 
BRANCH   6  11
HETATM   11  C   UNL     1      41.418 -12.565   2.930  1.00  0.00     0.040 C 
HETATM   12  C   UNL     1      40.610 -11.297   3.268  1.00  0.00     0.011 C 
HETATM   13  C   UNL     1      39.335 -11.594   4.052  1.00  0.00     0.001 C 
HETATM   14  C   UNL     1      39.642 -12.362   5.332  1.00  0.00     0.000 C 
HETATM   15  C   UNL     1      40.412 -13.645   5.046  1.00  0.00     0.001 C 
HETATM   16  C   UNL     1      41.669 -13.393   4.207  1.00  0.00     0.011 C 
ENDBRANCH   6  11
ENDBRANCH   2   5
BRANCH   1  17
HETATM   17  C   UNL     1      43.062 -17.563   2.613  1.00  0.00     0.154 C 
BRANCH  17  18
HETATM   18  C   UNL     1      42.656 -19.018   2.345  1.00  0.00     0.028 C 
HETATM   19  C   UNL     1      43.863 -19.939   2.214  1.00  0.00     0.007 C 
ENDBRANCH  17  18
BRANCH  17  20
HETATM   20  C   UNL     1      43.208 -17.289   4.080  1.00  0.00     0.127 A 
HETATM   21  N   UNL     1      42.334 -16.718   4.887  1.00  0.00    -0.237 NA
HETATM   22  C   UNL     1      42.927 -16.690   6.127  1.00  0.00     0.048 A 
HETATM   23  C   UNL     1      42.213 -16.135   7.296  1.00  0.00     0.072 C 
HETATM   24  C   UNL     1      44.191 -17.233   6.063  1.00  0.00     0.116 A 
HETATM   25  N   UNL     1      44.364 -17.596   4.757  1.00  0.00    -0.351 N 
HETATM   26  H   UNL     1      45.194 -17.999   4.340  1.00  0.00     0.166 HD
ENDBRANCH  17  20
ENDBRANCH   1  17
TORSDOF 5
ENDMDL
MODEL 8
REMARK VINA RESULT:      -6.8     16.935     18.274
REMARK  5 active torsions:
REMARK  status: ('A' for Active; 'I' for Inactive)
REMARK    1  A    between atoms: C_2  and  C_3 
REMARK    2  A    between atoms: C_3  and  N_4 
REMARK    3  A    between atoms: C_3  and  C_19 
REMARK       I    between atoms: N_4  and  C_5 
REMARK    4  A    between atoms: C_5  and  C_6 
REMARK    5  A    between atoms: C_7  and  C_8 
ROOT
HETATM    1  N   UNL     1      41.162 -11.545   5.107  1.00  0.00    -0.345 N 
HETATM    2  C   UNL     1      40.321 -12.627   5.014  1.00  0.00     0.255 C 
HETATM    3  O   UNL     1      39.745 -13.099   5.989  1.00  0.00    -0.268 OA
HETATM    4  H   UNL     1      41.735 -11.290   4.316  1.00  0.00     0.163 HD
ENDROOT
BRANCH   2   5
HETATM    5  C   UNL     1      40.149 -13.151   3.668  1.00  0.00     0.075 A 
HETATM    6  C   UNL     1      41.104 -13.851   2.864  1.00  0.00     0.076 A 
HETATM    7  N   UNL     1      40.587 -14.178   1.669  1.00  0.00    -0.178 NA
HETATM    8  N   UNL     1      39.339 -13.699   1.700  1.00  0.00    -0.288 N 
HETATM    9  H   UNL     1      38.758 -13.828   0.878  1.00  0.00     0.188 HD
HETATM   10  C   UNL     1      39.020 -13.086   2.873  1.00  0.00     0.128 A 
BRANCH   6  11
HETATM   11  C   UNL     1      42.522 -14.234   3.239  1.00  0.00     0.040 C 
HETATM   12  C   UNL     1      42.562 -15.340   4.311  1.00  0.00     0.011 C 
HETATM   13  C   UNL     1      42.265 -16.726   3.747  1.00  0.00     0.001 C 
HETATM   14  C   UNL     1      43.222 -17.077   2.613  1.00  0.00     0.000 C 
HETATM   15  C   UNL     1      43.193 -16.027   1.510  1.00  0.00     0.001 C 
HETATM   16  C   UNL     1      43.428 -14.613   2.049  1.00  0.00     0.011 C 
ENDBRANCH   6  11
ENDBRANCH   2   5
BRANCH   1  17
HETATM   17  C   UNL     1      41.479 -10.927   6.380  1.00  0.00     0.154 C 
BRANCH  17  18
HETATM   18  C   UNL     1      40.956  -9.487   6.439  1.00  0.00     0.028 C 
HETATM   19  C   UNL     1      41.263  -8.709   5.164  1.00  0.00     0.007 C 
ENDBRANCH  17  18
BRANCH  17  20
HETATM   20  C   UNL     1      42.970 -10.983   6.533  1.00  0.00     0.127 A 
HETATM   21  N   UNL     1      43.712 -10.390   7.449  1.00  0.00    -0.237 NA
HETATM   22  C   UNL     1      45.010 -10.740   7.168  1.00  0.00     0.048 A 
HETATM   23  C   UNL     1      46.124 -10.270   8.020  1.00  0.00     0.072 C 
HETATM   24  C   UNL     1      45.057 -11.541   6.049  1.00  0.00     0.116 A 
HETATM   25  N   UNL     1      43.758 -11.676   5.645  1.00  0.00    -0.351 N 
HETATM   26  H   UNL     1      43.420 -12.174   4.832  1.00  0.00     0.166 HD
ENDBRANCH  17  20
ENDBRANCH   1  17
TORSDOF 5
ENDMDL
MODEL 9
REMARK VINA RESULT:      -6.4     15.396     16.721
REMARK  5 active torsions:
REMARK  status: ('A' for Active; 'I' for Inactive)
REMARK    1  A    between atoms: C_2  and  C_3 
REMARK    2  A    between atoms: C_3  and  N_4 
REMARK    3  A    between atoms: C_3  and  C_19 
REMARK       I    between atoms: N_4  and  C_5 
REMARK    4  A    between atoms: C_5  and  C_6 
REMARK    5  A    between atoms: C_7  and  C_8 
ROOT
HETATM    1  N   UNL     1      41.587 -14.290   0.926  1.00  0.00    -0.345 N 
HETATM    2  C   UNL     1      40.335 -13.850   0.572  1.00  0.00     0.255 C 
HETATM    3  O   UNL     1      39.570 -13.324   1.375  1.00  0.00    -0.268 OA
HETATM    4  H   UNL     1      42.117 -14.856   0.281  1.00  0.00     0.163 HD
ENDROOT
BRANCH   2   5
HETATM    5  C   UNL     1      40.000 -14.033  -0.831  1.00  0.00     0.075 A 
HETATM    6  C   UNL     1      40.352 -13.199  -1.940  1.00  0.00     0.076 A 
HETATM    7  N   UNL     1      39.860 -13.685  -3.090  1.00  0.00    -0.178 NA
HETATM    8  N   UNL     1      39.206 -14.796  -2.733  1.00  0.00    -0.288 N 
HETATM    9  H   UNL     1      38.738 -15.328  -3.460  1.00  0.00     0.188 HD
HETATM   10  C   UNL     1      39.266 -15.058  -1.399  1.00  0.00     0.128 A 
BRANCH   6  11
HETATM   11  C   UNL     1      41.184 -11.932  -1.913  1.00  0.00     0.040 C 
HETATM   12  C   UNL     1      41.021 -11.103  -3.202  1.00  0.00     0.011 C 
HETATM   13  C   UNL     1      39.711 -10.322  -3.245  1.00  0.00     0.001 C 
HETATM   14  C   UNL     1      39.570  -9.413  -2.030  1.00  0.00     0.000 C 
HETATM   15  C   UNL     1      39.690 -10.195  -0.728  1.00  0.00     0.001 C 
HETATM   16  C   UNL     1      40.967 -11.039  -0.674  1.00  0.00     0.011 C 
ENDBRANCH   6  11
ENDBRANCH   2   5
BRANCH   1  17
HETATM   17  C   UNL     1      42.064 -14.225   2.294  1.00  0.00     0.154 C 
BRANCH  17  18
HETATM   18  C   UNL     1      43.156 -13.158   2.446  1.00  0.00     0.028 C 
HETATM   19  C   UNL     1      42.580 -11.785   2.770  1.00  0.00     0.007 C 
ENDBRANCH  17  18
BRANCH  17  20
HETATM   20  C   UNL     1      42.571 -15.591   2.646  1.00  0.00     0.127 A 
HETATM   21  N   UNL     1      42.430 -16.708   1.957  1.00  0.00    -0.237 NA
HETATM   22  C   UNL     1      43.061 -17.685   2.689  1.00  0.00     0.048 A 
HETATM   23  C   UNL     1      43.125 -19.078   2.198  1.00  0.00     0.072 C 
HETATM   24  C   UNL     1      43.573 -17.154   3.853  1.00  0.00     0.116 A 
HETATM   25  N   UNL     1      43.243 -15.828   3.821  1.00  0.00    -0.351 N 
HETATM   26  H   UNL     1      43.432 -15.135   4.534  1.00  0.00     0.166 HD
ENDBRANCH  17  20
ENDBRANCH   1  17
TORSDOF 5
ENDMDL
MODEL 10
REMARK VINA RESULT:      -6.4      2.319      4.999
REMARK  5 active torsions:
REMARK  status: ('A' for Active; 'I' for Inactive)
REMARK    1  A    between atoms: C_2  and  C_3 
REMARK    2  A    between atoms: C_3  and  N_4 
REMARK    3  A    between atoms: C_3  and  C_19 
REMARK       I    between atoms: N_4  and  C_5 
REMARK    4  A    between atoms: C_5  and  C_6 
REMARK    5  A    between atoms: C_7  and  C_8 
ROOT
HETATM    1  N   UNL     1      48.151 -29.741   0.641  1.00  0.00    -0.345 N 
HETATM    2  C   UNL     1      47.358 -28.636   0.832  1.00  0.00     0.255 C 
HETATM    3  O   UNL     1      47.808 -27.561   1.217  1.00  0.00    -0.268 OA
HETATM    4  H   UNL     1      47.721 -30.640   0.479  1.00  0.00     0.163 HD
ENDROOT
BRANCH   2   5
HETATM    5  C   UNL     1      45.951 -28.834   0.520  1.00  0.00     0.075 A 
HETATM    6  C   UNL     1      45.294 -28.663  -0.740  1.00  0.00     0.076 A 
HETATM    7  N   UNL     1      43.983 -28.935  -0.645  1.00  0.00    -0.178 NA
HETATM    8  N   UNL     1      43.799 -29.264   0.638  1.00  0.00    -0.288 N 
HETATM    9  H   UNL     1      42.860 -29.501   0.940  1.00  0.00     0.188 HD
HETATM   10  C   UNL     1      44.942 -29.233   1.377  1.00  0.00     0.128 A 
BRANCH   6  11
HETATM   11  C   UNL     1      45.919 -28.256  -2.059  1.00  0.00     0.040 C 
HETATM   12  C   UNL     1      46.961 -29.280  -2.550  1.00  0.00     0.011 C 
HETATM   13  C   UNL     1      46.328 -30.528  -3.158  1.00  0.00     0.001 C 
HETATM   14  C   UNL     1      45.386 -30.168  -4.302  1.00  0.00     0.000 C 
HETATM   15  C   UNL     1      44.315 -29.180  -3.856  1.00  0.00     0.001 C 
HETATM   16  C   UNL     1      44.912 -27.940  -3.184  1.00  0.00     0.011 C 
ENDBRANCH   6  11
ENDBRANCH   2   5
BRANCH   1  17
HETATM   17  C   UNL     1      49.568 -29.731   0.946  1.00  0.00     0.154 C 
BRANCH  17  18
HETATM   18  C   UNL     1      50.364 -30.512  -0.107  1.00  0.00     0.028 C 
HETATM   19  C   UNL     1      49.494 -31.505  -0.869  1.00  0.00     0.007 C 
ENDBRANCH  17  18
BRANCH  17  20
HETATM   20  C   UNL     1      49.725 -30.325   2.314  1.00  0.00     0.127 A 
HETATM   21  N   UNL     1      50.768 -30.240   3.118  1.00  0.00    -0.237 NA
HETATM   22  C   UNL     1      50.433 -30.947   4.247  1.00  0.00     0.048 A 
HETATM   23  C   UNL     1      51.370 -31.043   5.387  1.00  0.00     0.072 C 
HETATM   24  C   UNL     1      49.173 -31.488   4.114  1.00  0.00     0.116 A 
HETATM   25  N   UNL     1      48.740 -31.100   2.878  1.00  0.00    -0.351 N 
HETATM   26  H   UNL     1      47.865 -31.345   2.433  1.00  0.00     0.166 HD
ENDBRANCH  17  20
ENDBRANCH   1  17
TORSDOF 5
ENDMDL
