MODEL 1
REMARK VINA RESULT:      -9.4      0.000      0.000
REMARK  6 active torsions:
REMARK  status: ('A' for Active; 'I' for Inactive)
REMARK    1  A    between atoms: O_2  and  C_3 
REMARK    2  A    between atoms: C_5  and  C_6 
REMARK    3  A    between atoms: N_8  and  C_9 
REMARK    4  A    between atoms: C_16  and  C_17 
REMARK       I    between atoms: C_17  and  N_18 
REMARK    5  A    between atoms: N_18  and  N_19 
REMARK       I    between atoms: N_19  and  C_20 
REMARK    6  A    between atoms: C_20  and  C_21 
ROOT
HETATM    1  C   UNL     1      42.427 -14.654   3.357  1.00  0.00     0.105 A 
HETATM    2  N   UNL     1      42.694 -15.836   2.779  1.00  0.00    -0.166 NA
HETATM    3  N   UNL     1      42.977 -16.691   3.784  1.00  0.00    -0.244 N 
HETATM    4  C   UNL     1      42.907 -16.061   5.004  1.00  0.00     0.138 A 
HETATM    5  C   UNL     1      42.568 -14.737   4.775  1.00  0.00     0.082 A 
ENDROOT
BRANCH   5   6
HETATM    6  C   UNL     1      42.442 -13.697   5.784  1.00  0.00     0.274 C 
HETATM    7  N   UNL     1      43.626 -13.356   6.412  1.00  0.00    -0.263 N 
HETATM    8  H   UNL     1      44.473 -13.913   6.323  1.00  0.00     0.190 HD
HETATM    9  O   UNL     1      41.379 -13.152   6.075  1.00  0.00    -0.266 OA
BRANCH   7  10
HETATM   10  N   UNL     1      43.583 -12.475   7.500  1.00  0.00    -0.262 N 
HETATM   11  C   UNL     1      44.578 -11.526   7.615  1.00  0.00     0.286 C 
HETATM   12  O   UNL     1      45.443 -11.396   6.749  1.00  0.00    -0.264 OA
HETATM   13  H   UNL     1      42.919 -12.687   8.240  1.00  0.00     0.190 HD
BRANCH  11  14
HETATM   14  C   UNL     1      44.537 -10.712   8.807  1.00  0.00     0.102 A 
HETATM   15  N   UNL     1      43.484 -10.793   9.696  1.00  0.00    -0.361 N 
HETATM   16  H   UNL     1      42.692 -11.413   9.571  1.00  0.00     0.165 HD
HETATM   17  C   UNL     1      43.675  -9.932  10.741  1.00  0.00     0.088 A 
HETATM   18  C   UNL     1      44.867  -9.278  10.535  1.00  0.00     0.019 A 
HETATM   19  C   UNL     1      45.411  -9.765   9.321  1.00  0.00     0.036 A 
ENDBRANCH  11  14
ENDBRANCH   7  10
ENDBRANCH   5   6
BRANCH   1  20
HETATM   20  C   UNL     1      42.041 -13.519   2.512  1.00  0.00    -0.002 A 
HETATM   21  C   UNL     1      41.307 -13.698   1.332  1.00  0.00     0.050 A 
HETATM   22  C   UNL     1      40.958 -12.608   0.525  1.00  0.00     0.069 A 
HETATM   23  C   UNL     1      41.369 -11.325   0.888  1.00  0.00     0.037 A 
HETATM   24  C   UNL     1      42.116 -11.133   2.051  1.00  0.00     0.004 A 
HETATM   25  C   UNL     1      42.450 -12.222   2.856  1.00  0.00     0.014 A 
BRANCH  22  26
HETATM   26  O   UNL     1      40.231 -12.931  -0.589  1.00  0.00    -0.356 OA
HETATM   27  C   UNL     1      39.798 -14.281  -0.699  1.00  0.00     0.210 C 
ENDBRANCH  22  26
ENDBRANCH   1  20
BRANCH   3  28
HETATM   28  C   UNL     1      43.303 -18.052   3.518  1.00  0.00     0.058 A 
HETATM   29  C   UNL     1      43.909 -18.822   4.523  1.00  0.00     0.031 A 
HETATM   30  C   UNL     1      44.236 -20.160   4.285  1.00  0.00     0.002 A 
HETATM   31  C   UNL     1      43.965 -20.735   3.045  1.00  0.00     0.000 A 
HETATM   32  C   UNL     1      43.366 -19.976   2.041  1.00  0.00     0.002 A 
HETATM   33  C   UNL     1      43.033 -18.636   2.273  1.00  0.00     0.031 A 
ENDBRANCH   3  28
TORSDOF 6
ENDMDL
MODEL 2
REMARK VINA RESULT:      -9.2      0.946      1.510
REMARK  6 active torsions:
REMARK  status: ('A' for Active; 'I' for Inactive)
REMARK    1  A    between atoms: O_2  and  C_3 
REMARK    2  A    between atoms: C_5  and  C_6 
REMARK    3  A    between atoms: N_8  and  C_9 
REMARK    4  A    between atoms: C_16  and  C_17 
REMARK       I    between atoms: C_17  and  N_18 
REMARK    5  A    between atoms: N_18  and  N_19 
REMARK       I    between atoms: N_19  and  C_20 
REMARK    6  A    between atoms: C_20  and  C_21 
ROOT
HETATM    1  C   UNL     1      41.980 -14.822   3.344  1.00  0.00     0.105 A 
HETATM    2  N   UNL     1      42.241 -16.013   2.782  1.00  0.00    -0.166 NA
HETATM    3  N   UNL     1      42.794 -16.772   3.750  1.00  0.00    -0.244 N 
HETATM    4  C   UNL     1      42.904 -16.072   4.927  1.00  0.00     0.138 A 
HETATM    5  C   UNL     1      42.402 -14.799   4.707  1.00  0.00     0.082 A 
ENDROOT
BRANCH   5   6
HETATM    6  C   UNL     1      42.377 -13.708   5.670  1.00  0.00     0.274 C 
HETATM    7  N   UNL     1      43.548 -13.544   6.386  1.00  0.00    -0.263 N 
HETATM    8  H   UNL     1      44.292 -14.239   6.388  1.00  0.00     0.190 HD
HETATM    9  O   UNL     1      41.404 -12.980   5.852  1.00  0.00    -0.266 OA
BRANCH   7  10
HETATM   10  N   UNL     1      43.571 -12.620   7.440  1.00  0.00    -0.262 N 
HETATM   11  C   UNL     1      44.567 -11.667   7.454  1.00  0.00     0.286 C 
HETATM   12  O   UNL     1      45.376 -11.570   6.531  1.00  0.00    -0.264 OA
HETATM   13  H   UNL     1      42.956 -12.804   8.228  1.00  0.00     0.190 HD
BRANCH  11  14
HETATM   14  C   UNL     1      44.600 -10.806   8.613  1.00  0.00     0.102 A 
HETATM   15  N   UNL     1      43.558 -10.785   9.520  1.00  0.00    -0.361 N 
HETATM   16  H   UNL     1      42.727 -11.356   9.432  1.00  0.00     0.165 HD
HETATM   17  C   UNL     1      43.822  -9.898  10.527  1.00  0.00     0.088 A 
HETATM   18  C   UNL     1      45.050  -9.331  10.278  1.00  0.00     0.019 A 
HETATM   19  C   UNL     1      45.541  -9.899   9.076  1.00  0.00     0.036 A 
ENDBRANCH  11  14
ENDBRANCH   7  10
ENDBRANCH   5   6
BRANCH   1  20
HETATM   20  C   UNL     1      41.331 -13.781   2.539  1.00  0.00    -0.002 A 
HETATM   21  C   UNL     1      41.985 -12.583   2.223  1.00  0.00     0.050 A 
HETATM   22  C   UNL     1      41.348 -11.590   1.467  1.00  0.00     0.069 A 
HETATM   23  C   UNL     1      40.034 -11.786   1.042  1.00  0.00     0.037 A 
HETATM   24  C   UNL     1      39.364 -12.967   1.366  1.00  0.00     0.004 A 
HETATM   25  C   UNL     1      40.008 -13.957   2.109  1.00  0.00     0.014 A 
BRANCH  22  26
HETATM   26  O   UNL     1      42.112 -10.481   1.225  1.00  0.00    -0.356 OA
HETATM   27  C   UNL     1      41.647  -9.593   0.215  1.00  0.00     0.210 C 
ENDBRANCH  22  26
ENDBRANCH   1  20
BRANCH   3  28
HETATM   28  C   UNL     1      43.190 -18.116   3.491  1.00  0.00     0.058 A 
HETATM   29  C   UNL     1      43.798 -18.863   4.512  1.00  0.00     0.031 A 
HETATM   30  C   UNL     1      44.192 -20.183   4.280  1.00  0.00     0.002 A 
HETATM   31  C   UNL     1      43.988 -20.764   3.031  1.00  0.00     0.000 A 
HETATM   32  C   UNL     1      43.388 -20.028   2.010  1.00  0.00     0.002 A 
HETATM   33  C   UNL     1      42.988 -18.706   2.236  1.00  0.00     0.031 A 
ENDBRANCH   3  28
TORSDOF 6
ENDMDL
MODEL 3
REMARK VINA RESULT:      -9.2      1.986      5.682
REMARK  6 active torsions:
REMARK  status: ('A' for Active; 'I' for Inactive)
REMARK    1  A    between atoms: O_2  and  C_3 
REMARK    2  A    between atoms: C_5  and  C_6 
REMARK    3  A    between atoms: N_8  and  C_9 
REMARK    4  A    between atoms: C_16  and  C_17 
REMARK       I    between atoms: C_17  and  N_18 
REMARK    5  A    between atoms: N_18  and  N_19 
REMARK       I    between atoms: N_19  and  C_20 
REMARK    6  A    between atoms: C_20  and  C_21 
ROOT
HETATM    1  C   UNL     1      41.836 -14.636   2.140  1.00  0.00     0.105 A 
HETATM    2  N   UNL     1      40.943 -14.866   1.164  1.00  0.00    -0.166 NA
HETATM    3  N   UNL     1      40.609 -13.657   0.667  1.00  0.00    -0.244 N 
HETATM    4  C   UNL     1      41.272 -12.650   1.327  1.00  0.00     0.138 A 
HETATM    5  C   UNL     1      42.067 -13.236   2.298  1.00  0.00     0.082 A 
ENDROOT
BRANCH   5   6
HETATM    6  C   UNL     1      42.896 -12.535   3.267  1.00  0.00     0.274 C 
HETATM    7  N   UNL     1      42.375 -12.490   4.547  1.00  0.00    -0.263 N 
HETATM    8  H   UNL     1      41.413 -12.748   4.757  1.00  0.00     0.190 HD
HETATM    9  O   UNL     1      43.975 -12.014   2.992  1.00  0.00    -0.266 OA
BRANCH   7  10
HETATM   10  N   UNL     1      43.024 -11.710   5.513  1.00  0.00    -0.262 N 
HETATM   11  C   UNL     1      43.778 -12.351   6.474  1.00  0.00     0.286 C 
HETATM   12  O   UNL     1      43.948 -13.570   6.450  1.00  0.00    -0.264 OA
HETATM   13  H   UNL     1      42.770 -10.727   5.559  1.00  0.00     0.190 HD
BRANCH  11  14
HETATM   14  C   UNL     1      44.342 -11.505   7.500  1.00  0.00     0.102 A 
HETATM   15  N   UNL     1      43.608 -11.139   8.611  1.00  0.00    -0.361 N 
HETATM   16  H   UNL     1      42.653 -11.433   8.773  1.00  0.00     0.165 HD
HETATM   17  C   UNL     1      44.356 -10.344   9.435  1.00  0.00     0.088 A 
HETATM   18  C   UNL     1      45.594 -10.187   8.858  1.00  0.00     0.019 A 
HETATM   19  C   UNL     1      45.589 -10.914   7.642  1.00  0.00     0.036 A 
ENDBRANCH  11  14
ENDBRANCH   7  10
ENDBRANCH   5   6
BRANCH   1  20
HETATM   20  C   UNL     1      42.422 -15.776   2.852  1.00  0.00    -0.002 A 
HETATM   21  C   UNL     1      42.270 -15.933   4.236  1.00  0.00     0.050 A 
HETATM   22  C   UNL     1      42.847 -17.018   4.908  1.00  0.00     0.069 A 
HETATM   23  C   UNL     1      43.607 -17.945   4.193  1.00  0.00     0.037 A 
HETATM   24  C   UNL     1      43.783 -17.790   2.817  1.00  0.00     0.004 A 
HETATM   25  C   UNL     1      43.195 -16.714   2.152  1.00  0.00     0.014 A 
BRANCH  22  26
HETATM   26  O   UNL     1      42.605 -17.050   6.255  1.00  0.00    -0.356 OA
HETATM   27  C   UNL     1      41.643 -16.128   6.753  1.00  0.00     0.210 C 
ENDBRANCH  22  26
ENDBRANCH   1  20
BRANCH   3  28
HETATM   28  C   UNL     1      39.675 -13.537  -0.402  1.00  0.00     0.058 A 
HETATM   29  C   UNL     1      39.585 -14.563  -1.355  1.00  0.00     0.031 A 
HETATM   30  C   UNL     1      38.674 -14.467  -2.410  1.00  0.00     0.002 A 
HETATM   31  C   UNL     1      37.853 -13.348  -2.524  1.00  0.00     0.000 A 
HETATM   32  C   UNL     1      37.938 -12.323  -1.583  1.00  0.00     0.002 A 
HETATM   33  C   UNL     1      38.846 -12.413  -0.522  1.00  0.00     0.031 A 
ENDBRANCH   3  28
TORSDOF 6
ENDMDL
MODEL 4
REMARK VINA RESULT:      -9.1      2.197      5.535
REMARK  6 active torsions:
REMARK  status: ('A' for Active; 'I' for Inactive)
REMARK    1  A    between atoms: O_2  and  C_3 
REMARK    2  A    between atoms: C_5  and  C_6 
REMARK    3  A    between atoms: N_8  and  C_9 
REMARK    4  A    between atoms: C_16  and  C_17 
REMARK       I    between atoms: C_17  and  N_18 
REMARK    5  A    between atoms: N_18  and  N_19 
REMARK       I    between atoms: N_19  and  C_20 
REMARK    6  A    between atoms: C_20  and  C_21 
ROOT
HETATM    1  C   UNL     1      41.937 -14.699   2.251  1.00  0.00     0.105 A 
HETATM    2  N   UNL     1      41.053 -14.958   1.275  1.00  0.00    -0.166 NA
HETATM    3  N   UNL     1      40.715 -13.763   0.747  1.00  0.00    -0.244 N 
HETATM    4  C   UNL     1      41.366 -12.737   1.388  1.00  0.00     0.138 A 
HETATM    5  C   UNL     1      42.157 -13.295   2.379  1.00  0.00     0.082 A 
ENDROOT
BRANCH   5   6
HETATM    6  C   UNL     1      42.974 -12.565   3.337  1.00  0.00     0.274 C 
HETATM    7  N   UNL     1      42.457 -12.520   4.619  1.00  0.00    -0.263 N 
HETATM    8  H   UNL     1      41.503 -12.798   4.835  1.00  0.00     0.190 HD
HETATM    9  O   UNL     1      44.039 -12.021   3.052  1.00  0.00    -0.266 OA
BRANCH   7  10
HETATM   10  N   UNL     1      43.093 -11.716   5.574  1.00  0.00    -0.262 N 
HETATM   11  C   UNL     1      43.838 -12.332   6.558  1.00  0.00     0.286 C 
HETATM   12  O   UNL     1      44.012 -13.551   6.564  1.00  0.00    -0.264 OA
HETATM   13  H   UNL     1      42.835 -10.733   5.595  1.00  0.00     0.190 HD
BRANCH  11  14
HETATM   14  C   UNL     1      44.387 -11.461   7.571  1.00  0.00     0.102 A 
HETATM   15  N   UNL     1      43.647 -11.091   8.677  1.00  0.00    -0.361 N 
HETATM   16  H   UNL     1      42.696 -11.398   8.843  1.00  0.00     0.165 HD
HETATM   17  C   UNL     1      44.381 -10.270   9.488  1.00  0.00     0.088 A 
HETATM   18  C   UNL     1      45.616 -10.100   8.909  1.00  0.00     0.019 A 
HETATM   19  C   UNL     1      45.623 -10.846   7.704  1.00  0.00     0.036 A 
ENDBRANCH  11  14
ENDBRANCH   7  10
ENDBRANCH   5   6
BRANCH   1  20
HETATM   20  C   UNL     1      42.526 -15.818   2.995  1.00  0.00    -0.002 A 
HETATM   21  C   UNL     1      43.078 -16.926   2.339  1.00  0.00     0.050 A 
HETATM   22  C   UNL     1      43.622 -17.996   3.061  1.00  0.00     0.069 A 
HETATM   23  C   UNL     1      43.593 -17.971   4.455  1.00  0.00     0.037 A 
HETATM   24  C   UNL     1      43.030 -16.882   5.122  1.00  0.00     0.004 A 
HETATM   25  C   UNL     1      42.499 -15.814   4.397  1.00  0.00     0.014 A 
BRANCH  22  26
HETATM   26  O   UNL     1      44.137 -19.002   2.288  1.00  0.00    -0.356 OA
HETATM   27  C   UNL     1      43.508 -20.274   2.393  1.00  0.00     0.210 C 
ENDBRANCH  22  26
ENDBRANCH   1  20
BRANCH   3  28
HETATM   28  C   UNL     1      39.788 -13.675  -0.331  1.00  0.00     0.058 A 
HETATM   29  C   UNL     1      38.996 -12.524  -0.464  1.00  0.00     0.031 A 
HETATM   30  C   UNL     1      38.081 -12.415  -1.515  1.00  0.00     0.002 A 
HETATM   31  C   UNL     1      37.947 -13.453  -2.434  1.00  0.00     0.000 A 
HETATM   32  C   UNL     1      38.728 -14.601  -2.308  1.00  0.00     0.002 A 
HETATM   33  C   UNL     1      39.648 -14.716  -1.260  1.00  0.00     0.031 A 
ENDBRANCH   3  28
TORSDOF 6
ENDMDL
MODEL 5
REMARK VINA RESULT:      -9.1      2.566      8.666
REMARK  6 active torsions:
REMARK  status: ('A' for Active; 'I' for Inactive)
REMARK    1  A    between atoms: O_2  and  C_3 
REMARK    2  A    between atoms: C_5  and  C_6 
REMARK    3  A    between atoms: N_8  and  C_9 
REMARK    4  A    between atoms: C_16  and  C_17 
REMARK       I    between atoms: C_17  and  N_18 
REMARK    5  A    between atoms: N_18  and  N_19 
REMARK       I    between atoms: N_19  and  C_20 
REMARK    6  A    between atoms: C_20  and  C_21 
ROOT
HETATM    1  C   UNL     1      42.826 -15.147   4.507  1.00  0.00     0.105 A 
HETATM    2  N   UNL     1      43.376 -14.384   5.465  1.00  0.00    -0.166 NA
HETATM    3  N   UNL     1      42.813 -13.164   5.343  1.00  0.00    -0.244 N 
HETATM    4  C   UNL     1      41.914 -13.134   4.304  1.00  0.00     0.138 A 
HETATM    5  C   UNL     1      41.900 -14.393   3.725  1.00  0.00     0.082 A 
ENDROOT
BRANCH   5   6
HETATM    6  C   UNL     1      41.132 -14.790   2.555  1.00  0.00     0.274 C 
HETATM    7  N   UNL     1      41.615 -14.304   1.354  1.00  0.00    -0.263 N 
HETATM    8  H   UNL     1      42.324 -13.575   1.304  1.00  0.00     0.190 HD
HETATM    9  O   UNL     1      40.129 -15.499   2.605  1.00  0.00    -0.266 OA
BRANCH   7  10
HETATM   10  N   UNL     1      40.860 -14.506   0.192  1.00  0.00    -0.262 N 
HETATM   11  C   UNL     1      40.132 -13.447  -0.310  1.00  0.00     0.286 C 
HETATM   12  O   UNL     1      40.196 -12.327   0.197  1.00  0.00    -0.264 OA
HETATM   13  H   UNL     1      40.752 -15.465  -0.127  1.00  0.00     0.190 HD
BRANCH  11  14
HETATM   14  C   UNL     1      39.296 -13.741  -1.451  1.00  0.00     0.102 A 
HETATM   15  N   UNL     1      37.979 -13.330  -1.500  1.00  0.00    -0.361 N 
HETATM   16  H   UNL     1      37.527 -12.810  -0.757  1.00  0.00     0.165 HD
HETATM   17  C   UNL     1      37.401 -13.722  -2.675  1.00  0.00     0.088 A 
HETATM   18  C   UNL     1      38.350 -14.398  -3.406  1.00  0.00     0.019 A 
HETATM   19  C   UNL     1      39.541 -14.412  -2.639  1.00  0.00     0.036 A 
ENDBRANCH  11  14
ENDBRANCH   7  10
ENDBRANCH   5   6
BRANCH   1  20
HETATM   20  C   UNL     1      43.214 -16.558   4.409  1.00  0.00    -0.002 A 
HETATM   21  C   UNL     1      43.186 -17.245   3.189  1.00  0.00     0.050 A 
HETATM   22  C   UNL     1      43.545 -18.596   3.111  1.00  0.00     0.069 A 
HETATM   23  C   UNL     1      43.912 -19.278   4.271  1.00  0.00     0.037 A 
HETATM   24  C   UNL     1      43.926 -18.612   5.498  1.00  0.00     0.004 A 
HETATM   25  C   UNL     1      43.580 -17.262   5.566  1.00  0.00     0.014 A 
BRANCH  22  26
HETATM   26  O   UNL     1      43.482 -19.132   1.853  1.00  0.00    -0.356 OA
HETATM   27  C   UNL     1      43.642 -20.541   1.749  1.00  0.00     0.210 C 
ENDBRANCH  22  26
ENDBRANCH   1  20
BRANCH   3  28
HETATM   28  C   UNL     1      43.171 -12.101   6.221  1.00  0.00     0.058 A 
HETATM   29  C   UNL     1      42.321 -10.991   6.341  1.00  0.00     0.031 A 
HETATM   30  C   UNL     1      42.651  -9.938   7.197  1.00  0.00     0.002 A 
HETATM   31  C   UNL     1      43.833  -9.983   7.935  1.00  0.00     0.000 A 
HETATM   32  C   UNL     1      44.685 -11.080   7.820  1.00  0.00     0.002 A 
HETATM   33  C   UNL     1      44.358 -12.139   6.966  1.00  0.00     0.031 A 
ENDBRANCH   3  28
TORSDOF 6
ENDMDL
MODEL 6
REMARK VINA RESULT:      -8.9      2.543      8.700
REMARK  6 active torsions:
REMARK  status: ('A' for Active; 'I' for Inactive)
REMARK    1  A    between atoms: O_2  and  C_3 
REMARK    2  A    between atoms: C_5  and  C_6 
REMARK    3  A    between atoms: N_8  and  C_9 
REMARK    4  A    between atoms: C_16  and  C_17 
REMARK       I    between atoms: C_17  and  N_18 
REMARK    5  A    between atoms: N_18  and  N_19 
REMARK       I    between atoms: N_19  and  C_20 
REMARK    6  A    between atoms: C_20  and  C_21 
ROOT
HETATM    1  C   UNL     1      42.860 -13.285   3.859  1.00  0.00     0.105 A 
HETATM    2  N   UNL     1      43.474 -12.935   5.001  1.00  0.00    -0.166 NA
HETATM    3  N   UNL     1      43.102 -11.662   5.253  1.00  0.00    -0.244 N 
HETATM    4  C   UNL     1      42.266 -11.188   4.271  1.00  0.00     0.138 A 
HETATM    5  C   UNL     1      42.092 -12.199   3.340  1.00  0.00     0.082 A 
ENDROOT
BRANCH   5   6
HETATM    6  C   UNL     1      41.327 -12.108   2.106  1.00  0.00     0.274 C 
HETATM    7  N   UNL     1      40.204 -12.913   2.063  1.00  0.00    -0.263 N 
HETATM    8  H   UNL     1      40.031 -13.649   2.743  1.00  0.00     0.190 HD
HETATM    9  O   UNL     1      41.636 -11.382   1.164  1.00  0.00    -0.266 OA
BRANCH   7  10
HETATM   10  N   UNL     1      39.488 -13.007   0.862  1.00  0.00    -0.262 N 
HETATM   11  C   UNL     1      39.749 -14.073   0.025  1.00  0.00     0.286 C 
HETATM   12  O   UNL     1      40.531 -14.967   0.349  1.00  0.00    -0.264 OA
HETATM   13  H   UNL     1      38.937 -12.198   0.588  1.00  0.00     0.190 HD
BRANCH  11  14
HETATM   14  C   UNL     1      39.054 -14.064  -1.241  1.00  0.00     0.102 A 
HETATM   15  N   UNL     1      37.914 -13.309  -1.429  1.00  0.00    -0.361 N 
HETATM   16  H   UNL     1      37.502 -12.728  -0.709  1.00  0.00     0.165 HD
HETATM   17  C   UNL     1      37.445 -13.463  -2.704  1.00  0.00     0.088 A 
HETATM   18  C   UNL     1      38.287 -14.330  -3.360  1.00  0.00     0.019 A 
HETATM   19  C   UNL     1      39.299 -14.710  -2.444  1.00  0.00     0.036 A 
ENDBRANCH  11  14
ENDBRANCH   7  10
ENDBRANCH   5   6
BRANCH   1  20
HETATM   20  C   UNL     1      43.041 -14.645   3.341  1.00  0.00    -0.002 A 
HETATM   21  C   UNL     1      43.082 -15.756   4.193  1.00  0.00     0.050 A 
HETATM   22  C   UNL     1      43.271 -17.049   3.688  1.00  0.00     0.069 A 
HETATM   23  C   UNL     1      43.446 -17.232   2.316  1.00  0.00     0.037 A 
HETATM   24  C   UNL     1      43.426 -16.133   1.456  1.00  0.00     0.004 A 
HETATM   25  C   UNL     1      43.225 -14.849   1.965  1.00  0.00     0.014 A 
BRANCH  22  26
HETATM   26  O   UNL     1      43.277 -18.036   4.636  1.00  0.00    -0.356 OA
HETATM   27  C   UNL     1      44.256 -19.058   4.488  1.00  0.00     0.210 C 
ENDBRANCH  22  26
ENDBRANCH   1  20
BRANCH   3  28
HETATM   28  C   UNL     1      43.573 -10.977   6.409  1.00  0.00     0.058 A 
HETATM   29  C   UNL     1      44.875 -11.226   6.873  1.00  0.00     0.031 A 
HETATM   30  C   UNL     1      45.359 -10.564   8.004  1.00  0.00     0.002 A 
HETATM   31  C   UNL     1      44.548  -9.655   8.681  1.00  0.00     0.000 A 
HETATM   32  C   UNL     1      43.254  -9.405   8.229  1.00  0.00     0.002 A 
HETATM   33  C   UNL     1      42.764 -10.062   7.095  1.00  0.00     0.031 A 
ENDBRANCH   3  28
TORSDOF 6
ENDMDL
MODEL 7
REMARK VINA RESULT:      -8.8      2.540      7.434
REMARK  6 active torsions:
REMARK  status: ('A' for Active; 'I' for Inactive)
REMARK    1  A    between atoms: O_2  and  C_3 
REMARK    2  A    between atoms: C_5  and  C_6 
REMARK    3  A    between atoms: N_8  and  C_9 
REMARK    4  A    between atoms: C_16  and  C_17 
REMARK       I    between atoms: C_17  and  N_18 
REMARK    5  A    between atoms: N_18  and  N_19 
REMARK       I    between atoms: N_19  and  C_20 
REMARK    6  A    between atoms: C_20  and  C_21 
ROOT
HETATM    1  C   UNL     1      42.751 -14.917   3.561  1.00  0.00     0.105 A 
HETATM    2  N   UNL     1      43.355 -16.049   3.958  1.00  0.00    -0.166 NA
HETATM    3  N   UNL     1      42.864 -17.032   3.175  1.00  0.00    -0.244 N 
HETATM    4  C   UNL     1      41.938 -16.542   2.287  1.00  0.00     0.138 A 
HETATM    5  C   UNL     1      41.821 -15.179   2.510  1.00  0.00     0.082 A 
ENDROOT
BRANCH   5   6
HETATM    6  C   UNL     1      40.908 -14.274   1.829  1.00  0.00     0.274 C 
HETATM    7  N   UNL     1      41.224 -14.024   0.506  1.00  0.00    -0.263 N 
HETATM    8  H   UNL     1      42.117 -14.286   0.096  1.00  0.00     0.190 HD
HETATM    9  O   UNL     1      39.931 -13.758   2.367  1.00  0.00    -0.266 OA
BRANCH   7  10
HETATM   10  N   UNL     1      40.493 -13.050  -0.189  1.00  0.00    -0.262 N 
HETATM   11  C   UNL     1      39.530 -13.467  -1.084  1.00  0.00     0.286 C 
HETATM   12  O   UNL     1      39.255 -14.660  -1.221  1.00  0.00    -0.264 OA
HETATM   13  H   UNL     1      40.825 -12.092  -0.126  1.00  0.00     0.190 HD
BRANCH  11  14
HETATM   14  C   UNL     1      38.880 -12.425  -1.842  1.00  0.00     0.102 A 
HETATM   15  N   UNL     1      39.607 -11.531  -2.602  1.00  0.00    -0.361 N 
HETATM   16  H   UNL     1      40.618 -11.549  -2.674  1.00  0.00     0.165 HD
HETATM   17  C   UNL     1      38.772 -10.646  -3.226  1.00  0.00     0.088 A 
HETATM   18  C   UNL     1      37.482 -10.963  -2.871  1.00  0.00     0.019 A 
HETATM   19  C   UNL     1      37.546 -12.080  -2.001  1.00  0.00     0.036 A 
ENDBRANCH  11  14
ENDBRANCH   7  10
ENDBRANCH   5   6
BRANCH   1  20
HETATM   20  C   UNL     1      43.111 -13.652   4.208  1.00  0.00    -0.002 A 
HETATM   21  C   UNL     1      43.357 -13.576   5.585  1.00  0.00     0.050 A 
HETATM   22  C   UNL     1      43.685 -12.358   6.195  1.00  0.00     0.069 A 
HETATM   23  C   UNL     1      43.744 -11.197   5.424  1.00  0.00     0.037 A 
HETATM   24  C   UNL     1      43.483 -11.254   4.054  1.00  0.00     0.004 A 
HETATM   25  C   UNL     1      43.169 -12.473   3.451  1.00  0.00     0.014 A 
BRANCH  22  26
HETATM   26  O   UNL     1      43.911 -12.437   7.543  1.00  0.00    -0.356 OA
HETATM   27  C   UNL     1      44.207 -11.218   8.214  1.00  0.00     0.210 C 
ENDBRANCH  22  26
ENDBRANCH   1  20
BRANCH   3  28
HETATM   28  C   UNL     1      43.305 -18.378   3.328  1.00  0.00     0.058 A 
HETATM   29  C   UNL     1      43.212 -19.259   2.239  1.00  0.00     0.031 A 
HETATM   30  C   UNL     1      43.640 -20.583   2.365  1.00  0.00     0.002 A 
HETATM   31  C   UNL     1      44.157 -21.037   3.577  1.00  0.00     0.000 A 
HETATM   32  C   UNL     1      44.250 -20.169   4.664  1.00  0.00     0.002 A 
HETATM   33  C   UNL     1      43.826 -18.841   4.544  1.00  0.00     0.031 A 
ENDBRANCH   3  28
TORSDOF 6
ENDMDL
MODEL 8
REMARK VINA RESULT:      -8.4      2.084      7.640
REMARK  6 active torsions:
REMARK  status: ('A' for Active; 'I' for Inactive)
REMARK    1  A    between atoms: O_2  and  C_3 
REMARK    2  A    between atoms: C_5  and  C_6 
REMARK    3  A    between atoms: N_8  and  C_9 
REMARK    4  A    between atoms: C_16  and  C_17 
REMARK       I    between atoms: C_17  and  N_18 
REMARK    5  A    between atoms: N_18  and  N_19 
REMARK       I    between atoms: N_19  and  C_20 
REMARK    6  A    between atoms: C_20  and  C_21 
ROOT
HETATM    1  C   UNL     1      41.795 -12.016   4.953  1.00  0.00     0.105 A 
HETATM    2  N   UNL     1      42.243 -10.922   5.590  1.00  0.00    -0.166 NA
HETATM    3  N   UNL     1      43.260 -11.334   6.375  1.00  0.00    -0.244 N 
HETATM    4  C   UNL     1      43.459 -12.688   6.258  1.00  0.00     0.138 A 
HETATM    5  C   UNL     1      42.524 -13.174   5.359  1.00  0.00     0.082 A 
ENDROOT
BRANCH   5   6
HETATM    6  C   UNL     1      42.339 -14.568   4.983  1.00  0.00     0.274 C 
HETATM    7  N   UNL     1      43.316 -15.074   4.147  1.00  0.00    -0.263 N 
HETATM    8  H   UNL     1      43.996 -14.481   3.675  1.00  0.00     0.190 HD
HETATM    9  O   UNL     1      41.396 -15.258   5.363  1.00  0.00    -0.266 OA
BRANCH   7  10
HETATM   10  N   UNL     1      43.146 -16.357   3.610  1.00  0.00    -0.262 N 
HETATM   11  C   UNL     1      43.867 -17.398   4.158  1.00  0.00     0.286 C 
HETATM   12  O   UNL     1      44.585 -17.232   5.144  1.00  0.00    -0.264 OA
HETATM   13  H   UNL     1      42.632 -16.428   2.736  1.00  0.00     0.190 HD
BRANCH  11  14
HETATM   14  C   UNL     1      43.726 -18.677   3.501  1.00  0.00     0.102 A 
HETATM   15  N   UNL     1      44.057 -19.853   4.144  1.00  0.00    -0.361 N 
HETATM   16  H   UNL     1      44.410 -19.893   5.093  1.00  0.00     0.165 HD
HETATM   17  C   UNL     1      43.835 -20.924   3.322  1.00  0.00     0.088 A 
HETATM   18  C   UNL     1      43.354 -20.444   2.127  1.00  0.00     0.019 A 
HETATM   19  C   UNL     1      43.285 -19.033   2.236  1.00  0.00     0.036 A 
ENDBRANCH  11  14
ENDBRANCH   7  10
ENDBRANCH   5   6
BRANCH   1  20
HETATM   20  C   UNL     1      40.701 -11.879   3.986  1.00  0.00    -0.002 A 
HETATM   21  C   UNL     1      40.658 -12.645   2.814  1.00  0.00     0.050 A 
HETATM   22  C   UNL     1      39.616 -12.494   1.890  1.00  0.00     0.069 A 
HETATM   23  C   UNL     1      38.617 -11.549   2.128  1.00  0.00     0.037 A 
HETATM   24  C   UNL     1      38.657 -10.766   3.282  1.00  0.00     0.004 A 
HETATM   25  C   UNL     1      39.692 -10.930   4.205  1.00  0.00     0.014 A 
BRANCH  22  26
HETATM   26  O   UNL     1      39.697 -13.316   0.799  1.00  0.00    -0.356 OA
HETATM   27  C   UNL     1      40.201 -14.627   1.022  1.00  0.00     0.210 C 
ENDBRANCH  22  26
ENDBRANCH   1  20
BRANCH   3  28
HETATM   28  C   UNL     1      43.974 -10.411   7.192  1.00  0.00     0.058 A 
HETATM   29  C   UNL     1      45.368 -10.532   7.309  1.00  0.00     0.031 A 
HETATM   30  C   UNL     1      46.089  -9.637   8.104  1.00  0.00     0.002 A 
HETATM   31  C   UNL     1      45.426  -8.621   8.790  1.00  0.00     0.000 A 
HETATM   32  C   UNL     1      44.042  -8.496   8.681  1.00  0.00     0.002 A 
HETATM   33  C   UNL     1      43.313  -9.387   7.885  1.00  0.00     0.031 A 
ENDBRANCH   3  28
TORSDOF 6
ENDMDL
MODEL 9
REMARK VINA RESULT:      -8.3      3.118      6.848
REMARK  6 active torsions:
REMARK  status: ('A' for Active; 'I' for Inactive)
REMARK    1  A    between atoms: O_2  and  C_3 
REMARK    2  A    between atoms: C_5  and  C_6 
REMARK    3  A    between atoms: N_8  and  C_9 
REMARK    4  A    between atoms: C_16  and  C_17 
REMARK       I    between atoms: C_17  and  N_18 
REMARK    5  A    between atoms: N_18  and  N_19 
REMARK       I    between atoms: N_19  and  C_20 
REMARK    6  A    between atoms: C_20  and  C_21 
ROOT
HETATM    1  C   UNL     1      42.304 -14.419   3.572  1.00  0.00     0.105 A 
HETATM    2  N   UNL     1      42.850 -15.570   3.996  1.00  0.00    -0.166 NA
HETATM    3  N   UNL     1      42.610 -16.480   3.029  1.00  0.00    -0.244 N 
HETATM    4  C   UNL     1      41.900 -15.924   1.992  1.00  0.00     0.138 A 
HETATM    5  C   UNL     1      41.668 -14.595   2.306  1.00  0.00     0.082 A 
ENDROOT
BRANCH   5   6
HETATM    6  C   UNL     1      40.901 -13.647   1.512  1.00  0.00     0.274 C 
HETATM    7  N   UNL     1      39.560 -13.573   1.838  1.00  0.00    -0.263 N 
HETATM    8  H   UNL     1      39.103 -14.255   2.439  1.00  0.00     0.190 HD
HETATM    9  O   UNL     1      41.385 -12.958   0.616  1.00  0.00    -0.266 OA
BRANCH   7  10
HETATM   10  N   UNL     1      38.711 -12.802   1.032  1.00  0.00    -0.262 N 
HETATM   11  C   UNL     1      38.268 -11.589   1.518  1.00  0.00     0.286 C 
HETATM   12  O   UNL     1      38.663 -11.148   2.598  1.00  0.00    -0.264 OA
HETATM   13  H   UNL     1      38.328 -13.250   0.204  1.00  0.00     0.190 HD
BRANCH  11  14
HETATM   14  C   UNL     1      37.319 -10.886   0.687  1.00  0.00     0.102 A 
HETATM   15  N   UNL     1      36.257 -10.197   1.238  1.00  0.00    -0.361 N 
HETATM   16  H   UNL     1      36.080 -10.143   2.234  1.00  0.00     0.165 HD
HETATM   17  C   UNL     1      35.506  -9.614   0.255  1.00  0.00     0.088 A 
HETATM   18  C   UNL     1      36.082  -9.924  -0.954  1.00  0.00     0.019 A 
HETATM   19  C   UNL     1      37.221 -10.724  -0.686  1.00  0.00     0.036 A 
ENDBRANCH  11  14
ENDBRANCH   7  10
ENDBRANCH   5   6
BRANCH   1  20
HETATM   20  C   UNL     1      42.437 -13.218   4.403  1.00  0.00    -0.002 A 
HETATM   21  C   UNL     1      43.684 -12.631   4.650  1.00  0.00     0.050 A 
HETATM   22  C   UNL     1      43.800 -11.493   5.459  1.00  0.00     0.069 A 
HETATM   23  C   UNL     1      42.659 -10.949   6.049  1.00  0.00     0.037 A 
HETATM   24  C   UNL     1      41.411 -11.535   5.827  1.00  0.00     0.004 A 
HETATM   25  C   UNL     1      41.301 -12.662   5.010  1.00  0.00     0.014 A 
BRANCH  22  26
HETATM   26  O   UNL     1      45.077 -11.022   5.601  1.00  0.00    -0.356 OA
HETATM   27  C   UNL     1      45.586 -10.944   6.927  1.00  0.00     0.210 C 
ENDBRANCH  22  26
ENDBRANCH   1  20
BRANCH   3  28
HETATM   28  C   UNL     1      43.066 -17.823   3.157  1.00  0.00     0.058 A 
HETATM   29  C   UNL     1      42.862 -18.722   2.099  1.00  0.00     0.031 A 
HETATM   30  C   UNL     1      43.302 -20.044   2.203  1.00  0.00     0.002 A 
HETATM   31  C   UNL     1      43.944 -20.478   3.361  1.00  0.00     0.000 A 
HETATM   32  C   UNL     1      44.148 -19.592   4.417  1.00  0.00     0.002 A 
HETATM   33  C   UNL     1      43.712 -18.266   4.320  1.00  0.00     0.031 A 
ENDBRANCH   3  28
TORSDOF 6
ENDMDL
MODEL 10
REMARK VINA RESULT:      -8.2      2.496      8.430
REMARK  6 active torsions:
REMARK  status: ('A' for Active; 'I' for Inactive)
REMARK    1  A    between atoms: O_2  and  C_3 
REMARK    2  A    between atoms: C_5  and  C_6 
REMARK    3  A    between atoms: N_8  and  C_9 
REMARK    4  A    between atoms: C_16  and  C_17 
REMARK       I    between atoms: C_17  and  N_18 
REMARK    5  A    between atoms: N_18  and  N_19 
REMARK       I    between atoms: N_19  and  C_20 
REMARK    6  A    between atoms: C_20  and  C_21 
ROOT
HETATM    1  C   UNL     1      43.283 -13.144   6.061  1.00  0.00     0.105 A 
HETATM    2  N   UNL     1      43.698 -12.706   7.260  1.00  0.00    -0.166 NA
HETATM    3  N   UNL     1      43.568 -11.362   7.235  1.00  0.00    -0.244 N 
HETATM    4  C   UNL     1      43.086 -10.934   6.021  1.00  0.00     0.138 A 
HETATM    5  C   UNL     1      42.901 -12.053   5.224  1.00  0.00     0.082 A 
ENDROOT
BRANCH   5   6
HETATM    6  C   UNL     1      42.458 -12.054   3.838  1.00  0.00     0.274 C 
HETATM    7  N   UNL     1      41.096 -12.222   3.668  1.00  0.00    -0.263 N 
HETATM    8  H   UNL     1      40.481 -12.515   4.424  1.00  0.00     0.190 HD
HETATM    9  O   UNL     1      43.215 -11.922   2.879  1.00  0.00    -0.266 OA
BRANCH   7  10
HETATM   10  N   UNL     1      40.594 -12.387   2.371  1.00  0.00    -0.262 N 
HETATM   11  C   UNL     1      40.162 -13.641   1.990  1.00  0.00     0.286 C 
HETATM   12  O   UNL     1      40.139 -14.581   2.785  1.00  0.00    -0.264 OA
HETATM   13  H   UNL     1      40.731 -11.618   1.721  1.00  0.00     0.190 HD
BRANCH  11  14
HETATM   14  C   UNL     1      39.748 -13.774   0.612  1.00  0.00     0.102 A 
HETATM   15  N   UNL     1      38.989 -12.800  -0.006  1.00  0.00    -0.361 N 
HETATM   16  H   UNL     1      38.682 -11.952   0.456  1.00  0.00     0.165 HD
HETATM   17  C   UNL     1      38.729 -13.150  -1.302  1.00  0.00     0.088 A 
HETATM   18  C   UNL     1      39.324 -14.367  -1.537  1.00  0.00     0.019 A 
HETATM   19  C   UNL     1      39.964 -14.762  -0.336  1.00  0.00     0.036 A 
ENDBRANCH  11  14
ENDBRANCH   7  10
ENDBRANCH   5   6
BRANCH   1  20
HETATM   20  C   UNL     1      43.270 -14.586   5.795  1.00  0.00    -0.002 A 
HETATM   21  C   UNL     1      43.253 -15.093   4.489  1.00  0.00     0.050 A 
HETATM   22  C   UNL     1      43.224 -16.472   4.249  1.00  0.00     0.069 A 
HETATM   23  C   UNL     1      43.186 -17.357   5.326  1.00  0.00     0.037 A 
HETATM   24  C   UNL     1      43.184 -16.867   6.633  1.00  0.00     0.004 A 
HETATM   25  C   UNL     1      43.225 -15.492   6.866  1.00  0.00     0.014 A 
BRANCH  22  26
HETATM   26  O   UNL     1      43.223 -16.821   2.925  1.00  0.00    -0.356 OA
HETATM   27  C   UNL     1      43.307 -15.758   1.984  1.00  0.00     0.210 C 
ENDBRANCH  22  26
ENDBRANCH   1  20
BRANCH   3  28
HETATM   28  C   UNL     1      43.917 -10.572   8.367  1.00  0.00     0.058 A 
HETATM   29  C   UNL     1      42.946  -9.748   8.956  1.00  0.00     0.031 A 
HETATM   30  C   UNL     1      43.266  -8.965  10.069  1.00  0.00     0.002 A 
HETATM   31  C   UNL     1      44.555  -8.995  10.596  1.00  0.00     0.000 A 
HETATM   32  C   UNL     1      45.527  -9.808  10.014  1.00  0.00     0.002 A 
HETATM   33  C   UNL     1      45.213 -10.597   8.902  1.00  0.00     0.031 A 
ENDBRANCH   3  28
TORSDOF 6
ENDMDL
