MODEL 1
REMARK VINA RESULT:      -9.2      0.000      0.000
REMARK  6 active torsions:
REMARK  status: ('A' for Active; 'I' for Inactive)
REMARK    1  A    between atoms: O_2  and  C_3 
REMARK    2  A    between atoms: C_6  and  C_7 
REMARK    3  A    between atoms: C_11  and  C_12 
REMARK       I    between atoms: C_12  and  N_13 
REMARK    4  A    between atoms: N_13  and  N_14 
REMARK       I    between atoms: N_14  and  C_15 
REMARK    5  A    between atoms: C_15  and  C_16 
REMARK    6  A    between atoms: C_17  and  C_18 
ROOT
HETATM    1  C   UNL     1      44.371 -11.424   7.584  1.00  0.00     0.288 C 
HETATM    2  N   UNL     1      43.563 -12.538   7.508  1.00  0.00    -0.262 N 
HETATM    3  O   UNL     1      45.098 -11.080   6.653  1.00  0.00    -0.264 OA
HETATM    4  H   UNL     1      42.897 -12.808   8.225  1.00  0.00     0.190 HD
ENDROOT
BRANCH   1   5
HETATM    5  C   UNL     1      44.317 -10.701   8.824  1.00  0.00     0.121 A 
HETATM    6  N   UNL     1      45.441 -10.162   9.384  1.00  0.00    -0.272 N 
HETATM    7  N   UNL     1      45.235  -9.563  10.564  1.00  0.00    -0.174 NA
HETATM    8  H   UNL     1      46.384 -10.193   9.006  1.00  0.00     0.189 HD
HETATM    9  C   UNL     1      43.918  -9.694  10.789  1.00  0.00     0.089 A 
HETATM   10  C   UNL     1      43.304 -10.393   9.710  1.00  0.00     0.071 A 
BRANCH   9  11
HETATM   11  C   UNL     1      43.293  -9.187  12.015  1.00  0.00    -0.005 A 
HETATM   12  C   UNL     1      42.319  -9.927  12.696  1.00  0.00     0.016 A 
HETATM   13  C   UNL     1      41.758  -9.439  13.881  1.00  0.00     0.037 A 
HETATM   14  C   UNL     1      42.159  -8.210  14.411  1.00  0.00     0.068 A 
HETATM   15  C   UNL     1      43.116  -7.460  13.732  1.00  0.00     0.037 A 
HETATM   16  C   UNL     1      43.676  -7.946  12.542  1.00  0.00     0.016 A 
BRANCH  14  17
HETATM   17  O   UNL     1      41.542  -7.860  15.579  1.00  0.00    -0.356 OA
HETATM   18  C   UNL     1      42.090  -6.753  16.285  1.00  0.00     0.210 C 
ENDBRANCH  14  17
ENDBRANCH   9  11
ENDBRANCH   1   5
BRANCH   2  19
HETATM   19  N   UNL     1      43.556 -13.285   6.329  1.00  0.00    -0.267 N 
HETATM   20  C   UNL     1      42.413 -13.321   5.568  1.00  0.00     0.240 C 
HETATM   21  O   UNL     1      41.375 -12.734   5.853  1.00  0.00    -0.271 OA
HETATM   22  H   UNL     1      44.392 -13.826   6.109  1.00  0.00     0.190 HD
BRANCH  20  23
HETATM   23  C   UNL     1      42.533 -14.173   4.362  1.00  0.00     0.089 A 
HETATM   24  C   UNL     1      41.843 -15.530   4.381  1.00  0.00     0.036 A 
HETATM   25  C   UNL     1      41.370 -14.447   3.446  1.00  0.00     0.025 A 
BRANCH  24  26
HETATM   26  C   UNL     1      42.627 -16.729   3.907  1.00  0.00    -0.015 A 
HETATM   27  C   UNL     1      43.592 -17.327   4.734  1.00  0.00     0.123 A 
HETATM   28  F   UNL     1      43.832 -16.801   5.946  1.00  0.00    -0.206 F 
HETATM   29  C   UNL     1      44.319 -18.448   4.341  1.00  0.00     0.043 A 
HETATM   30  C   UNL     1      44.095 -19.006   3.086  1.00  0.00     0.003 A 
HETATM   31  C   UNL     1      43.142 -18.439   2.239  1.00  0.00     0.001 A 
HETATM   32  C   UNL     1      42.415 -17.316   2.650  1.00  0.00     0.011 A 
ENDBRANCH  24  26
ENDBRANCH  20  23
ENDBRANCH   2  19
TORSDOF 6
ENDMDL
MODEL 2
REMARK VINA RESULT:      -8.8      2.651     11.115
REMARK  6 active torsions:
REMARK  status: ('A' for Active; 'I' for Inactive)
REMARK    1  A    between atoms: O_2  and  C_3 
REMARK    2  A    between atoms: C_6  and  C_7 
REMARK    3  A    between atoms: C_11  and  C_12 
REMARK       I    between atoms: C_12  and  N_13 
REMARK    4  A    between atoms: N_13  and  N_14 
REMARK       I    between atoms: N_14  and  C_15 
REMARK    5  A    between atoms: C_15  and  C_16 
REMARK    6  A    between atoms: C_17  and  C_18 
ROOT
HETATM    1  C   UNL     1      42.535 -11.796   6.167  1.00  0.00     0.288 C 
HETATM    2  N   UNL     1      43.155 -11.935   7.390  1.00  0.00    -0.262 N 
HETATM    3  O   UNL     1      41.977 -10.751   5.835  1.00  0.00    -0.264 OA
HETATM    4  H   UNL     1      43.688 -12.754   7.667  1.00  0.00     0.190 HD
ENDROOT
BRANCH   1   5
HETATM    5  C   UNL     1      42.572 -12.952   5.316  1.00  0.00     0.121 A 
HETATM    6  N   UNL     1      41.902 -12.982   4.125  1.00  0.00    -0.272 N 
HETATM    7  N   UNL     1      41.994 -14.147   3.471  1.00  0.00    -0.174 NA
HETATM    8  H   UNL     1      41.348 -12.233   3.720  1.00  0.00     0.189 HD
HETATM    9  C   UNL     1      42.770 -14.917   4.251  1.00  0.00     0.089 A 
HETATM   10  C   UNL     1      43.164 -14.195   5.414  1.00  0.00     0.071 A 
BRANCH   9  11
HETATM   11  C   UNL     1      43.086 -16.303   3.892  1.00  0.00    -0.005 A 
HETATM   12  C   UNL     1      42.663 -16.855   2.677  1.00  0.00     0.016 A 
HETATM   13  C   UNL     1      43.001 -18.170   2.340  1.00  0.00     0.037 A 
HETATM   14  C   UNL     1      43.770 -18.956   3.202  1.00  0.00     0.068 A 
HETATM   15  C   UNL     1      44.183 -18.419   4.419  1.00  0.00     0.037 A 
HETATM   16  C   UNL     1      43.841 -17.104   4.760  1.00  0.00     0.016 A 
BRANCH  14  17
HETATM   17  O   UNL     1      44.040 -20.215   2.744  1.00  0.00    -0.356 OA
HETATM   18  C   UNL     1      43.462 -20.579   1.497  1.00  0.00     0.210 C 
ENDBRANCH  14  17
ENDBRANCH   9  11
ENDBRANCH   1   5
BRANCH   2  19
HETATM   19  N   UNL     1      43.167 -10.849   8.267  1.00  0.00    -0.267 N 
HETATM   20  C   UNL     1      44.347 -10.495   8.875  1.00  0.00     0.240 C 
HETATM   21  O   UNL     1      45.414 -11.073   8.701  1.00  0.00    -0.271 OA
HETATM   22  H   UNL     1      42.276 -10.395   8.467  1.00  0.00     0.190 HD
BRANCH  20  23
HETATM   23  C   UNL     1      44.213  -9.347   9.801  1.00  0.00     0.089 A 
HETATM   24  C   UNL     1      44.091  -9.647  11.289  1.00  0.00     0.036 A 
HETATM   25  C   UNL     1      45.308  -8.939  10.750  1.00  0.00     0.025 A 
BRANCH  24  26
HETATM   26  C   UNL     1      43.015  -8.933  12.069  1.00  0.00    -0.015 A 
HETATM   27  C   UNL     1      41.660  -9.251  11.877  1.00  0.00     0.123 A 
HETATM   28  F   UNL     1      41.329 -10.181  10.966  1.00  0.00    -0.206 F 
HETATM   29  C   UNL     1      40.640  -8.631  12.595  1.00  0.00     0.043 A 
HETATM   30  C   UNL     1      40.958  -7.658  13.537  1.00  0.00     0.003 A 
HETATM   31  C   UNL     1      42.293  -7.319  13.755  1.00  0.00     0.001 A 
HETATM   32  C   UNL     1      43.308  -7.955  13.032  1.00  0.00     0.011 A 
ENDBRANCH  24  26
ENDBRANCH  20  23
ENDBRANCH   2  19
TORSDOF 6
ENDMDL
MODEL 3
REMARK VINA RESULT:      -8.6      7.574     11.250
REMARK  6 active torsions:
REMARK  status: ('A' for Active; 'I' for Inactive)
REMARK    1  A    between atoms: O_2  and  C_3 
REMARK    2  A    between atoms: C_6  and  C_7 
REMARK    3  A    between atoms: C_11  and  C_12 
REMARK       I    between atoms: C_12  and  N_13 
REMARK    4  A    between atoms: N_13  and  N_14 
REMARK       I    between atoms: N_14  and  C_15 
REMARK    5  A    between atoms: C_15  and  C_16 
REMARK    6  A    between atoms: C_17  and  C_18 
ROOT
HETATM    1  C   UNL     1      40.650 -14.208   0.017  1.00  0.00     0.288 C 
HETATM    2  N   UNL     1      41.782 -14.285   0.799  1.00  0.00    -0.262 N 
HETATM    3  O   UNL     1      39.725 -15.010   0.128  1.00  0.00    -0.264 OA
HETATM    4  H   UNL     1      42.530 -13.598   0.786  1.00  0.00     0.190 HD
ENDROOT
BRANCH   1   5
HETATM    5  C   UNL     1      40.628 -13.139  -0.943  1.00  0.00     0.121 A 
HETATM    6  N   UNL     1      40.230 -13.347  -2.233  1.00  0.00    -0.272 N 
HETATM    7  N   UNL     1      40.313 -12.264  -3.017  1.00  0.00    -0.174 NA
HETATM    8  H   UNL     1      39.905 -14.221  -2.636  1.00  0.00     0.189 HD
HETATM    9  C   UNL     1      40.770 -11.293  -2.210  1.00  0.00     0.089 A 
HETATM   10  C   UNL     1      40.969 -11.801  -0.894  1.00  0.00     0.071 A 
BRANCH   9  11
HETATM   11  C   UNL     1      41.032  -9.938  -2.709  1.00  0.00    -0.005 A 
HETATM   12  C   UNL     1      41.745  -9.007  -1.947  1.00  0.00     0.016 A 
HETATM   13  C   UNL     1      42.010  -7.729  -2.454  1.00  0.00     0.037 A 
HETATM   14  C   UNL     1      41.574  -7.360  -3.729  1.00  0.00     0.068 A 
HETATM   15  C   UNL     1      40.849  -8.277  -4.487  1.00  0.00     0.037 A 
HETATM   16  C   UNL     1      40.579  -9.554  -3.979  1.00  0.00     0.016 A 
BRANCH  14  17
HETATM   17  O   UNL     1      41.912  -6.091  -4.106  1.00  0.00    -0.356 OA
HETATM   18  C   UNL     1      42.643  -5.958  -5.319  1.00  0.00     0.210 C 
ENDBRANCH  14  17
ENDBRANCH   9  11
ENDBRANCH   1   5
BRANCH   2  19
HETATM   19  N   UNL     1      41.869 -15.293   1.760  1.00  0.00    -0.267 N 
HETATM   20  C   UNL     1      42.208 -14.960   3.048  1.00  0.00     0.240 C 
HETATM   21  O   UNL     1      42.445 -13.818   3.427  1.00  0.00    -0.271 OA
HETATM   22  H   UNL     1      41.733 -16.254   1.448  1.00  0.00     0.190 HD
BRANCH  20  23
HETATM   23  C   UNL     1      42.294 -16.126   3.957  1.00  0.00     0.089 A 
HETATM   24  C   UNL     1      43.655 -16.781   4.145  1.00  0.00     0.036 A 
HETATM   25  C   UNL     1      42.989 -16.065   5.291  1.00  0.00     0.025 A 
BRANCH  24  26
HETATM   26  C   UNL     1      43.734 -18.286   4.062  1.00  0.00    -0.015 A 
HETATM   27  C   UNL     1      43.570 -18.945   2.833  1.00  0.00     0.123 A 
HETATM   28  F   UNL     1      43.311 -18.222   1.731  1.00  0.00    -0.206 F 
HETATM   29  C   UNL     1      43.659 -20.330   2.713  1.00  0.00     0.043 A 
HETATM   30  C   UNL     1      43.917 -21.102   3.842  1.00  0.00     0.003 A 
HETATM   31  C   UNL     1      44.088 -20.479   5.078  1.00  0.00     0.001 A 
HETATM   32  C   UNL     1      44.002 -19.087   5.183  1.00  0.00     0.011 A 
ENDBRANCH  24  26
ENDBRANCH  20  23
ENDBRANCH   2  19
TORSDOF 6
ENDMDL
MODEL 4
REMARK VINA RESULT:      -8.1      1.894      2.092
REMARK  6 active torsions:
REMARK  status: ('A' for Active; 'I' for Inactive)
REMARK    1  A    between atoms: O_2  and  C_3 
REMARK    2  A    between atoms: C_6  and  C_7 
REMARK    3  A    between atoms: C_11  and  C_12 
REMARK       I    between atoms: C_12  and  N_13 
REMARK    4  A    between atoms: N_13  and  N_14 
REMARK       I    between atoms: N_14  and  C_15 
REMARK    5  A    between atoms: C_15  and  C_16 
REMARK    6  A    between atoms: C_17  and  C_18 
ROOT
HETATM    1  C   UNL     1      42.225 -10.097   6.445  1.00  0.00     0.288 C 
HETATM    2  N   UNL     1      42.126 -11.436   6.759  1.00  0.00    -0.262 N 
HETATM    3  O   UNL     1      42.259  -9.702   5.281  1.00  0.00    -0.264 OA
HETATM    4  H   UNL     1      42.020 -11.791   7.705  1.00  0.00     0.190 HD
ENDROOT
BRANCH   1   5
HETATM    5  C   UNL     1      42.301  -9.200   7.564  1.00  0.00     0.121 A 
HETATM    6  N   UNL     1      42.441  -7.852   7.388  1.00  0.00    -0.272 N 
HETATM    7  N   UNL     1      42.547  -7.156   8.528  1.00  0.00    -0.174 NA
HETATM    8  H   UNL     1      42.488  -7.355   6.503  1.00  0.00     0.189 HD
HETATM    9  C   UNL     1      42.457  -8.078   9.501  1.00  0.00     0.089 A 
HETATM   10  C   UNL     1      42.289  -9.374   8.934  1.00  0.00     0.071 A 
BRANCH   9  11
HETATM   11  C   UNL     1      42.562  -7.713  10.917  1.00  0.00    -0.005 A 
HETATM   12  C   UNL     1      42.157  -6.455  11.377  1.00  0.00     0.016 A 
HETATM   13  C   UNL     1      42.237  -6.137  12.738  1.00  0.00     0.037 A 
HETATM   14  C   UNL     1      42.717  -7.067  13.663  1.00  0.00     0.068 A 
HETATM   15  C   UNL     1      43.137  -8.316  13.212  1.00  0.00     0.037 A 
HETATM   16  C   UNL     1      43.062  -8.633  11.849  1.00  0.00     0.016 A 
BRANCH  14  17
HETATM   17  O   UNL     1      42.729  -6.633  14.959  1.00  0.00    -0.356 OA
HETATM   18  C   UNL     1      41.849  -7.293  15.862  1.00  0.00     0.210 C 
ENDBRANCH  14  17
ENDBRANCH   9  11
ENDBRANCH   1   5
BRANCH   2  19
HETATM   19  N   UNL     1      42.039 -12.366   5.723  1.00  0.00    -0.267 N 
HETATM   20  C   UNL     1      42.999 -13.343   5.620  1.00  0.00     0.240 C 
HETATM   21  O   UNL     1      43.948 -13.462   6.387  1.00  0.00    -0.271 OA
HETATM   22  H   UNL     1      41.289 -12.244   5.043  1.00  0.00     0.190 HD
BRANCH  20  23
HETATM   23  C   UNL     1      42.804 -14.243   4.460  1.00  0.00     0.089 A 
HETATM   24  C   UNL     1      42.198 -15.616   4.721  1.00  0.00     0.036 A 
HETATM   25  C   UNL     1      41.440 -14.587   3.922  1.00  0.00     0.025 A 
BRANCH  24  26
HETATM   26  C   UNL     1      42.860 -16.813   4.086  1.00  0.00    -0.015 A 
HETATM   27  C   UNL     1      43.907 -17.484   4.738  1.00  0.00     0.123 A 
HETATM   28  F   UNL     1      44.336 -17.029   5.927  1.00  0.00    -0.206 F 
HETATM   29  C   UNL     1      44.526 -18.607   4.195  1.00  0.00     0.043 A 
HETATM   30  C   UNL     1      44.105 -19.092   2.960  1.00  0.00     0.003 A 
HETATM   31  C   UNL     1      43.066 -18.452   2.286  1.00  0.00     0.001 A 
HETATM   32  C   UNL     1      42.449 -17.329   2.847  1.00  0.00     0.011 A 
ENDBRANCH  24  26
ENDBRANCH  20  23
ENDBRANCH   2  19
TORSDOF 6
ENDMDL
MODEL 5
REMARK VINA RESULT:      -8.1      3.116     11.150
REMARK  6 active torsions:
REMARK  status: ('A' for Active; 'I' for Inactive)
REMARK    1  A    between atoms: O_2  and  C_3 
REMARK    2  A    between atoms: C_6  and  C_7 
REMARK    3  A    between atoms: C_11  and  C_12 
REMARK       I    between atoms: C_12  and  N_13 
REMARK    4  A    between atoms: N_13  and  N_14 
REMARK       I    between atoms: N_14  and  C_15 
REMARK    5  A    between atoms: C_15  and  C_16 
REMARK    6  A    between atoms: C_17  and  C_18 
ROOT
HETATM    1  C   UNL     1      41.646 -11.829   6.342  1.00  0.00     0.288 C 
HETATM    2  N   UNL     1      42.621 -11.206   7.090  1.00  0.00    -0.262 N 
HETATM    3  O   UNL     1      40.457 -11.526   6.438  1.00  0.00    -0.264 OA
HETATM    4  H   UNL     1      43.617 -11.377   6.982  1.00  0.00     0.190 HD
ENDROOT
BRANCH   1   5
HETATM    5  C   UNL     1      42.106 -12.862   5.456  1.00  0.00     0.121 A 
HETATM    6  N   UNL     1      42.325 -12.618   4.129  1.00  0.00    -0.272 N 
HETATM    7  N   UNL     1      42.704 -13.694   3.427  1.00  0.00    -0.174 NA
HETATM    8  H   UNL     1      42.213 -11.731   3.648  1.00  0.00     0.189 HD
HETATM    9  C   UNL     1      42.754 -14.689   4.327  1.00  0.00     0.089 A 
HETATM   10  C   UNL     1      42.397 -14.202   5.617  1.00  0.00     0.071 A 
BRANCH   9  11
HETATM   11  C   UNL     1      43.104 -16.060   3.938  1.00  0.00    -0.005 A 
HETATM   12  C   UNL     1      43.866 -16.882   4.776  1.00  0.00     0.016 A 
HETATM   13  C   UNL     1      44.163 -18.197   4.399  1.00  0.00     0.037 A 
HETATM   14  C   UNL     1      43.703 -18.716   3.187  1.00  0.00     0.068 A 
HETATM   15  C   UNL     1      42.957 -17.899   2.340  1.00  0.00     0.037 A 
HETATM   16  C   UNL     1      42.663 -16.581   2.714  1.00  0.00     0.016 A 
BRANCH  14  17
HETATM   17  O   UNL     1      44.052 -20.016   2.950  1.00  0.00    -0.356 OA
HETATM   18  C   UNL     1      43.644 -20.571   1.706  1.00  0.00     0.210 C 
ENDBRANCH  14  17
ENDBRANCH   9  11
ENDBRANCH   1   5
BRANCH   2  19
HETATM   19  N   UNL     1      42.249 -10.185   7.966  1.00  0.00    -0.267 N 
HETATM   20  C   UNL     1      42.168  -8.897   7.494  1.00  0.00     0.240 C 
HETATM   21  O   UNL     1      42.403  -8.569   6.337  1.00  0.00    -0.271 OA
HETATM   22  H   UNL     1      42.108 -10.433   8.944  1.00  0.00     0.190 HD
BRANCH  20  23
HETATM   23  C   UNL     1      41.793  -7.911   8.534  1.00  0.00     0.089 A 
HETATM   24  C   UNL     1      42.916  -7.208   9.284  1.00  0.00     0.036 A 
HETATM   25  C   UNL     1      42.011  -6.431   8.363  1.00  0.00     0.025 A 
BRANCH  24  26
HETATM   26  C   UNL     1      42.816  -7.120  10.787  1.00  0.00    -0.015 A 
HETATM   27  C   UNL     1      43.299  -8.159  11.599  1.00  0.00     0.123 A 
HETATM   28  F   UNL     1      43.827  -9.250  11.022  1.00  0.00    -0.206 F 
HETATM   29  C   UNL     1      43.246  -8.103  12.990  1.00  0.00     0.043 A 
HETATM   30  C   UNL     1      42.696  -6.986  13.612  1.00  0.00     0.003 A 
HETATM   31  C   UNL     1      42.209  -5.935  12.835  1.00  0.00     0.001 A 
HETATM   32  C   UNL     1      42.274  -6.001  11.439  1.00  0.00     0.011 A 
ENDBRANCH  24  26
ENDBRANCH  20  23
ENDBRANCH   2  19
TORSDOF 6
ENDMDL
MODEL 6
REMARK VINA RESULT:      -8.1      3.171     11.358
REMARK  6 active torsions:
REMARK  status: ('A' for Active; 'I' for Inactive)
REMARK    1  A    between atoms: O_2  and  C_3 
REMARK    2  A    between atoms: C_6  and  C_7 
REMARK    3  A    between atoms: C_11  and  C_12 
REMARK       I    between atoms: C_12  and  N_13 
REMARK    4  A    between atoms: N_13  and  N_14 
REMARK       I    between atoms: N_14  and  C_15 
REMARK    5  A    between atoms: C_15  and  C_16 
REMARK    6  A    between atoms: C_17  and  C_18 
ROOT
HETATM    1  C   UNL     1      43.610 -11.745   7.319  1.00  0.00     0.288 C 
HETATM    2  N   UNL     1      42.618 -10.850   7.659  1.00  0.00    -0.262 N 
HETATM    3  O   UNL     1      44.704 -11.749   7.881  1.00  0.00    -0.264 OA
HETATM    4  H   UNL     1      41.679 -10.867   7.270  1.00  0.00     0.190 HD
ENDROOT
BRANCH   1   5
HETATM    5  C   UNL     1      43.287 -12.659   6.260  1.00  0.00     0.121 A 
HETATM    6  N   UNL     1      42.453 -12.300   5.238  1.00  0.00    -0.272 N 
HETATM    7  N   UNL     1      42.212 -13.279   4.356  1.00  0.00    -0.174 NA
HETATM    8  H   UNL     1      42.006 -11.398   5.106  1.00  0.00     0.189 HD
HETATM    9  C   UNL     1      42.927 -14.325   4.801  1.00  0.00     0.089 A 
HETATM   10  C   UNL     1      43.627 -13.969   5.989  1.00  0.00     0.071 A 
BRANCH   9  11
HETATM   11  C   UNL     1      42.903 -15.620   4.114  1.00  0.00    -0.005 A 
HETATM   12  C   UNL     1      42.084 -15.838   3.000  1.00  0.00     0.016 A 
HETATM   13  C   UNL     1      42.098 -17.073   2.340  1.00  0.00     0.037 A 
HETATM   14  C   UNL     1      42.930 -18.108   2.774  1.00  0.00     0.068 A 
HETATM   15  C   UNL     1      43.737 -17.904   3.892  1.00  0.00     0.037 A 
HETATM   16  C   UNL     1      43.720 -16.670   4.556  1.00  0.00     0.016 A 
BRANCH  14  17
HETATM   17  O   UNL     1      42.857 -19.253   2.032  1.00  0.00    -0.356 OA
HETATM   18  C   UNL     1      43.685 -20.334   2.442  1.00  0.00     0.210 C 
ENDBRANCH  14  17
ENDBRANCH   9  11
ENDBRANCH   1   5
BRANCH   2  19
HETATM   19  N   UNL     1      42.857  -9.937   8.687  1.00  0.00    -0.267 N 
HETATM   20  C   UNL     1      41.803  -9.228   9.208  1.00  0.00     0.240 C 
HETATM   21  O   UNL     1      40.642  -9.338   8.831  1.00  0.00    -0.271 OA
HETATM   22  H   UNL     1      43.825  -9.792   8.972  1.00  0.00     0.190 HD
BRANCH  20  23
HETATM   23  C   UNL     1      42.200  -8.274  10.270  1.00  0.00     0.089 A 
HETATM   24  C   UNL     1      42.430  -8.826  11.670  1.00  0.00     0.036 A 
HETATM   25  C   UNL     1      43.579  -8.263  10.874  1.00  0.00     0.025 A 
BRANCH  24  26
HETATM   26  C   UNL     1      41.807  -8.091  12.831  1.00  0.00    -0.015 A 
HETATM   27  C   UNL     1      42.611  -7.497  13.818  1.00  0.00     0.123 A 
HETATM   28  F   UNL     1      43.946  -7.616  13.733  1.00  0.00    -0.206 F 
HETATM   29  C   UNL     1      42.074  -6.790  14.891  1.00  0.00     0.043 A 
HETATM   30  C   UNL     1      40.694  -6.661  15.005  1.00  0.00     0.003 A 
HETATM   31  C   UNL     1      39.865  -7.235  14.042  1.00  0.00     0.001 A 
HETATM   32  C   UNL     1      40.418  -7.937  12.965  1.00  0.00     0.011 A 
ENDBRANCH  24  26
ENDBRANCH  20  23
ENDBRANCH   2  19
TORSDOF 6
ENDMDL
MODEL 7
REMARK VINA RESULT:      -8.0      7.956     12.720
REMARK  6 active torsions:
REMARK  status: ('A' for Active; 'I' for Inactive)
REMARK    1  A    between atoms: O_2  and  C_3 
REMARK    2  A    between atoms: C_6  and  C_7 
REMARK    3  A    between atoms: C_11  and  C_12 
REMARK       I    between atoms: C_12  and  N_13 
REMARK    4  A    between atoms: N_13  and  N_14 
REMARK       I    between atoms: N_14  and  C_15 
REMARK    5  A    between atoms: C_15  and  C_16 
REMARK    6  A    between atoms: C_17  and  C_18 
ROOT
HETATM    1  C   UNL     1      39.666 -13.740  -0.790  1.00  0.00     0.288 C 
HETATM    2  N   UNL     1      40.757 -13.145  -0.195  1.00  0.00    -0.262 N 
HETATM    3  O   UNL     1      39.512 -14.961  -0.796  1.00  0.00    -0.264 OA
HETATM    4  H   UNL     1      40.879 -12.140  -0.106  1.00  0.00     0.190 HD
ENDROOT
BRANCH   1   5
HETATM    5  C   UNL     1      38.731 -12.845  -1.413  1.00  0.00     0.121 A 
HETATM    6  N   UNL     1      38.765 -11.500  -1.174  1.00  0.00    -0.272 N 
HETATM    7  N   UNL     1      37.798 -10.807  -1.790  1.00  0.00    -0.174 NA
HETATM    8  H   UNL     1      39.424 -11.004  -0.581  1.00  0.00     0.189 HD
HETATM    9  C   UNL     1      37.103 -11.728  -2.478  1.00  0.00     0.089 A 
HETATM   10  C   UNL     1      37.668 -13.020  -2.276  1.00  0.00     0.071 A 
BRANCH   9  11
HETATM   11  C   UNL     1      35.923 -11.366  -3.270  1.00  0.00    -0.005 A 
HETATM   12  C   UNL     1      35.046 -12.341  -3.757  1.00  0.00     0.016 A 
HETATM   13  C   UNL     1      33.910 -11.973  -4.486  1.00  0.00     0.037 A 
HETATM   14  C   UNL     1      33.624 -10.629  -4.737  1.00  0.00     0.068 A 
HETATM   15  C   UNL     1      34.501  -9.652  -4.269  1.00  0.00     0.037 A 
HETATM   16  C   UNL     1      35.641 -10.020  -3.544  1.00  0.00     0.016 A 
BRANCH  14  17
HETATM   17  O   UNL     1      32.477 -10.408  -5.446  1.00  0.00    -0.356 OA
HETATM   18  C   UNL     1      32.605 -10.331  -6.861  1.00  0.00     0.210 C 
ENDBRANCH  14  17
ENDBRANCH   9  11
ENDBRANCH   1   5
BRANCH   2  19
HETATM   19  N   UNL     1      41.703 -13.952   0.438  1.00  0.00    -0.267 N 
HETATM   20  C   UNL     1      41.701 -14.033   1.810  1.00  0.00     0.240 C 
HETATM   21  O   UNL     1      40.913 -13.436   2.535  1.00  0.00    -0.271 OA
HETATM   22  H   UNL     1      42.402 -14.408  -0.148  1.00  0.00     0.190 HD
BRANCH  20  23
HETATM   23  C   UNL     1      42.774 -14.898   2.352  1.00  0.00     0.089 A 
HETATM   24  C   UNL     1      42.500 -16.393   2.444  1.00  0.00     0.036 A 
HETATM   25  C   UNL     1      43.545 -15.866   1.494  1.00  0.00     0.025 A 
BRANCH  24  26
HETATM   26  C   UNL     1      42.853 -17.099   3.730  1.00  0.00    -0.015 A 
HETATM   27  C   UNL     1      43.687 -18.229   3.723  1.00  0.00     0.123 A 
HETATM   28  F   UNL     1      44.146 -18.696   2.550  1.00  0.00    -0.206 F 
HETATM   29  C   UNL     1      44.054 -18.892   4.892  1.00  0.00     0.043 A 
HETATM   30  C   UNL     1      43.583 -18.433   6.118  1.00  0.00     0.003 A 
HETATM   31  C   UNL     1      42.756 -17.311   6.162  1.00  0.00     0.001 A 
HETATM   32  C   UNL     1      42.400 -16.651   4.981  1.00  0.00     0.011 A 
ENDBRANCH  24  26
ENDBRANCH  20  23
ENDBRANCH   2  19
TORSDOF 6
ENDMDL
MODEL 8
REMARK VINA RESULT:      -7.9      7.844     10.784
REMARK  6 active torsions:
REMARK  status: ('A' for Active; 'I' for Inactive)
REMARK    1  A    between atoms: O_2  and  C_3 
REMARK    2  A    between atoms: C_6  and  C_7 
REMARK    3  A    between atoms: C_11  and  C_12 
REMARK       I    between atoms: C_12  and  N_13 
REMARK    4  A    between atoms: N_13  and  N_14 
REMARK       I    between atoms: N_14  and  C_15 
REMARK    5  A    between atoms: C_15  and  C_16 
REMARK    6  A    between atoms: C_17  and  C_18 
ROOT
HETATM    1  C   UNL     1      40.432 -13.391  -0.423  1.00  0.00     0.288 C 
HETATM    2  N   UNL     1      41.416 -13.566   0.526  1.00  0.00    -0.262 N 
HETATM    3  O   UNL     1      39.537 -14.218  -0.595  1.00  0.00    -0.264 OA
HETATM    4  H   UNL     1      42.123 -12.871   0.746  1.00  0.00     0.190 HD
ENDROOT
BRANCH   1   5
HETATM    5  C   UNL     1      40.527 -12.189  -1.204  1.00  0.00     0.121 A 
HETATM    6  N   UNL     1      40.233 -12.181  -2.538  1.00  0.00    -0.272 N 
HETATM    7  N   UNL     1      40.418 -10.997  -3.136  1.00  0.00    -0.174 NA
HETATM    8  H   UNL     1      39.916 -12.969  -3.096  1.00  0.00     0.189 HD
HETATM    9  C   UNL     1      40.837 -10.181  -2.155  1.00  0.00     0.089 A 
HETATM   10  C   UNL     1      40.905 -10.891  -0.922  1.00  0.00     0.071 A 
BRANCH   9  11
HETATM   11  C   UNL     1      41.184  -8.780  -2.416  1.00  0.00    -0.005 A 
HETATM   12  C   UNL     1      41.085  -7.806  -1.416  1.00  0.00     0.016 A 
HETATM   13  C   UNL     1      41.450  -6.481  -1.677  1.00  0.00     0.037 A 
HETATM   14  C   UNL     1      41.924  -6.103  -2.936  1.00  0.00     0.068 A 
HETATM   15  C   UNL     1      42.011  -7.063  -3.942  1.00  0.00     0.037 A 
HETATM   16  C   UNL     1      41.641  -8.389  -3.683  1.00  0.00     0.016 A 
BRANCH  14  17
HETATM   17  O   UNL     1      42.258  -4.783  -3.051  1.00  0.00    -0.356 OA
HETATM   18  C   UNL     1      42.947  -4.199  -1.952  1.00  0.00     0.210 C 
ENDBRANCH  14  17
ENDBRANCH   9  11
ENDBRANCH   1   5
BRANCH   2  19
HETATM   19  N   UNL     1      41.382 -14.706   1.329  1.00  0.00    -0.267 N 
HETATM   20  C   UNL     1      42.076 -14.709   2.515  1.00  0.00     0.240 C 
HETATM   21  O   UNL     1      42.737 -13.764   2.930  1.00  0.00    -0.271 OA
HETATM   22  H   UNL     1      40.885 -15.521   0.970  1.00  0.00     0.190 HD
BRANCH  20  23
HETATM   23  C   UNL     1      41.979 -15.990   3.253  1.00  0.00     0.089 A 
HETATM   24  C   UNL     1      43.274 -16.627   3.739  1.00  0.00     0.036 A 
HETATM   25  C   UNL     1      42.265 -16.099   4.727  1.00  0.00     0.025 A 
BRANCH  24  26
HETATM   26  C   UNL     1      43.472 -18.102   3.491  1.00  0.00    -0.015 A 
HETATM   27  C   UNL     1      43.958 -18.941   4.507  1.00  0.00     0.123 A 
HETATM   28  F   UNL     1      44.274 -18.410   5.699  1.00  0.00    -0.206 F 
HETATM   29  C   UNL     1      44.132 -20.311   4.322  1.00  0.00     0.043 A 
HETATM   30  C   UNL     1      43.821 -20.883   3.093  1.00  0.00     0.003 A 
HETATM   31  C   UNL     1      43.334 -20.080   2.062  1.00  0.00     0.001 A 
HETATM   32  C   UNL     1      43.157 -18.706   2.263  1.00  0.00     0.011 A 
ENDBRANCH  24  26
ENDBRANCH  20  23
ENDBRANCH   2  19
TORSDOF 6
ENDMDL
MODEL 9
REMARK VINA RESULT:      -7.9      8.760     11.942
REMARK  6 active torsions:
REMARK  status: ('A' for Active; 'I' for Inactive)
REMARK    1  A    between atoms: O_2  and  C_3 
REMARK    2  A    between atoms: C_6  and  C_7 
REMARK    3  A    between atoms: C_11  and  C_12 
REMARK       I    between atoms: C_12  and  N_13 
REMARK    4  A    between atoms: N_13  and  N_14 
REMARK       I    between atoms: N_14  and  C_15 
REMARK    5  A    between atoms: C_15  and  C_16 
REMARK    6  A    between atoms: C_17  and  C_18 
ROOT
HETATM    1  C   UNL     1      41.263 -12.599   0.773  1.00  0.00     0.288 C 
HETATM    2  N   UNL     1      41.068 -12.457  -0.584  1.00  0.00    -0.262 N 
HETATM    3  O   UNL     1      41.272 -11.633   1.534  1.00  0.00    -0.264 OA
HETATM    4  H   UNL     1      40.979 -13.236  -1.230  1.00  0.00     0.190 HD
ENDROOT
BRANCH   1   5
HETATM    5  C   UNL     1      41.467 -13.944   1.235  1.00  0.00     0.121 A 
HETATM    6  N   UNL     1      40.473 -14.880   1.166  1.00  0.00    -0.272 N 
HETATM    7  N   UNL     1      40.803 -16.071   1.682  1.00  0.00    -0.174 NA
HETATM    8  H   UNL     1      39.540 -14.749   0.787  1.00  0.00     0.189 HD
HETATM    9  C   UNL     1      42.072 -15.925   2.097  1.00  0.00     0.089 A 
HETATM   10  C   UNL     1      42.528 -14.604   1.821  1.00  0.00     0.071 A 
BRANCH   9  11
HETATM   11  C   UNL     1      42.794 -17.016   2.760  1.00  0.00    -0.005 A 
HETATM   12  C   UNL     1      43.355 -16.850   4.031  1.00  0.00     0.016 A 
HETATM   13  C   UNL     1      44.014 -17.914   4.659  1.00  0.00     0.037 A 
HETATM   14  C   UNL     1      44.120 -19.159   4.036  1.00  0.00     0.068 A 
HETATM   15  C   UNL     1      43.578 -19.327   2.764  1.00  0.00     0.037 A 
HETATM   16  C   UNL     1      42.922 -18.263   2.132  1.00  0.00     0.016 A 
BRANCH  14  17
HETATM   17  O   UNL     1      44.774 -20.112   4.765  1.00  0.00    -0.356 OA
HETATM   18  C   UNL     1      43.966 -21.008   5.518  1.00  0.00     0.210 C 
ENDBRANCH  14  17
ENDBRANCH   9  11
ENDBRANCH   1   5
BRANCH   2  19
HETATM   19  N   UNL     1      40.854 -11.180  -1.104  1.00  0.00    -0.267 N 
HETATM   20  C   UNL     1      40.757 -11.021  -2.465  1.00  0.00     0.240 C 
HETATM   21  O   UNL     1      40.845 -11.937  -3.275  1.00  0.00    -0.271 OA
HETATM   22  H   UNL     1      40.837 -10.401  -0.447  1.00  0.00     0.190 HD
BRANCH  20  23
HETATM   23  C   UNL     1      40.560  -9.614  -2.883  1.00  0.00     0.089 A 
HETATM   24  C   UNL     1      41.710  -8.920  -3.601  1.00  0.00     0.036 A 
HETATM   25  C   UNL     1      40.421  -9.209  -4.326  1.00  0.00     0.025 A 
BRANCH  24  26
HETATM   26  C   UNL     1      42.093  -7.533  -3.146  1.00  0.00    -0.015 A 
HETATM   27  C   UNL     1      43.055  -7.350  -2.139  1.00  0.00     0.123 A 
HETATM   28  F   UNL     1      43.612  -8.427  -1.561  1.00  0.00    -0.206 F 
HETATM   29  C   UNL     1      43.453  -6.086  -1.710  1.00  0.00     0.043 A 
HETATM   30  C   UNL     1      42.884  -4.954  -2.287  1.00  0.00     0.003 A 
HETATM   31  C   UNL     1      41.928  -5.100  -3.292  1.00  0.00     0.001 A 
HETATM   32  C   UNL     1      41.542  -6.376  -3.718  1.00  0.00     0.011 A 
ENDBRANCH  24  26
ENDBRANCH  20  23
ENDBRANCH   2  19
TORSDOF 6
ENDMDL
MODEL 10
REMARK VINA RESULT:      -7.7      7.444     12.353
REMARK  6 active torsions:
REMARK  status: ('A' for Active; 'I' for Inactive)
REMARK    1  A    between atoms: O_2  and  C_3 
REMARK    2  A    between atoms: C_6  and  C_7 
REMARK    3  A    between atoms: C_11  and  C_12 
REMARK       I    between atoms: C_12  and  N_13 
REMARK    4  A    between atoms: N_13  and  N_14 
REMARK       I    between atoms: N_14  and  C_15 
REMARK    5  A    between atoms: C_15  and  C_16 
REMARK    6  A    between atoms: C_17  and  C_18 
ROOT
HETATM    1  C   UNL     1      40.194 -12.552  -0.104  1.00  0.00     0.288 C 
HETATM    2  N   UNL     1      40.717 -13.796  -0.385  1.00  0.00    -0.262 N 
HETATM    3  O   UNL     1      40.525 -11.916   0.896  1.00  0.00    -0.264 OA
HETATM    4  H   UNL     1      40.524 -14.315  -1.237  1.00  0.00     0.190 HD
ENDROOT
BRANCH   1   5
HETATM    5  C   UNL     1      39.230 -12.055  -1.046  1.00  0.00     0.121 A 
HETATM    6  N   UNL     1      39.572 -11.136  -1.998  1.00  0.00    -0.272 N 
HETATM    7  N   UNL     1      38.552 -10.735  -2.768  1.00  0.00    -0.174 NA
HETATM    8  H   UNL     1      40.492 -10.735  -2.153  1.00  0.00     0.189 HD
HETATM    9  C   UNL     1      37.493 -11.429  -2.320  1.00  0.00     0.089 A 
HETATM   10  C   UNL     1      37.882 -12.279  -1.246  1.00  0.00     0.071 A 
BRANCH   9  11
HETATM   11  C   UNL     1      36.156 -11.246  -2.894  1.00  0.00    -0.005 A 
HETATM   12  C   UNL     1      35.502 -10.010  -2.837  1.00  0.00     0.016 A 
HETATM   13  C   UNL     1      34.239  -9.849  -3.418  1.00  0.00     0.037 A 
HETATM   14  C   UNL     1      33.608 -10.911  -4.070  1.00  0.00     0.068 A 
HETATM   15  C   UNL     1      34.246 -12.149  -4.118  1.00  0.00     0.037 A 
HETATM   16  C   UNL     1      35.508 -12.314  -3.532  1.00  0.00     0.016 A 
BRANCH  14  17
HETATM   17  O   UNL     1      32.387 -10.614  -4.605  1.00  0.00    -0.356 OA
HETATM   18  C   UNL     1      31.423 -10.049  -3.724  1.00  0.00     0.210 C 
ENDBRANCH  14  17
ENDBRANCH   9  11
ENDBRANCH   1   5
BRANCH   2  19
HETATM   19  N   UNL     1      41.666 -14.338   0.482  1.00  0.00    -0.267 N 
HETATM   20  C   UNL     1      41.297 -15.363   1.320  1.00  0.00     0.240 C 
HETATM   21  O   UNL     1      40.172 -15.848   1.364  1.00  0.00    -0.271 OA
HETATM   22  H   UNL     1      42.590 -13.907   0.499  1.00  0.00     0.190 HD
BRANCH  20  23
HETATM   23  C   UNL     1      42.390 -15.824   2.206  1.00  0.00     0.089 A 
HETATM   24  C   UNL     1      42.062 -16.892   3.241  1.00  0.00     0.036 A 
HETATM   25  C   UNL     1      42.996 -17.198   2.098  1.00  0.00     0.025 A 
BRANCH  24  26
HETATM   26  C   UNL     1      42.548 -16.681   4.654  1.00  0.00    -0.015 A 
HETATM   27  C   UNL     1      41.637 -16.453   5.698  1.00  0.00     0.123 A 
HETATM   28  F   UNL     1      40.325 -16.395   5.421  1.00  0.00    -0.206 F 
HETATM   29  C   UNL     1      42.046 -16.278   7.018  1.00  0.00     0.043 A 
HETATM   30  C   UNL     1      43.401 -16.325   7.329  1.00  0.00     0.003 A 
HETATM   31  C   UNL     1      44.333 -16.552   6.317  1.00  0.00     0.001 A 
HETATM   32  C   UNL     1      43.908 -16.733   4.996  1.00  0.00     0.011 A 
ENDBRANCH  24  26
ENDBRANCH  20  23
ENDBRANCH   2  19
TORSDOF 6
ENDMDL
