MODEL 1
REMARK VINA RESULT:      -9.7      0.000      0.000
REMARK  3 active torsions:
REMARK  status: ('A' for Active; 'I' for Inactive)
REMARK    1  A    between atoms: N_3  and  C_4 
REMARK    2  A    between atoms: C_6  and  C_7 
REMARK       I    between atoms: C_7  and  N_8 
REMARK    3  A    between atoms: N_8  and  C_9 
ROOT
HETATM    1  C   UNL     1      41.753 -10.758   2.748  1.00  0.00     0.072 C 
HETATM    2  C   UNL     1      41.892 -11.083   4.250  1.00  0.00     0.149 C 
HETATM    3  N   UNL     1      41.080 -12.260   4.648  1.00  0.00    -0.267 N 
HETATM    4  C   UNL     1      40.509 -12.356   5.913  1.00  0.00     0.326 C 
HETATM    5  O   UNL     1      39.871 -13.316   6.341  1.00  0.00    -0.247 OA
HETATM    6  N   UNL     1      40.680 -11.286   6.744  1.00  0.00    -0.334 N 
HETATM    7  O   UNL     1      43.294 -11.344   4.475  1.00  0.00    -0.319 OA
HETATM    8  C   UNL     1      43.771 -11.115   5.735  1.00  0.00     0.080 A 
HETATM    9  C   UNL     1      42.991 -10.559   6.755  1.00  0.00    -0.002 A 
HETATM   10  C   UNL     1      45.106 -11.442   5.964  1.00  0.00     0.037 A 
HETATM   11  C   UNL     1      45.668 -11.231   7.223  1.00  0.00     0.003 A 
HETATM   12  C   UNL     1      44.892 -10.699   8.252  1.00  0.00     0.001 A 
HETATM   13  C   UNL     1      43.555 -10.367   8.023  1.00  0.00     0.012 A 
HETATM   14  C   UNL     1      41.434  -9.828   5.003  1.00  0.00     0.092 C 
HETATM   15  C   UNL     1      41.565 -10.189   6.462  1.00  0.00     0.127 C 
HETATM   16  H   UNL     1      40.368 -11.456   7.692  1.00  0.00     0.165 HD
ENDROOT
BRANCH   3  17
HETATM   17  C   UNL     1      41.012 -13.400   3.791  1.00  0.00     0.043 A 
HETATM   18  C   UNL     1      42.083 -14.294   3.683  1.00  0.00     0.047 A 
HETATM   19  C   UNL     1      41.975 -15.410   2.842  1.00  0.00     0.034 A 
HETATM   20  C   UNL     1      40.833 -15.609   2.063  1.00  0.00     0.017 A 
HETATM   21  C   UNL     1      39.763 -14.725   2.174  1.00  0.00     0.003 A 
HETATM   22  C   UNL     1      39.844 -13.640   3.052  1.00  0.00     0.030 A 
BRANCH  19  23
HETATM   23  C   UNL     1      43.043 -16.434   2.800  1.00  0.00     0.252 C 
HETATM   24  N   UNL     1      42.951 -17.400   3.778  1.00  0.00    -0.352 N 
HETATM   25  H   UNL     1      42.201 -17.344   4.456  1.00  0.00     0.163 HD
HETATM   26  O   UNL     1      43.881 -16.416   1.909  1.00  0.00    -0.268 OA
BRANCH  24  27
HETATM   27  C   UNL     1      43.876 -18.509   3.857  1.00  0.00     0.084 C 
HETATM   28  C   UNL     1      43.884 -19.159   5.236  1.00  0.00     0.025 C 
HETATM   29  C   UNL     1      44.502 -20.519   4.961  1.00  0.00     0.002 C 
HETATM   30  C   UNL     1      43.890 -20.944   3.631  1.00  0.00     0.002 C 
HETATM   31  C   UNL     1      43.505 -19.653   2.909  1.00  0.00     0.025 C 
ENDBRANCH  24  27
ENDBRANCH  19  23
ENDBRANCH   3  17
TORSDOF 3
ENDMDL
MODEL 2
REMARK VINA RESULT:      -9.4      2.255      5.016
REMARK  3 active torsions:
REMARK  status: ('A' for Active; 'I' for Inactive)
REMARK    1  A    between atoms: N_3  and  C_4 
REMARK    2  A    between atoms: C_6  and  C_7 
REMARK       I    between atoms: C_7  and  N_8 
REMARK    3  A    between atoms: N_8  and  C_9 
ROOT
HETATM    1  C   UNL     1      39.485 -12.726   4.863  1.00  0.00     0.072 C 
HETATM    2  C   UNL     1      40.285 -12.522   3.559  1.00  0.00     0.149 C 
HETATM    3  N   UNL     1      41.745 -12.419   3.804  1.00  0.00    -0.267 N 
HETATM    4  C   UNL     1      42.562 -11.621   3.011  1.00  0.00     0.326 C 
HETATM    5  O   UNL     1      43.783 -11.522   3.110  1.00  0.00    -0.247 OA
HETATM    6  N   UNL     1      41.943 -10.890   2.038  1.00  0.00    -0.334 N 
HETATM    7  O   UNL     1      39.997 -13.668   2.730  1.00  0.00    -0.319 OA
HETATM    8  C   UNL     1      40.105 -13.495   1.378  1.00  0.00     0.080 A 
HETATM    9  C   UNL     1      40.381 -12.257   0.788  1.00  0.00    -0.002 A 
HETATM   10  C   UNL     1      39.901 -14.626   0.588  1.00  0.00     0.037 A 
HETATM   11  C   UNL     1      39.989 -14.529  -0.800  1.00  0.00     0.003 A 
HETATM   12  C   UNL     1      40.286 -13.303  -1.395  1.00  0.00     0.001 A 
HETATM   13  C   UNL     1      40.487 -12.170  -0.606  1.00  0.00     0.012 A 
HETATM   14  C   UNL     1      39.749 -11.231   2.928  1.00  0.00     0.092 C 
HETATM   15  C   UNL     1      40.563 -11.054   1.670  1.00  0.00     0.127 C 
HETATM   16  H   UNL     1      42.587 -10.434   1.403  1.00  0.00     0.165 HD
ENDROOT
BRANCH   3  17
HETATM   17  C   UNL     1      42.368 -13.277   4.761  1.00  0.00     0.043 A 
HETATM   18  C   UNL     1      42.823 -14.552   4.409  1.00  0.00     0.047 A 
HETATM   19  C   UNL     1      43.441 -15.360   5.371  1.00  0.00     0.034 A 
HETATM   20  C   UNL     1      43.555 -14.933   6.696  1.00  0.00     0.017 A 
HETATM   21  C   UNL     1      43.110 -13.661   7.048  1.00  0.00     0.003 A 
HETATM   22  C   UNL     1      42.541 -12.830   6.080  1.00  0.00     0.030 A 
BRANCH  19  23
HETATM   23  C   UNL     1      44.038 -16.662   4.998  1.00  0.00     0.252 C 
HETATM   24  N   UNL     1      43.480 -17.253   3.886  1.00  0.00    -0.352 N 
HETATM   25  H   UNL     1      42.708 -16.792   3.420  1.00  0.00     0.163 HD
HETATM   26  O   UNL     1      44.994 -17.104   5.622  1.00  0.00    -0.268 OA
BRANCH  24  27
HETATM   27  C   UNL     1      43.972 -18.501   3.345  1.00  0.00     0.084 C 
HETATM   28  C   UNL     1      43.775 -19.667   4.308  1.00  0.00     0.025 C 
HETATM   29  C   UNL     1      43.888 -20.876   3.394  1.00  0.00     0.002 C 
HETATM   30  C   UNL     1      43.150 -20.457   2.128  1.00  0.00     0.002 C 
HETATM   31  C   UNL     1      43.220 -18.930   2.082  1.00  0.00     0.025 C 
ENDBRANCH  24  27
ENDBRANCH  19  23
ENDBRANCH   3  17
TORSDOF 3
ENDMDL
MODEL 3
REMARK VINA RESULT:      -9.4      3.016      8.188
REMARK  3 active torsions:
REMARK  status: ('A' for Active; 'I' for Inactive)
REMARK    1  A    between atoms: N_3  and  C_4 
REMARK    2  A    between atoms: C_6  and  C_7 
REMARK       I    between atoms: C_7  and  N_8 
REMARK    3  A    between atoms: N_8  and  C_9 
ROOT
HETATM    1  C   UNL     1      43.246 -15.089   7.863  1.00  0.00     0.072 C 
HETATM    2  C   UNL     1      42.458 -14.749   6.581  1.00  0.00     0.149 C 
HETATM    3  N   UNL     1      42.308 -13.286   6.384  1.00  0.00    -0.267 N 
HETATM    4  C   UNL     1      41.179 -12.744   5.778  1.00  0.00     0.326 C 
HETATM    5  O   UNL     1      41.000 -11.554   5.528  1.00  0.00    -0.247 OA
HETATM    6  N   UNL     1      40.191 -13.620   5.432  1.00  0.00    -0.334 N 
HETATM    7  O   UNL     1      43.203 -15.326   5.488  1.00  0.00    -0.319 OA
HETATM    8  C   UNL     1      42.498 -15.656   4.364  1.00  0.00     0.080 A 
HETATM    9  C   UNL     1      41.106 -15.546   4.280  1.00  0.00    -0.002 A 
HETATM   10  C   UNL     1      43.236 -16.141   3.286  1.00  0.00     0.037 A 
HETATM   11  C   UNL     1      42.587 -16.504   2.106  1.00  0.00     0.003 A 
HETATM   12  C   UNL     1      41.202 -16.376   2.006  1.00  0.00     0.001 A 
HETATM   13  C   UNL     1      40.461 -15.895   3.086  1.00  0.00     0.012 A 
HETATM   14  C   UNL     1      41.086 -15.419   6.732  1.00  0.00     0.092 C 
HETATM   15  C   UNL     1      40.340 -15.050   5.474  1.00  0.00     0.127 C 
HETATM   16  H   UNL     1      39.456 -13.203   4.875  1.00  0.00     0.165 HD
ENDROOT
BRANCH   3  17
HETATM   17  C   UNL     1      43.405 -12.414   6.663  1.00  0.00     0.043 A 
HETATM   18  C   UNL     1      43.489 -11.715   7.871  1.00  0.00     0.047 A 
HETATM   19  C   UNL     1      44.586 -10.878   8.116  1.00  0.00     0.034 A 
HETATM   20  C   UNL     1      45.569 -10.687   7.141  1.00  0.00     0.017 A 
HETATM   21  C   UNL     1      45.491 -11.387   5.940  1.00  0.00     0.003 A 
HETATM   22  C   UNL     1      44.427 -12.264   5.713  1.00  0.00     0.030 A 
BRANCH  19  23
HETATM   23  C   UNL     1      44.762 -10.222   9.430  1.00  0.00     0.252 C 
HETATM   24  N   UNL     1      43.682 -10.335  10.278  1.00  0.00    -0.352 N 
HETATM   25  H   UNL     1      42.854 -10.823   9.958  1.00  0.00     0.163 HD
HETATM   26  O   UNL     1      45.826  -9.689   9.717  1.00  0.00    -0.268 OA
BRANCH  24  27
HETATM   27  C   UNL     1      43.696  -9.802  11.622  1.00  0.00     0.084 C 
HETATM   28  C   UNL     1      43.417  -8.303  11.654  1.00  0.00     0.025 C 
HETATM   29  C   UNL     1      43.004  -8.071  13.098  1.00  0.00     0.002 C 
HETATM   30  C   UNL     1      42.141  -9.281  13.437  1.00  0.00     0.002 C 
HETATM   31  C   UNL     1      42.598 -10.403  12.505  1.00  0.00     0.025 C 
ENDBRANCH  24  27
ENDBRANCH  19  23
ENDBRANCH   3  17
TORSDOF 3
ENDMDL
MODEL 4
REMARK VINA RESULT:      -9.2      2.889      6.322
REMARK  3 active torsions:
REMARK  status: ('A' for Active; 'I' for Inactive)
REMARK    1  A    between atoms: N_3  and  C_4 
REMARK    2  A    between atoms: C_6  and  C_7 
REMARK       I    between atoms: C_7  and  N_8 
REMARK    3  A    between atoms: N_8  and  C_9 
ROOT
HETATM    1  C   UNL     1      43.409 -11.985   4.863  1.00  0.00     0.072 C 
HETATM    2  C   UNL     1      42.869 -13.422   5.022  1.00  0.00     0.149 C 
HETATM    3  N   UNL     1      41.442 -13.444   5.429  1.00  0.00    -0.267 N 
HETATM    4  C   UNL     1      40.932 -14.451   6.243  1.00  0.00     0.326 C 
HETATM    5  O   UNL     1      39.757 -14.575   6.582  1.00  0.00    -0.247 OA
HETATM    6  N   UNL     1      41.824 -15.379   6.698  1.00  0.00    -0.334 N 
HETATM    7  O   UNL     1      43.031 -14.055   3.735  1.00  0.00    -0.319 OA
HETATM    8  C   UNL     1      43.159 -15.417   3.728  1.00  0.00     0.080 A 
HETATM    9  C   UNL     1      43.234 -16.180   4.897  1.00  0.00    -0.002 A 
HETATM   10  C   UNL     1      43.237 -16.028   2.478  1.00  0.00     0.037 A 
HETATM   11  C   UNL     1      43.374 -17.413   2.388  1.00  0.00     0.003 A 
HETATM   12  C   UNL     1      43.428 -18.184   3.548  1.00  0.00     0.001 A 
HETATM   13  C   UNL     1      43.354 -17.573   4.801  1.00  0.00     0.012 A 
HETATM   14  C   UNL     1      43.747 -14.093   6.085  1.00  0.00     0.092 C 
HETATM   15  C   UNL     1      43.179 -15.484   6.228  1.00  0.00     0.127 C 
HETATM   16  H   UNL     1      41.389 -16.163   7.169  1.00  0.00     0.165 HD
ENDROOT
BRANCH   3  17
HETATM   17  C   UNL     1      40.522 -12.518   4.850  1.00  0.00     0.043 A 
HETATM   18  C   UNL     1      40.119 -12.630   3.516  1.00  0.00     0.047 A 
HETATM   19  C   UNL     1      39.204 -11.712   2.985  1.00  0.00     0.034 A 
HETATM   20  C   UNL     1      38.735 -10.646   3.756  1.00  0.00     0.017 A 
HETATM   21  C   UNL     1      39.128 -10.536   5.087  1.00  0.00     0.003 A 
HETATM   22  C   UNL     1      39.998 -11.481   5.637  1.00  0.00     0.030 A 
BRANCH  19  23
HETATM   23  C   UNL     1      38.670 -11.878   1.615  1.00  0.00     0.252 C 
HETATM   24  N   UNL     1      39.523 -12.510   0.738  1.00  0.00    -0.352 N 
HETATM   25  H   UNL     1      40.440 -12.794   1.062  1.00  0.00     0.163 HD
HETATM   26  O   UNL     1      37.530 -11.521   1.350  1.00  0.00    -0.268 OA
BRANCH  24  27
HETATM   27  C   UNL     1      39.149 -12.805  -0.627  1.00  0.00     0.084 C 
HETATM   28  C   UNL     1      39.864 -11.908  -1.632  1.00  0.00     0.025 C 
HETATM   29  C   UNL     1      39.717 -12.680  -2.932  1.00  0.00     0.002 C 
HETATM   30  C   UNL     1      39.926 -14.134  -2.528  1.00  0.00     0.002 C 
HETATM   31  C   UNL     1      39.541 -14.224  -1.051  1.00  0.00     0.025 C 
ENDBRANCH  24  27
ENDBRANCH  19  23
ENDBRANCH   3  17
TORSDOF 3
ENDMDL
MODEL 5
REMARK VINA RESULT:      -9.2      2.650      8.221
REMARK  3 active torsions:
REMARK  status: ('A' for Active; 'I' for Inactive)
REMARK    1  A    between atoms: N_3  and  C_4 
REMARK    2  A    between atoms: C_6  and  C_7 
REMARK       I    between atoms: C_7  and  N_8 
REMARK    3  A    between atoms: N_8  and  C_9 
ROOT
HETATM    1  C   UNL     1      40.575 -13.214   6.241  1.00  0.00     0.072 C 
HETATM    2  C   UNL     1      41.405 -13.408   4.955  1.00  0.00     0.149 C 
HETATM    3  N   UNL     1      42.386 -12.314   4.748  1.00  0.00    -0.267 N 
HETATM    4  C   UNL     1      42.741 -11.885   3.473  1.00  0.00     0.326 C 
HETATM    5  O   UNL     1      43.582 -11.028   3.212  1.00  0.00    -0.247 OA
HETATM    6  N   UNL     1      42.094 -12.477   2.427  1.00  0.00    -0.334 N 
HETATM    7  O   UNL     1      42.088 -14.671   5.106  1.00  0.00    -0.319 OA
HETATM    8  C   UNL     1      42.425 -15.332   3.958  1.00  0.00     0.080 A 
HETATM    9  C   UNL     1      42.053 -14.886   2.685  1.00  0.00    -0.002 A 
HETATM   10  C   UNL     1      43.152 -16.512   4.110  1.00  0.00     0.037 A 
HETATM   11  C   UNL     1      43.528 -17.247   2.986  1.00  0.00     0.003 A 
HETATM   12  C   UNL     1      43.181 -16.798   1.713  1.00  0.00     0.001 A 
HETATM   13  C   UNL     1      42.449 -15.619   1.559  1.00  0.00     0.012 A 
HETATM   14  C   UNL     1      40.396 -13.457   3.800  1.00  0.00     0.092 C 
HETATM   15  C   UNL     1      41.242 -13.628   2.562  1.00  0.00     0.127 C 
HETATM   16  H   UNL     1      42.479 -12.235   1.523  1.00  0.00     0.165 HD
ENDROOT
BRANCH   3  17
HETATM   17  C   UNL     1      43.117 -11.794   5.860  1.00  0.00     0.043 A 
HETATM   18  C   UNL     1      42.538 -10.881   6.747  1.00  0.00     0.047 A 
HETATM   19  C   UNL     1      43.281 -10.401   7.834  1.00  0.00     0.034 A 
HETATM   20  C   UNL     1      44.614 -10.778   8.009  1.00  0.00     0.017 A 
HETATM   21  C   UNL     1      45.191 -11.692   7.131  1.00  0.00     0.003 A 
HETATM   22  C   UNL     1      44.438 -12.215   6.077  1.00  0.00     0.030 A 
BRANCH  19  23
HETATM   23  C   UNL     1      42.656  -9.530   8.855  1.00  0.00     0.252 C 
HETATM   24  N   UNL     1      42.804  -9.968  10.153  1.00  0.00    -0.352 N 
HETATM   25  H   UNL     1      43.293 -10.838  10.325  1.00  0.00     0.163 HD
HETATM   26  O   UNL     1      42.117  -8.482   8.526  1.00  0.00    -0.268 OA
BRANCH  24  27
HETATM   27  C   UNL     1      42.305  -9.217  11.283  1.00  0.00     0.084 C 
HETATM   28  C   UNL     1      42.189 -10.070  12.541  1.00  0.00     0.025 C 
HETATM   29  C   UNL     1      42.137  -9.030  13.647  1.00  0.00     0.002 C 
HETATM   30  C   UNL     1      43.148  -7.975  13.215  1.00  0.00     0.002 C 
HETATM   31  C   UNL     1      43.244  -8.078  11.692  1.00  0.00     0.025 C 
ENDBRANCH  24  27
ENDBRANCH  19  23
ENDBRANCH   3  17
TORSDOF 3
ENDMDL
MODEL 6
REMARK VINA RESULT:      -9.1      2.553      8.234
REMARK  3 active torsions:
REMARK  status: ('A' for Active; 'I' for Inactive)
REMARK    1  A    between atoms: N_3  and  C_4 
REMARK    2  A    between atoms: C_6  and  C_7 
REMARK       I    between atoms: C_7  and  N_8 
REMARK    3  A    between atoms: N_8  and  C_9 
ROOT
HETATM    1  C   UNL     1      40.552 -14.803   6.273  1.00  0.00     0.072 C 
HETATM    2  C   UNL     1      41.482 -15.154   5.093  1.00  0.00     0.149 C 
HETATM    3  N   UNL     1      42.212 -13.968   4.580  1.00  0.00    -0.267 N 
HETATM    4  C   UNL     1      42.543 -13.843   3.234  1.00  0.00     0.326 C 
HETATM    5  O   UNL     1      43.191 -12.924   2.737  1.00  0.00    -0.247 OA
HETATM    6  N   UNL     1      42.107 -14.834   2.403  1.00  0.00    -0.334 N 
HETATM    7  O   UNL     1      42.415 -16.135   5.597  1.00  0.00    -0.319 OA
HETATM    8  C   UNL     1      42.959 -16.996   4.685  1.00  0.00     0.080 A 
HETATM    9  C   UNL     1      42.579 -17.019   3.339  1.00  0.00    -0.002 A 
HETATM   10  C   UNL     1      43.916 -17.888   5.165  1.00  0.00     0.037 A 
HETATM   11  C   UNL     1      44.513 -18.802   4.297  1.00  0.00     0.003 A 
HETATM   12  C   UNL     1      44.156 -18.817   2.949  1.00  0.00     0.001 A 
HETATM   13  C   UNL     1      43.195 -17.926   2.467  1.00  0.00     0.012 A 
HETATM   14  C   UNL     1      40.583 -15.751   4.004  1.00  0.00     0.092 C 
HETATM   15  C   UNL     1      41.521 -16.064   2.863  1.00  0.00     0.127 C 
HETATM   16  H   UNL     1      42.485 -14.772   1.466  1.00  0.00     0.165 HD
ENDROOT
BRANCH   3  17
HETATM   17  C   UNL     1      42.740 -13.006   5.494  1.00  0.00     0.043 A 
HETATM   18  C   UNL     1      42.065 -11.812   5.764  1.00  0.00     0.047 A 
HETATM   19  C   UNL     1      42.607 -10.897   6.677  1.00  0.00     0.034 A 
HETATM   20  C   UNL     1      43.846 -11.136   7.276  1.00  0.00     0.017 A 
HETATM   21  C   UNL     1      44.517 -12.328   7.014  1.00  0.00     0.003 A 
HETATM   22  C   UNL     1      43.955 -13.267   6.146  1.00  0.00     0.030 A 
BRANCH  19  23
HETATM   23  C   UNL     1      41.857  -9.684   7.072  1.00  0.00     0.252 C 
HETATM   24  N   UNL     1      41.217  -9.775   8.289  1.00  0.00    -0.352 N 
HETATM   25  H   UNL     1      41.275 -10.641   8.812  1.00  0.00     0.163 HD
HETATM   26  O   UNL     1      41.886  -8.684   6.368  1.00  0.00    -0.268 OA
BRANCH  24  27
HETATM   27  C   UNL     1      40.481  -8.669   8.859  1.00  0.00     0.084 C 
HETATM   28  C   UNL     1      39.153  -9.108   9.466  1.00  0.00     0.025 C 
HETATM   29  C   UNL     1      38.810  -7.952  10.391  1.00  0.00     0.002 C 
HETATM   30  C   UNL     1      40.146  -7.568  11.017  1.00  0.00     0.002 C 
HETATM   31  C   UNL     1      41.222  -8.008  10.024  1.00  0.00     0.025 C 
ENDBRANCH  24  27
ENDBRANCH  19  23
ENDBRANCH   3  17
TORSDOF 3
ENDMDL
MODEL 7
REMARK VINA RESULT:      -8.9      2.574      7.730
REMARK  3 active torsions:
REMARK  status: ('A' for Active; 'I' for Inactive)
REMARK    1  A    between atoms: N_3  and  C_4 
REMARK    2  A    between atoms: C_6  and  C_7 
REMARK       I    between atoms: C_7  and  N_8 
REMARK    3  A    between atoms: N_8  and  C_9 
ROOT
HETATM    1  C   UNL     1      43.769 -13.388   5.296  1.00  0.00     0.072 C 
HETATM    2  C   UNL     1      43.251 -14.836   5.424  1.00  0.00     0.149 C 
HETATM    3  N   UNL     1      41.841 -14.889   5.885  1.00  0.00    -0.267 N 
HETATM    4  C   UNL     1      41.374 -15.931   6.681  1.00  0.00     0.326 C 
HETATM    5  O   UNL     1      40.214 -16.080   7.059  1.00  0.00    -0.247 OA
HETATM    6  N   UNL     1      42.293 -16.864   7.068  1.00  0.00    -0.334 N 
HETATM    7  O   UNL     1      43.369 -15.421   4.110  1.00  0.00    -0.319 OA
HETATM    8  C   UNL     1      43.511 -16.780   4.049  1.00  0.00     0.080 A 
HETATM    9  C   UNL     1      43.640 -17.583   5.186  1.00  0.00    -0.002 A 
HETATM   10  C   UNL     1      43.547 -17.345   2.775  1.00  0.00     0.037 A 
HETATM   11  C   UNL     1      43.696 -18.724   2.631  1.00  0.00     0.003 A 
HETATM   12  C   UNL     1      43.803 -19.535   3.760  1.00  0.00     0.001 A 
HETATM   13  C   UNL     1      43.771 -18.970   5.036  1.00  0.00     0.012 A 
HETATM   14  C   UNL     1      44.177 -15.534   6.428  1.00  0.00     0.092 C 
HETATM   15  C   UNL     1      43.629 -16.935   6.542  1.00  0.00     0.127 C 
HETATM   16  H   UNL     1      41.885 -17.668   7.526  1.00  0.00     0.165 HD
ENDROOT
BRANCH   3  17
HETATM   17  C   UNL     1      40.889 -13.955   5.375  1.00  0.00     0.043 A 
HETATM   18  C   UNL     1      40.364 -12.938   6.180  1.00  0.00     0.047 A 
HETATM   19  C   UNL     1      39.442 -12.031   5.643  1.00  0.00     0.034 A 
HETATM   20  C   UNL     1      38.994 -12.165   4.326  1.00  0.00     0.017 A 
HETATM   21  C   UNL     1      39.520 -13.171   3.521  1.00  0.00     0.003 A 
HETATM   22  C   UNL     1      40.480 -14.046   4.036  1.00  0.00     0.030 A 
BRANCH  19  23
HETATM   23  C   UNL     1      38.964 -10.876   6.435  1.00  0.00     0.252 C 
HETATM   24  N   UNL     1      39.769 -10.537   7.500  1.00  0.00    -0.352 N 
HETATM   25  H   UNL     1      40.597 -11.089   7.686  1.00  0.00     0.163 HD
HETATM   26  O   UNL     1      37.961 -10.265   6.092  1.00  0.00    -0.268 OA
BRANCH  24  27
HETATM   27  C   UNL     1      39.486  -9.403   8.352  1.00  0.00     0.084 C 
HETATM   28  C   UNL     1      39.016  -9.824   9.740  1.00  0.00     0.025 C 
HETATM   29  C   UNL     1      39.251  -8.571  10.566  1.00  0.00     0.002 C 
HETATM   30  C   UNL     1      40.582  -8.032  10.055  1.00  0.00     0.002 C 
HETATM   31  C   UNL     1      40.726  -8.547   8.623  1.00  0.00     0.025 C 
ENDBRANCH  24  27
ENDBRANCH  19  23
ENDBRANCH   3  17
TORSDOF 3
ENDMDL
MODEL 8
REMARK VINA RESULT:      -8.6      2.668      7.878
REMARK  3 active torsions:
REMARK  status: ('A' for Active; 'I' for Inactive)
REMARK    1  A    between atoms: N_3  and  C_4 
REMARK    2  A    between atoms: C_6  and  C_7 
REMARK       I    between atoms: C_7  and  N_8 
REMARK    3  A    between atoms: N_8  and  C_9 
ROOT
HETATM    1  C   UNL     1      39.731 -12.385   4.613  1.00  0.00     0.072 C 
HETATM    2  C   UNL     1      41.107 -13.045   4.385  1.00  0.00     0.149 C 
HETATM    3  N   UNL     1      42.207 -12.051   4.340  1.00  0.00    -0.267 N 
HETATM    4  C   UNL     1      43.329 -12.240   3.539  1.00  0.00     0.326 C 
HETATM    5  O   UNL     1      44.306 -11.497   3.485  1.00  0.00    -0.247 OA
HETATM    6  N   UNL     1      43.335 -13.355   2.750  1.00  0.00    -0.334 N 
HETATM    7  O   UNL     1      41.301 -13.957   5.487  1.00  0.00    -0.319 OA
HETATM    8  C   UNL     1      42.120 -15.029   5.266  1.00  0.00     0.080 A 
HETATM    9  C   UNL     1      42.679 -15.315   4.016  1.00  0.00    -0.002 A 
HETATM   10  C   UNL     1      42.364 -15.861   6.357  1.00  0.00     0.037 A 
HETATM   11  C   UNL     1      43.185 -16.979   6.209  1.00  0.00     0.003 A 
HETATM   12  C   UNL     1      43.764 -17.259   4.972  1.00  0.00     0.001 A 
HETATM   13  C   UNL     1      43.517 -16.429   3.877  1.00  0.00     0.012 A 
HETATM   14  C   UNL     1      41.003 -13.799   3.053  1.00  0.00     0.092 C 
HETATM   15  C   UNL     1      42.367 -14.413   2.855  1.00  0.00     0.127 C 
HETATM   16  H   UNL     1      44.222 -13.522   2.292  1.00  0.00     0.165 HD
ENDROOT
BRANCH   3  17
HETATM   17  C   UNL     1      42.213 -10.954   5.255  1.00  0.00     0.043 A 
HETATM   18  C   UNL     1      42.709 -11.092   6.555  1.00  0.00     0.047 A 
HETATM   19  C   UNL     1      42.711  -9.991   7.420  1.00  0.00     0.034 A 
HETATM   20  C   UNL     1      42.166  -8.768   7.021  1.00  0.00     0.017 A 
HETATM   21  C   UNL     1      41.677  -8.625   5.725  1.00  0.00     0.003 A 
HETATM   22  C   UNL     1      41.723  -9.706   4.840  1.00  0.00     0.030 A 
BRANCH  19  23
HETATM   23  C   UNL     1      43.340 -10.077   8.757  1.00  0.00     0.252 C 
HETATM   24  N   UNL     1      42.797  -9.235   9.703  1.00  0.00    -0.352 N 
HETATM   25  H   UNL     1      42.044  -8.613   9.434  1.00  0.00     0.163 HD
HETATM   26  O   UNL     1      44.226 -10.893   8.972  1.00  0.00    -0.268 OA
BRANCH  24  27
HETATM   27  C   UNL     1      43.250  -9.222  11.076  1.00  0.00     0.084 C 
HETATM   28  C   UNL     1      43.160  -7.835  11.703  1.00  0.00     0.025 C 
HETATM   29  C   UNL     1      43.200  -8.137  13.192  1.00  0.00     0.002 C 
HETATM   30  C   UNL     1      42.339  -9.386  13.341  1.00  0.00     0.002 C 
HETATM   31  C   UNL     1      42.386 -10.098  11.988  1.00  0.00     0.025 C 
ENDBRANCH  24  27
ENDBRANCH  19  23
ENDBRANCH   3  17
TORSDOF 3
ENDMDL
MODEL 9
REMARK VINA RESULT:      -8.5      2.699      8.125
REMARK  3 active torsions:
REMARK  status: ('A' for Active; 'I' for Inactive)
REMARK    1  A    between atoms: N_3  and  C_4 
REMARK    2  A    between atoms: C_6  and  C_7 
REMARK       I    between atoms: C_7  and  N_8 
REMARK    3  A    between atoms: N_8  and  C_9 
ROOT
HETATM    1  C   UNL     1      43.881 -12.692   6.733  1.00  0.00     0.072 C 
HETATM    2  C   UNL     1      42.732 -13.374   5.962  1.00  0.00     0.149 C 
HETATM    3  N   UNL     1      41.488 -12.565   5.975  1.00  0.00    -0.267 N 
HETATM    4  C   UNL     1      40.231 -13.161   5.975  1.00  0.00     0.326 C 
HETATM    5  O   UNL     1      39.155 -12.569   5.930  1.00  0.00    -0.247 OA
HETATM    6  N   UNL     1      40.202 -14.526   6.027  1.00  0.00    -0.334 N 
HETATM    7  O   UNL     1      43.204 -13.544   4.608  1.00  0.00    -0.319 OA
HETATM    8  C   UNL     1      42.655 -14.567   3.886  1.00  0.00     0.080 A 
HETATM    9  C   UNL     1      41.753 -15.486   4.432  1.00  0.00    -0.002 A 
HETATM   10  C   UNL     1      43.059 -14.676   2.556  1.00  0.00     0.037 A 
HETATM   11  C   UNL     1      42.548 -15.698   1.756  1.00  0.00     0.003 A 
HETATM   12  C   UNL     1      41.631 -16.605   2.287  1.00  0.00     0.001 A 
HETATM   13  C   UNL     1      41.230 -16.500   3.619  1.00  0.00     0.012 A 
HETATM   14  C   UNL     1      42.505 -14.729   6.644  1.00  0.00     0.092 C 
HETATM   15  C   UNL     1      41.366 -15.356   5.878  1.00  0.00     0.127 C 
HETATM   16  H   UNL     1      39.279 -14.917   5.887  1.00  0.00     0.165 HD
ENDROOT
BRANCH   3  17
HETATM   17  C   UNL     1      41.559 -11.148   5.815  1.00  0.00     0.043 A 
HETATM   18  C   UNL     1      41.867 -10.308   6.890  1.00  0.00     0.047 A 
HETATM   19  C   UNL     1      41.940  -8.923   6.694  1.00  0.00     0.034 A 
HETATM   20  C   UNL     1      41.650  -8.363   5.447  1.00  0.00     0.017 A 
HETATM   21  C   UNL     1      41.350  -9.196   4.373  1.00  0.00     0.003 A 
HETATM   22  C   UNL     1      41.328 -10.582   4.551  1.00  0.00     0.030 A 
BRANCH  19  23
HETATM   23  C   UNL     1      42.381  -8.024   7.783  1.00  0.00     0.252 C 
HETATM   24  N   UNL     1      42.523  -8.635   9.010  1.00  0.00    -0.352 N 
HETATM   25  H   UNL     1      42.304  -9.620   9.097  1.00  0.00     0.163 HD
HETATM   26  O   UNL     1      42.647  -6.853   7.548  1.00  0.00    -0.268 OA
BRANCH  24  27
HETATM   27  C   UNL     1      42.996  -7.923  10.177  1.00  0.00     0.084 C 
HETATM   28  C   UNL     1      41.857  -7.307  10.981  1.00  0.00     0.025 C 
HETATM   29  C   UNL     1      42.499  -7.064  12.337  1.00  0.00     0.002 C 
HETATM   30  C   UNL     1      43.364  -8.297  12.566  1.00  0.00     0.002 C 
HETATM   31  C   UNL     1      43.704  -8.841  11.178  1.00  0.00     0.025 C 
ENDBRANCH  24  27
ENDBRANCH  19  23
ENDBRANCH   3  17
TORSDOF 3
ENDMDL
MODEL 10
REMARK VINA RESULT:      -8.5      6.603     11.418
REMARK  3 active torsions:
REMARK  status: ('A' for Active; 'I' for Inactive)
REMARK    1  A    between atoms: N_3  and  C_4 
REMARK    2  A    between atoms: C_6  and  C_7 
REMARK       I    between atoms: C_7  and  N_8 
REMARK    3  A    between atoms: N_8  and  C_9 
ROOT
HETATM    1  C   UNL     1      43.108  -6.984   9.830  1.00  0.00     0.072 C 
HETATM    2  C   UNL     1      43.493  -8.420   9.419  1.00  0.00     0.149 C 
HETATM    3  N   UNL     1      43.566  -9.338  10.582  1.00  0.00    -0.267 N 
HETATM    4  C   UNL     1      44.469 -10.396  10.620  1.00  0.00     0.326 C 
HETATM    5  O   UNL     1      44.558 -11.232  11.517  1.00  0.00    -0.247 OA
HETATM    6  N   UNL     1      45.326 -10.506   9.563  1.00  0.00    -0.334 N 
HETATM    7  O   UNL     1      42.472  -8.860   8.498  1.00  0.00    -0.319 OA
HETATM    8  C   UNL     1      42.830  -9.816   7.588  1.00  0.00     0.080 A 
HETATM    9  C   UNL     1      44.138 -10.294   7.461  1.00  0.00    -0.002 A 
HETATM   10  C   UNL     1      41.819 -10.292   6.755  1.00  0.00     0.037 A 
HETATM   11  C   UNL     1      42.107 -11.263   5.797  1.00  0.00     0.003 A 
HETATM   12  C   UNL     1      43.404 -11.761   5.678  1.00  0.00     0.001 A 
HETATM   13  C   UNL     1      44.418 -11.283   6.510  1.00  0.00     0.012 A 
HETATM   14  C   UNL     1      44.857  -8.315   8.725  1.00  0.00     0.092 C 
HETATM   15  C   UNL     1      45.209  -9.735   8.355  1.00  0.00     0.127 C 
HETATM   16  H   UNL     1      45.867 -11.362   9.568  1.00  0.00     0.165 HD
ENDROOT
BRANCH   3  17
HETATM   17  C   UNL     1      42.587  -9.253  11.618  1.00  0.00     0.043 A 
HETATM   18  C   UNL     1      42.867  -8.623  12.835  1.00  0.00     0.047 A 
HETATM   19  C   UNL     1      41.877  -8.547  13.824  1.00  0.00     0.034 A 
HETATM   20  C   UNL     1      40.631  -9.148  13.633  1.00  0.00     0.017 A 
HETATM   21  C   UNL     1      40.346  -9.770  12.420  1.00  0.00     0.003 A 
HETATM   22  C   UNL     1      41.311  -9.801  11.410  1.00  0.00     0.030 A 
BRANCH  19  23
HETATM   23  C   UNL     1      42.107  -7.782  15.070  1.00  0.00     0.252 C 
HETATM   24  N   UNL     1      41.278  -8.126  16.115  1.00  0.00    -0.352 N 
HETATM   25  H   UNL     1      40.572  -8.838  15.970  1.00  0.00     0.163 HD
HETATM   26  O   UNL     1      43.015  -6.965  15.134  1.00  0.00    -0.268 OA
BRANCH  24  27
HETATM   27  C   UNL     1      41.394  -7.521  17.424  1.00  0.00     0.084 C 
HETATM   28  C   UNL     1      40.722  -6.154  17.492  1.00  0.00     0.025 C 
HETATM   29  C   UNL     1      40.537  -5.946  18.985  1.00  0.00     0.002 C 
HETATM   30  C   UNL     1      40.121  -7.318  19.503  1.00  0.00     0.002 C 
HETATM   31  C   UNL     1      40.689  -8.335  18.512  1.00  0.00     0.025 C 
ENDBRANCH  24  27
ENDBRANCH  19  23
ENDBRANCH   3  17
TORSDOF 3
ENDMDL
