MODEL 1
REMARK VINA RESULT:      -7.6      0.000      0.000
REMARK  5 active torsions:
REMARK  status: ('A' for Active; 'I' for Inactive)
REMARK    1  A    between atoms: C_8  and  C_9 
REMARK    2  A    between atoms: C_9  and  N_10 
REMARK    3  A    between atoms: N_10  and  C_13 
REMARK    4  A    between atoms: C_13  and  C_14 
REMARK    5  A    between atoms: C_13  and  C_19 
ROOT
HETATM    1  N   UNL     1      43.637 -17.275   5.614  1.00  0.00    -0.056 N 
HETATM    2  H   UNL     1      43.938 -18.080   6.174  1.00  0.00     0.278 HD
HETATM    3  H   UNL     1      42.614 -17.214   5.693  1.00  0.00     0.278 HD
ENDROOT
BRANCH   1   4
HETATM    4  C   UNL     1      44.233 -16.048   6.203  1.00  0.00     0.275 C 
BRANCH   4   5
HETATM    5  C   UNL     1      43.310 -14.880   6.067  1.00  0.00     0.004 A 
HETATM    6  C   UNL     1      41.956 -15.013   6.332  1.00  0.00     0.113 A 
HETATM    7  C   UNL     1      41.076 -13.962   6.213  1.00  0.00     0.105 A 
HETATM    8  O   UNL     1      41.343 -16.154   6.761  1.00  0.00    -0.322 OA
HETATM    9  C   UNL     1      41.497 -12.710   5.827  1.00  0.00     0.040 A 
HETATM   10  O   UNL     1      39.802 -14.314   6.524  1.00  0.00    -0.323 OA
HETATM   11  C   UNL     1      42.856 -12.536   5.554  1.00  0.00     0.003 A 
HETATM   12  C   UNL     1      43.757 -13.611   5.671  1.00  0.00     0.012 A 
HETATM   13  C   UNL     1      39.957 -15.717   6.801  1.00  0.00     0.352 A 
ENDBRANCH   4   5
ENDBRANCH   1   4
BRANCH   1  14
HETATM   14  C   UNL     1      44.005 -17.543   4.186  1.00  0.00     0.292 C 
BRANCH  14  15
HETATM   15  C   UNL     1      43.919 -18.993   3.806  1.00  0.00     0.190 A 
HETATM   16  N   UNL     1      43.867 -19.416   2.538  1.00  0.00    -0.109 NA
HETATM   17  O   UNL     1      43.850 -20.808   2.669  1.00  0.00    -0.205 OA
HETATM   18  C   UNL     1      43.938 -21.072   4.000  1.00  0.00     0.288 A 
HETATM   19  N   UNL     1      44.021 -19.995   4.750  1.00  0.00    -0.215 NA
ENDBRANCH  14  15
BRANCH  14  20
HETATM   20  C   UNL     1      43.069 -16.805   3.242  1.00  0.00    -0.020 A 
HETATM   21  C   UNL     1      43.607 -15.994   2.225  1.00  0.00     0.011 A 
HETATM   22  C   UNL     1      42.769 -15.285   1.358  1.00  0.00     0.024 A 
HETATM   23  C   UNL     1      41.387 -15.375   1.495  1.00  0.00     0.034 A 
HETATM   24 CL   UNL     1      40.361 -14.503   0.429  1.00  0.00    -0.084 Cl
HETATM   25  C   UNL     1      40.834 -16.173   2.493  1.00  0.00     0.024 A 
HETATM   26  C   UNL     1      41.667 -16.883   3.363  1.00  0.00     0.011 A 
ENDBRANCH  14  20
ENDBRANCH   1  14
TORSDOF 5
ENDMDL
MODEL 2
REMARK VINA RESULT:      -7.3      2.245      5.719
REMARK  5 active torsions:
REMARK  status: ('A' for Active; 'I' for Inactive)
REMARK    1  A    between atoms: C_8  and  C_9 
REMARK    2  A    between atoms: C_9  and  N_10 
REMARK    3  A    between atoms: N_10  and  C_13 
REMARK    4  A    between atoms: C_13  and  C_14 
REMARK    5  A    between atoms: C_13  and  C_19 
ROOT
HETATM    1  N   UNL     1      43.413 -15.355   4.590  1.00  0.00    -0.056 N 
HETATM    2  H   UNL     1      43.995 -14.665   5.079  1.00  0.00     0.278 HD
HETATM    3  H   UNL     1      43.718 -15.370   3.608  1.00  0.00     0.278 HD
ENDROOT
BRANCH   1   4
HETATM    4  C   UNL     1      43.671 -16.691   5.188  1.00  0.00     0.275 C 
BRANCH   4   5
HETATM    5  C   UNL     1      43.642 -17.763   4.147  1.00  0.00     0.004 A 
HETATM    6  C   UNL     1      43.812 -19.094   4.495  1.00  0.00     0.113 A 
HETATM    7  C   UNL     1      43.796 -20.106   3.564  1.00  0.00     0.105 A 
HETATM    8  O   UNL     1      43.981 -19.562   5.765  1.00  0.00    -0.322 OA
HETATM    9  C   UNL     1      43.602 -19.851   2.225  1.00  0.00     0.040 A 
HETATM   10  O   UNL     1      43.978 -21.329   4.124  1.00  0.00    -0.323 OA
HETATM   11  C   UNL     1      43.424 -18.521   1.836  1.00  0.00     0.003 A 
HETATM   12  C   UNL     1      43.444 -17.483   2.787  1.00  0.00     0.012 A 
HETATM   13  C   UNL     1      44.168 -20.981   5.507  1.00  0.00     0.352 A 
ENDBRANCH   4   5
ENDBRANCH   1   4
BRANCH   1  14
HETATM   14  C   UNL     1      41.991 -14.889   4.656  1.00  0.00     0.292 C 
BRANCH  14  15
HETATM   15  C   UNL     1      41.837 -13.509   5.230  1.00  0.00     0.190 A 
HETATM   16  N   UNL     1      40.659 -12.999   5.606  1.00  0.00    -0.109 NA
HETATM   17  O   UNL     1      41.006 -11.744   6.118  1.00  0.00    -0.205 OA
HETATM   18  C   UNL     1      42.360 -11.655   6.034  1.00  0.00     0.288 A 
HETATM   19  N   UNL     1      42.933 -12.725   5.531  1.00  0.00    -0.215 NA
ENDBRANCH  14  15
BRANCH  14  20
HETATM   20  C   UNL     1      41.377 -14.834   3.266  1.00  0.00    -0.020 A 
HETATM   21  C   UNL     1      40.364 -15.747   2.918  1.00  0.00     0.011 A 
HETATM   22  C   UNL     1      39.800 -15.736   1.638  1.00  0.00     0.024 A 
HETATM   23  C   UNL     1      40.239 -14.816   0.691  1.00  0.00     0.034 A 
HETATM   24 CL   UNL     1      39.545 -14.804  -0.880  1.00  0.00    -0.084 Cl
HETATM   25  C   UNL     1      41.240 -13.902   1.014  1.00  0.00     0.024 A 
HETATM   26  C   UNL     1      41.808 -13.911   2.292  1.00  0.00     0.011 A 
ENDBRANCH  14  20
ENDBRANCH   1  14
TORSDOF 5
ENDMDL
MODEL 3
REMARK VINA RESULT:      -7.3      1.744      2.346
REMARK  5 active torsions:
REMARK  status: ('A' for Active; 'I' for Inactive)
REMARK    1  A    between atoms: C_8  and  C_9 
REMARK    2  A    between atoms: C_9  and  N_10 
REMARK    3  A    between atoms: N_10  and  C_13 
REMARK    4  A    between atoms: C_13  and  C_14 
REMARK    5  A    between atoms: C_13  and  C_19 
ROOT
HETATM    1  N   UNL     1      43.246 -16.568   5.923  1.00  0.00    -0.056 N 
HETATM    2  H   UNL     1      43.374 -17.370   6.550  1.00  0.00     0.278 HD
HETATM    3  H   UNL     1      42.235 -16.391   5.857  1.00  0.00     0.278 HD
ENDROOT
BRANCH   1   4
HETATM    4  C   UNL     1      43.897 -15.383   6.539  1.00  0.00     0.275 C 
BRANCH   4   5
HETATM    5  C   UNL     1      43.060 -14.157   6.366  1.00  0.00     0.004 A 
HETATM    6  C   UNL     1      43.626 -12.894   6.454  1.00  0.00     0.113 A 
HETATM    7  C   UNL     1      42.887 -11.744   6.305  1.00  0.00     0.105 A 
HETATM    8  O   UNL     1      44.949 -12.635   6.662  1.00  0.00    -0.322 OA
HETATM    9  C   UNL     1      41.534 -11.785   6.051  1.00  0.00     0.040 A 
HETATM   10  O   UNL     1      43.642 -10.622   6.425  1.00  0.00    -0.323 OA
HETATM   11  C   UNL     1      40.929 -13.039   5.952  1.00  0.00     0.003 A 
HETATM   12  C   UNL     1      41.683 -14.217   6.109  1.00  0.00     0.012 A 
HETATM   13  C   UNL     1      44.933 -11.182   6.724  1.00  0.00     0.352 A 
ENDBRANCH   4   5
ENDBRANCH   1   4
BRANCH   1  14
HETATM   14  C   UNL     1      43.767 -16.952   4.571  1.00  0.00     0.292 C 
BRANCH  14  15
HETATM   15  C   UNL     1      43.866 -18.437   4.366  1.00  0.00     0.190 A 
HETATM   16  N   UNL     1      43.990 -19.004   3.160  1.00  0.00    -0.109 NA
HETATM   17  O   UNL     1      44.099 -20.365   3.460  1.00  0.00    -0.205 OA
HETATM   18  C   UNL     1      44.072 -20.465   4.816  1.00  0.00     0.288 A 
HETATM   19  N   UNL     1      43.967 -19.309   5.431  1.00  0.00    -0.215 NA
ENDBRANCH  14  15
BRANCH  14  20
HETATM   20  C   UNL     1      42.847 -16.438   3.474  1.00  0.00    -0.020 A 
HETATM   21  C   UNL     1      43.397 -15.766   2.367  1.00  0.00     0.011 A 
HETATM   22  C   UNL     1      42.573 -15.261   1.356  1.00  0.00     0.024 A 
HETATM   23  C   UNL     1      41.193 -15.420   1.437  1.00  0.00     0.034 A 
HETATM   24 CL   UNL     1      40.183 -14.798   0.194  1.00  0.00    -0.084 Cl
HETATM   25  C   UNL     1      40.628 -16.083   2.523  1.00  0.00     0.024 A 
HETATM   26  C   UNL     1      41.447 -16.588   3.537  1.00  0.00     0.011 A 
ENDBRANCH  14  20
ENDBRANCH   1  14
TORSDOF 5
ENDMDL
MODEL 4
REMARK VINA RESULT:      -7.3      1.421      1.699
REMARK  5 active torsions:
REMARK  status: ('A' for Active; 'I' for Inactive)
REMARK    1  A    between atoms: C_8  and  C_9 
REMARK    2  A    between atoms: C_9  and  N_10 
REMARK    3  A    between atoms: N_10  and  C_13 
REMARK    4  A    between atoms: C_13  and  C_14 
REMARK    5  A    between atoms: C_13  and  C_19 
ROOT
HETATM    1  N   UNL     1      42.563 -16.163   6.329  1.00  0.00    -0.056 N 
HETATM    2  H   UNL     1      42.437 -17.036   6.854  1.00  0.00     0.278 HD
HETATM    3  H   UNL     1      41.629 -15.840   6.046  1.00  0.00     0.278 HD
ENDROOT
BRANCH   1   4
HETATM    4  C   UNL     1      43.161 -15.152   7.239  1.00  0.00     0.275 C 
BRANCH   4   5
HETATM    5  C   UNL     1      43.118 -13.787   6.631  1.00  0.00     0.004 A 
HETATM    6  C   UNL     1      41.939 -13.283   6.105  1.00  0.00     0.113 A 
HETATM    7  C   UNL     1      41.862 -12.034   5.534  1.00  0.00     0.105 A 
HETATM    8  O   UNL     1      40.734 -13.923   6.110  1.00  0.00    -0.322 OA
HETATM    9  C   UNL     1      42.960 -11.207   5.461  1.00  0.00     0.040 A 
HETATM   10  O   UNL     1      40.614 -11.743   5.087  1.00  0.00    -0.323 OA
HETATM   11  C   UNL     1      44.166 -11.678   5.984  1.00  0.00     0.003 A 
HETATM   12  C   UNL     1      44.248 -12.958   6.565  1.00  0.00     0.012 A 
HETATM   13  C   UNL     1      39.916 -12.965   5.385  1.00  0.00     0.352 A 
ENDBRANCH   4   5
ENDBRANCH   1   4
BRANCH   1  14
HETATM   14  C   UNL     1      43.367 -16.475   5.103  1.00  0.00     0.292 C 
BRANCH  14  15
HETATM   15  C   UNL     1      43.671 -17.937   4.940  1.00  0.00     0.190 A 
HETATM   16  N   UNL     1      44.187 -18.458   3.821  1.00  0.00    -0.109 NA
HETATM   17  O   UNL     1      44.345 -19.809   4.144  1.00  0.00    -0.205 OA
HETATM   18  C   UNL     1      43.947 -19.946   5.437  1.00  0.00     0.288 A 
HETATM   19  N   UNL     1      43.556 -18.821   5.994  1.00  0.00    -0.215 NA
ENDBRANCH  14  15
BRANCH  14  20
HETATM   20  C   UNL     1      42.616 -16.060   3.848  1.00  0.00    -0.020 A 
HETATM   21  C   UNL     1      43.275 -15.295   2.866  1.00  0.00     0.011 A 
HETATM   22  C   UNL     1      42.601 -14.880   1.713  1.00  0.00     0.024 A 
HETATM   23  C   UNL     1      41.265 -15.220   1.526  1.00  0.00     0.034 A 
HETATM   24 CL   UNL     1      40.440 -14.706   0.109  1.00  0.00    -0.084 Cl
HETATM   25  C   UNL     1      40.594 -15.977   2.483  1.00  0.00     0.024 A 
HETATM   26  C   UNL     1      41.263 -16.394   3.638  1.00  0.00     0.011 A 
ENDBRANCH  14  20
ENDBRANCH   1  14
TORSDOF 5
ENDMDL
MODEL 5
REMARK VINA RESULT:      -7.3      3.469      5.755
REMARK  5 active torsions:
REMARK  status: ('A' for Active; 'I' for Inactive)
REMARK    1  A    between atoms: C_8  and  C_9 
REMARK    2  A    between atoms: C_9  and  N_10 
REMARK    3  A    between atoms: N_10  and  C_13 
REMARK    4  A    between atoms: C_13  and  C_14 
REMARK    5  A    between atoms: C_13  and  C_19 
ROOT
HETATM    1  N   UNL     1      41.799 -14.623   3.467  1.00  0.00    -0.056 N 
HETATM    2  H   UNL     1      41.158 -14.198   4.146  1.00  0.00     0.278 HD
HETATM    3  H   UNL     1      41.277 -15.359   2.974  1.00  0.00     0.278 HD
ENDROOT
BRANCH   1   4
HETATM    4  C   UNL     1      42.198 -13.582   2.484  1.00  0.00     0.275 C 
BRANCH   4   5
HETATM    5  C   UNL     1      41.305 -13.603   1.285  1.00  0.00     0.004 A 
HETATM    6  C   UNL     1      41.025 -12.436   0.590  1.00  0.00     0.113 A 
HETATM    7  C   UNL     1      40.205 -12.416  -0.513  1.00  0.00     0.105 A 
HETATM    8  O   UNL     1      41.532 -11.203   0.881  1.00  0.00    -0.322 OA
HETATM    9  C   UNL     1      39.619 -13.564  -0.997  1.00  0.00     0.040 A 
HETATM   10  O   UNL     1      40.072 -11.171  -1.038  1.00  0.00    -0.323 OA
HETATM   11  C   UNL     1      39.880 -14.760  -0.325  1.00  0.00     0.003 A 
HETATM   12  C   UNL     1      40.716 -14.783   0.808  1.00  0.00     0.012 A 
HETATM   13  C   UNL     1      40.852 -10.391  -0.115  1.00  0.00     0.352 A 
ENDBRANCH   4   5
ENDBRANCH   1   4
BRANCH   1  14
HETATM   14  C   UNL     1      42.928 -15.249   4.229  1.00  0.00     0.292 C 
BRANCH  14  15
HETATM   15  C   UNL     1      42.648 -15.405   5.696  1.00  0.00     0.190 A 
HETATM   16  N   UNL     1      41.594 -16.077   6.174  1.00  0.00    -0.109 NA
HETATM   17  O   UNL     1      41.774 -16.004   7.559  1.00  0.00    -0.205 OA
HETATM   18  C   UNL     1      42.939 -15.334   7.763  1.00  0.00     0.288 A 
HETATM   19  N   UNL     1      43.544 -14.971   6.653  1.00  0.00    -0.215 NA
ENDBRANCH  14  15
BRANCH  14  20
HETATM   20  C   UNL     1      43.219 -16.647   3.707  1.00  0.00    -0.020 A 
HETATM   21  C   UNL     1      42.538 -17.118   2.569  1.00  0.00     0.011 A 
HETATM   22  C   UNL     1      42.768 -18.409   2.082  1.00  0.00     0.024 A 
HETATM   23  C   UNL     1      43.677 -19.245   2.724  1.00  0.00     0.034 A 
HETATM   24 CL   UNL     1      43.957 -20.830   2.124  1.00  0.00    -0.084 Cl
HETATM   25  C   UNL     1      44.363 -18.798   3.851  1.00  0.00     0.024 A 
HETATM   26  C   UNL     1      44.136 -17.509   4.342  1.00  0.00     0.011 A 
ENDBRANCH  14  20
ENDBRANCH   1  14
TORSDOF 5
ENDMDL
MODEL 6
REMARK VINA RESULT:      -7.1      4.369      6.965
REMARK  5 active torsions:
REMARK  status: ('A' for Active; 'I' for Inactive)
REMARK    1  A    between atoms: C_8  and  C_9 
REMARK    2  A    between atoms: C_9  and  N_10 
REMARK    3  A    between atoms: N_10  and  C_13 
REMARK    4  A    between atoms: C_13  and  C_14 
REMARK    5  A    between atoms: C_13  and  C_19 
ROOT
HETATM    1  N   UNL     1      42.061 -14.687   1.298  1.00  0.00    -0.056 N 
HETATM    2  H   UNL     1      41.397 -15.469   1.270  1.00  0.00     0.278 HD
HETATM    3  H   UNL     1      42.763 -14.856   0.566  1.00  0.00     0.278 HD
ENDROOT
BRANCH   1   4
HETATM    4  C   UNL     1      41.325 -13.438   0.971  1.00  0.00     0.275 C 
BRANCH   4   5
HETATM    5  C   UNL     1      40.570 -13.577  -0.311  1.00  0.00     0.004 A 
HETATM    6  C   UNL     1      40.615 -12.579  -1.273  1.00  0.00     0.113 A 
HETATM    7  C   UNL     1      39.930 -12.671  -2.461  1.00  0.00     0.105 A 
HETATM    8  O   UNL     1      41.344 -11.429  -1.183  1.00  0.00    -0.322 OA
HETATM    9  C   UNL     1      39.160 -13.771  -2.767  1.00  0.00     0.040 A 
HETATM   10  O   UNL     1      40.118 -11.585  -3.254  1.00  0.00    -0.323 OA
HETATM   11  C   UNL     1      39.093 -14.799  -1.824  1.00  0.00     0.003 A 
HETATM   12  C   UNL     1      39.790 -14.705  -0.605  1.00  0.00     0.012 A 
HETATM   13  C   UNL     1      40.954 -10.766  -2.417  1.00  0.00     0.352 A 
ENDBRANCH   4   5
ENDBRANCH   1   4
BRANCH   1  14
HETATM   14  C   UNL     1      42.734 -14.700   2.637  1.00  0.00     0.292 C 
BRANCH  14  15
HETATM   15  C   UNL     1      41.880 -14.150   3.743  1.00  0.00     0.190 A 
HETATM   16  N   UNL     1      40.716 -14.696   4.113  1.00  0.00    -0.109 NA
HETATM   17  O   UNL     1      40.318 -13.897   5.189  1.00  0.00    -0.205 OA
HETATM   18  C   UNL     1      41.308 -12.984   5.378  1.00  0.00     0.288 A 
HETATM   19  N   UNL     1      42.315 -13.111   4.543  1.00  0.00    -0.215 NA
ENDBRANCH  14  15
BRANCH  14  20
HETATM   20  C   UNL     1      43.085 -16.122   3.047  1.00  0.00    -0.020 A 
HETATM   21  C   UNL     1      43.574 -16.369   4.345  1.00  0.00     0.011 A 
HETATM   22  C   UNL     1      43.928 -17.663   4.741  1.00  0.00     0.024 A 
HETATM   23  C   UNL     1      43.800 -18.724   3.850  1.00  0.00     0.034 A 
HETATM   24 CL   UNL     1      44.237 -20.312   4.339  1.00  0.00    -0.084 Cl
HETATM   25  C   UNL     1      43.317 -18.503   2.562  1.00  0.00     0.024 A 
HETATM   26  C   UNL     1      42.963 -17.211   2.161  1.00  0.00     0.011 A 
ENDBRANCH  14  20
ENDBRANCH   1  14
TORSDOF 5
ENDMDL
MODEL 7
REMARK VINA RESULT:      -7.0      3.994      6.898
REMARK  5 active torsions:
REMARK  status: ('A' for Active; 'I' for Inactive)
REMARK    1  A    between atoms: C_8  and  C_9 
REMARK    2  A    between atoms: C_9  and  N_10 
REMARK    3  A    between atoms: N_10  and  C_13 
REMARK    4  A    between atoms: C_13  and  C_14 
REMARK    5  A    between atoms: C_13  and  C_19 
ROOT
HETATM    1  N   UNL     1      42.452 -13.696   5.938  1.00  0.00    -0.056 N 
HETATM    2  H   UNL     1      41.855 -13.086   6.508  1.00  0.00     0.278 HD
HETATM    3  H   UNL     1      42.858 -14.400   6.567  1.00  0.00     0.278 HD
ENDROOT
BRANCH   1   4
HETATM    4  C   UNL     1      41.594 -14.388   4.940  1.00  0.00     0.275 C 
BRANCH   4   5
HETATM    5  C   UNL     1      42.316 -15.537   4.313  1.00  0.00     0.004 A 
HETATM    6  C   UNL     1      42.785 -16.587   5.087  1.00  0.00     0.113 A 
HETATM    7  C   UNL     1      43.457 -17.657   4.546  1.00  0.00     0.105 A 
HETATM    8  O   UNL     1      42.622 -16.707   6.436  1.00  0.00    -0.322 OA
HETATM    9  C   UNL     1      43.696 -17.749   3.193  1.00  0.00     0.040 A 
HETATM   10  O   UNL     1      43.822 -18.569   5.483  1.00  0.00    -0.323 OA
HETATM   11  C   UNL     1      43.235 -16.712   2.379  1.00  0.00     0.003 A 
HETATM   12  C   UNL     1      42.551 -15.612   2.932  1.00  0.00     0.012 A 
HETATM   13  C   UNL     1      43.359 -17.935   6.688  1.00  0.00     0.352 A 
ENDBRANCH   4   5
ENDBRANCH   1   4
BRANCH   1  14
HETATM   14  C   UNL     1      43.552 -12.857   5.363  1.00  0.00     0.292 C 
BRANCH  14  15
HETATM   15  C   UNL     1      43.088 -11.904   4.299  1.00  0.00     0.190 A 
HETATM   16  N   UNL     1      43.477 -11.985   3.021  1.00  0.00    -0.109 NA
HETATM   17  O   UNL     1      42.764 -10.951   2.407  1.00  0.00    -0.205 OA
HETATM   18  C   UNL     1      41.989 -10.389   3.373  1.00  0.00     0.288 A 
HETATM   19  N   UNL     1      42.116 -10.957   4.552  1.00  0.00    -0.215 NA
ENDBRANCH  14  15
BRANCH  14  20
HETATM   20  C   UNL     1      44.195 -12.000   6.442  1.00  0.00    -0.020 A 
HETATM   21  C   UNL     1      43.473 -11.705   7.614  1.00  0.00     0.011 A 
HETATM   22  C   UNL     1      44.030 -10.898   8.612  1.00  0.00     0.024 A 
HETATM   23  C   UNL     1      45.310 -10.376   8.453  1.00  0.00     0.034 A 
HETATM   24 CL   UNL     1      45.991  -9.385   9.679  1.00  0.00    -0.084 Cl
HETATM   25  C   UNL     1      46.042 -10.656   7.302  1.00  0.00     0.024 A 
HETATM   26  C   UNL     1      45.489 -11.461   6.301  1.00  0.00     0.011 A 
ENDBRANCH  14  20
ENDBRANCH   1  14
TORSDOF 5
ENDMDL
MODEL 8
REMARK VINA RESULT:      -7.0      3.449      5.834
REMARK  5 active torsions:
REMARK  status: ('A' for Active; 'I' for Inactive)
REMARK    1  A    between atoms: C_8  and  C_9 
REMARK    2  A    between atoms: C_9  and  N_10 
REMARK    3  A    between atoms: N_10  and  C_13 
REMARK    4  A    between atoms: C_13  and  C_14 
REMARK    5  A    between atoms: C_13  and  C_19 
ROOT
HETATM    1  N   UNL     1      41.895 -15.903   2.117  1.00  0.00    -0.056 N 
HETATM    2  H   UNL     1      41.106 -16.356   1.640  1.00  0.00     0.278 HD
HETATM    3  H   UNL     1      41.722 -15.976   3.127  1.00  0.00     0.278 HD
ENDROOT
BRANCH   1   4
HETATM    4  C   UNL     1      43.133 -16.656   1.789  1.00  0.00     0.275 C 
BRANCH   4   5
HETATM    5  C   UNL     1      43.459 -17.648   2.858  1.00  0.00     0.004 A 
HETATM    6  C   UNL     1      43.634 -17.244   4.172  1.00  0.00     0.113 A 
HETATM    7  C   UNL     1      43.939 -18.128   5.180  1.00  0.00     0.105 A 
HETATM    8  O   UNL     1      43.502 -15.965   4.628  1.00  0.00    -0.322 OA
HETATM    9  C   UNL     1      44.082 -19.475   4.938  1.00  0.00     0.040 A 
HETATM   10  O   UNL     1      44.063 -17.517   6.387  1.00  0.00    -0.323 OA
HETATM   11  C   UNL     1      43.910 -19.922   3.626  1.00  0.00     0.003 A 
HETATM   12  C   UNL     1      43.602 -19.019   2.592  1.00  0.00     0.012 A 
HETATM   13  C   UNL     1      43.858 -16.140   6.027  1.00  0.00     0.352 A 
ENDBRANCH   4   5
ENDBRANCH   1   4
BRANCH   1  14
HETATM   14  C   UNL     1      41.902 -14.457   1.722  1.00  0.00     0.292 C 
BRANCH  14  15
HETATM   15  C   UNL     1      40.949 -14.133   0.608  1.00  0.00     0.190 A 
HETATM   16  N   UNL     1      40.017 -14.987   0.169  1.00  0.00    -0.109 NA
HETATM   17  O   UNL     1      39.349 -14.249  -0.813  1.00  0.00    -0.205 OA
HETATM   18  C   UNL     1      39.923 -13.017  -0.827  1.00  0.00     0.288 A 
HETATM   19  N   UNL     1      40.890 -12.872   0.051  1.00  0.00    -0.215 NA
ENDBRANCH  14  15
BRANCH  14  20
HETATM   20  C   UNL     1      41.491 -13.578   2.894  1.00  0.00    -0.020 A 
HETATM   21  C   UNL     1      42.412 -12.655   3.425  1.00  0.00     0.011 A 
HETATM   22  C   UNL     1      42.068 -11.852   4.518  1.00  0.00     0.024 A 
HETATM   23  C   UNL     1      40.805 -11.961   5.093  1.00  0.00     0.034 A 
HETATM   24 CL   UNL     1      40.387 -10.974   6.436  1.00  0.00    -0.084 Cl
HETATM   25  C   UNL     1      39.879 -12.866   4.582  1.00  0.00     0.024 A 
HETATM   26  C   UNL     1      40.218 -13.672   3.491  1.00  0.00     0.011 A 
ENDBRANCH  14  20
ENDBRANCH   1  14
TORSDOF 5
ENDMDL
MODEL 9
REMARK VINA RESULT:      -7.0      4.467      6.906
REMARK  5 active torsions:
REMARK  status: ('A' for Active; 'I' for Inactive)
REMARK    1  A    between atoms: C_8  and  C_9 
REMARK    2  A    between atoms: C_9  and  N_10 
REMARK    3  A    between atoms: N_10  and  C_13 
REMARK    4  A    between atoms: C_13  and  C_14 
REMARK    5  A    between atoms: C_13  and  C_19 
ROOT
HETATM    1  N   UNL     1      41.721 -14.210   1.207  1.00  0.00    -0.056 N 
HETATM    2  H   UNL     1      41.150 -15.063   1.211  1.00  0.00     0.278 HD
HETATM    3  H   UNL     1      42.359 -14.274   0.403  1.00  0.00     0.278 HD
ENDROOT
BRANCH   1   4
HETATM    4  C   UNL     1      40.819 -13.046   1.006  1.00  0.00     0.275 C 
BRANCH   4   5
HETATM    5  C   UNL     1      40.730 -12.676  -0.440  1.00  0.00     0.004 A 
HETATM    6  C   UNL     1      40.073 -13.497  -1.343  1.00  0.00     0.113 A 
HETATM    7  C   UNL     1      39.976 -13.191  -2.680  1.00  0.00     0.105 A 
HETATM    8  O   UNL     1      39.434 -14.661  -1.031  1.00  0.00    -0.322 OA
HETATM    9  C   UNL     1      40.524 -12.039  -3.197  1.00  0.00     0.040 A 
HETATM   10  O   UNL     1      39.289 -14.130  -3.379  1.00  0.00    -0.323 OA
HETATM   11  C   UNL     1      41.191 -11.184  -2.317  1.00  0.00     0.003 A 
HETATM   12  C   UNL     1      41.295 -11.497  -0.949  1.00  0.00     0.012 A 
HETATM   13  C   UNL     1      39.008 -15.097  -2.351  1.00  0.00     0.352 A 
ENDBRANCH   4   5
ENDBRANCH   1   4
BRANCH   1  14
HETATM   14  C   UNL     1      42.524 -14.186   2.472  1.00  0.00     0.292 C 
BRANCH  14  15
HETATM   15  C   UNL     1      41.775 -13.625   3.647  1.00  0.00     0.190 A 
HETATM   16  N   UNL     1      42.140 -12.504   4.282  1.00  0.00    -0.109 NA
HETATM   17  O   UNL     1      41.141 -12.348   5.248  1.00  0.00    -0.205 OA
HETATM   18  C   UNL     1      40.261 -13.367   5.061  1.00  0.00     0.288 A 
HETATM   19  N   UNL     1      40.577 -14.166   4.066  1.00  0.00    -0.215 NA
ENDBRANCH  14  15
BRANCH  14  20
HETATM   20  C   UNL     1      42.938 -15.593   2.872  1.00  0.00    -0.020 A 
HETATM   21  C   UNL     1      42.833 -16.640   1.936  1.00  0.00     0.011 A 
HETATM   22  C   UNL     1      43.184 -17.948   2.286  1.00  0.00     0.024 A 
HETATM   23  C   UNL     1      43.642 -18.228   3.570  1.00  0.00     0.034 A 
HETATM   24 CL   UNL     1      44.072 -19.836   3.996  1.00  0.00    -0.084 Cl
HETATM   25  C   UNL     1      43.755 -17.207   4.510  1.00  0.00     0.024 A 
HETATM   26  C   UNL     1      43.405 -15.898   4.167  1.00  0.00     0.011 A 
ENDBRANCH  14  20
ENDBRANCH   1  14
TORSDOF 5
ENDMDL
MODEL 10
REMARK VINA RESULT:      -7.0      2.825      5.907
REMARK  5 active torsions:
REMARK  status: ('A' for Active; 'I' for Inactive)
REMARK    1  A    between atoms: C_8  and  C_9 
REMARK    2  A    between atoms: C_9  and  N_10 
REMARK    3  A    between atoms: N_10  and  C_13 
REMARK    4  A    between atoms: C_13  and  C_14 
REMARK    5  A    between atoms: C_13  and  C_19 
ROOT
HETATM    1  N   UNL     1      42.731 -14.887   2.524  1.00  0.00    -0.056 N 
HETATM    2  H   UNL     1      43.047 -14.792   3.496  1.00  0.00     0.278 HD
HETATM    3  H   UNL     1      43.217 -14.168   1.974  1.00  0.00     0.278 HD
ENDROOT
BRANCH   1   4
HETATM    4  C   UNL     1      43.142 -16.225   2.027  1.00  0.00     0.275 C 
BRANCH   4   5
HETATM    5  C   UNL     1      43.452 -17.150   3.161  1.00  0.00     0.004 A 
HETATM    6  C   UNL     1      43.560 -18.516   2.952  1.00  0.00     0.113 A 
HETATM    7  C   UNL     1      43.839 -19.396   3.971  1.00  0.00     0.105 A 
HETATM    8  O   UNL     1      43.439 -19.142   1.746  1.00  0.00    -0.322 OA
HETATM    9  C   UNL     1      44.035 -18.964   5.264  1.00  0.00     0.040 A 
HETATM   10  O   UNL     1      43.903 -20.683   3.543  1.00  0.00    -0.323 OA
HETATM   11  C   UNL     1      43.937 -17.593   5.513  1.00  0.00     0.003 A 
HETATM   12  C   UNL     1      43.648 -16.691   4.472  1.00  0.00     0.012 A 
HETATM   13  C   UNL     1      43.578 -20.532   2.150  1.00  0.00     0.352 A 
ENDBRANCH   4   5
ENDBRANCH   1   4
BRANCH   1  14
HETATM   14  C   UNL     1      41.257 -14.619   2.492  1.00  0.00     0.292 C 
BRANCH  14  15
HETATM   15  C   UNL     1      40.830 -13.497   3.395  1.00  0.00     0.190 A 
HETATM   16  N   UNL     1      39.550 -13.158   3.589  1.00  0.00    -0.109 NA
HETATM   17  O   UNL     1      39.635 -12.124   4.527  1.00  0.00    -0.205 OA
HETATM   18  C   UNL     1      40.953 -11.984   4.828  1.00  0.00     0.288 A 
HETATM   19  N   UNL     1      41.736 -12.826   4.191  1.00  0.00    -0.215 NA
ENDBRANCH  14  15
BRANCH  14  20
HETATM   20  C   UNL     1      40.814 -14.220   1.092  1.00  0.00    -0.020 A 
HETATM   21  C   UNL     1      41.222 -12.981   0.562  1.00  0.00     0.011 A 
HETATM   22  C   UNL     1      40.810 -12.579  -0.712  1.00  0.00     0.024 A 
HETATM   23  C   UNL     1      39.985 -13.405  -1.471  1.00  0.00     0.034 A 
HETATM   24 CL   UNL     1      39.479 -12.907  -3.036  1.00  0.00    -0.084 Cl
HETATM   25  C   UNL     1      39.570 -14.634  -0.967  1.00  0.00     0.024 A 
HETATM   26  C   UNL     1      39.979 -15.041   0.307  1.00  0.00     0.011 A 
ENDBRANCH  14  20
ENDBRANCH   1  14
TORSDOF 5
ENDMDL
