MODEL 1
REMARK VINA RESULT:      -8.2      0.000      0.000
REMARK  5 active torsions:
REMARK  status: ('A' for Active; 'I' for Inactive)
REMARK    1  A    between atoms: O_2  and  C_3 
REMARK    2  A    between atoms: C_5  and  C_6 
REMARK    3  A    between atoms: C_10  and  C_11 
REMARK       I    between atoms: C_11  and  N_12 
REMARK    4  A    between atoms: N_12  and  C_13 
REMARK    5  A    between atoms: C_13  and  C_14 
ROOT
HETATM    1  C   UNL     1      43.311 -16.430   4.758  1.00  0.00     0.089 A 
HETATM    2  N   UNL     1      43.105 -15.848   3.566  1.00  0.00    -0.174 NA
HETATM    3  N   UNL     1      42.969 -14.543   3.845  1.00  0.00    -0.272 N 
HETATM    4  H   UNL     1      42.789 -13.892   3.086  1.00  0.00     0.189 HD
HETATM    5  C   UNL     1      43.110 -14.233   5.169  1.00  0.00     0.120 A 
HETATM    6  C   UNL     1      43.326 -15.448   5.788  1.00  0.00     0.071 A 
ENDROOT
BRANCH   5   7
HETATM    7  C   UNL     1      43.021 -12.877   5.640  1.00  0.00     0.269 C 
HETATM    8  N   UNL     1      44.218 -12.305   5.993  1.00  0.00    -0.355 N 
HETATM    9  H   UNL     1      45.067 -12.848   5.930  1.00  0.00     0.162 HD
HETATM   10  O   UNL     1      41.950 -12.283   5.714  1.00  0.00    -0.266 OA
BRANCH   8  11
HETATM   11  C   UNL     1      44.316 -10.963   6.528  1.00  0.00     0.128 C 
BRANCH  11  12
HETATM   12  C   UNL     1      44.329 -10.952   8.055  1.00  0.00     0.012 C 
HETATM   13  C   UNL     1      45.646 -10.455   8.713  1.00  0.00     0.014 C 
HETATM   14  C   UNL     1      45.143 -10.124  10.123  1.00  0.00     0.017 C 
HETATM   15  C   UNL     1      45.954  -9.051   8.245  1.00  0.00    -0.025 C 
HETATM   16  C   UNL     1      44.112  -9.109   9.621  1.00  0.00     0.009 C 
HETATM   17  C   UNL     1      45.026  -8.245   8.782  1.00  0.00    -0.026 C 
HETATM   18  C   UNL     1      43.269  -9.977   8.662  1.00  0.00     0.015 C 
ENDBRANCH  11  12
ENDBRANCH   8  11
ENDBRANCH   5   7
BRANCH   1  19
HETATM   19  C   UNL     1      43.497 -17.878   4.892  1.00  0.00    -0.003 A 
HETATM   20  C   UNL     1      43.690 -18.676   3.749  1.00  0.00     0.050 A 
HETATM   21  C   UNL     1      43.885 -20.054   3.864  1.00  0.00     0.069 A 
HETATM   22  C   UNL     1      43.884 -20.642   5.130  1.00  0.00     0.037 A 
HETATM   23  C   UNL     1      43.686 -19.867   6.272  1.00  0.00     0.004 A 
HETATM   24  C   UNL     1      43.493 -18.490   6.152  1.00  0.00     0.014 A 
BRANCH  21  25
HETATM   25  O   UNL     1      44.090 -20.927   2.831  1.00  0.00    -0.356 OA
HETATM   26  C   UNL     1      43.573 -20.549   1.560  1.00  0.00     0.210 C 
ENDBRANCH  21  25
ENDBRANCH   1  19
TORSDOF 5
ENDMDL
MODEL 2
REMARK VINA RESULT:      -8.0      1.499      2.267
REMARK  5 active torsions:
REMARK  status: ('A' for Active; 'I' for Inactive)
REMARK    1  A    between atoms: O_2  and  C_3 
REMARK    2  A    between atoms: C_5  and  C_6 
REMARK    3  A    between atoms: C_10  and  C_11 
REMARK       I    between atoms: C_11  and  N_12 
REMARK    4  A    between atoms: N_12  and  C_13 
REMARK    5  A    between atoms: C_13  and  C_14 
ROOT
HETATM    1  C   UNL     1      42.139 -15.458   4.952  1.00  0.00     0.089 A 
HETATM    2  N   UNL     1      41.114 -15.559   5.812  1.00  0.00    -0.174 NA
HETATM    3  N   UNL     1      40.907 -14.305   6.242  1.00  0.00    -0.272 N 
HETATM    4  H   UNL     1      40.174 -14.132   6.923  1.00  0.00     0.189 HD
HETATM    5  C   UNL     1      41.731 -13.374   5.676  1.00  0.00     0.120 A 
HETATM    6  C   UNL     1      42.551 -14.100   4.835  1.00  0.00     0.071 A 
ENDROOT
BRANCH   5   7
HETATM    7  C   UNL     1      41.629 -11.977   6.002  1.00  0.00     0.269 C 
HETATM    8  N   UNL     1      42.737 -11.440   6.612  1.00  0.00    -0.355 N 
HETATM    9  H   UNL     1      43.528 -12.032   6.815  1.00  0.00     0.162 HD
HETATM   10  O   UNL     1      40.624 -11.320   5.747  1.00  0.00    -0.266 OA
BRANCH   8  11
HETATM   11  C   UNL     1      42.798 -10.061   7.049  1.00  0.00     0.128 C 
BRANCH  11  12
HETATM   12  C   UNL     1      43.408  -9.926   8.442  1.00  0.00     0.012 C 
HETATM   13  C   UNL     1      44.660 -10.805   8.716  1.00  0.00     0.014 C 
HETATM   14  C   UNL     1      45.248 -10.079   9.931  1.00  0.00     0.017 C 
HETATM   15  C   UNL     1      45.742 -10.480   7.711  1.00  0.00    -0.025 C 
HETATM   16  C   UNL     1      45.398  -8.749   9.186  1.00  0.00     0.009 C 
HETATM   17  C   UNL     1      46.177  -9.242   7.988  1.00  0.00    -0.026 C 
HETATM   18  C   UNL     1      43.946  -8.487   8.731  1.00  0.00     0.015 C 
ENDBRANCH  11  12
ENDBRANCH   8  11
ENDBRANCH   5   7
BRANCH   1  19
HETATM   19  C   UNL     1      42.690 -16.629   4.261  1.00  0.00    -0.003 A 
HETATM   20  C   UNL     1      43.434 -17.586   4.974  1.00  0.00     0.050 A 
HETATM   21  C   UNL     1      43.950 -18.713   4.331  1.00  0.00     0.069 A 
HETATM   22  C   UNL     1      43.725 -18.885   2.964  1.00  0.00     0.037 A 
HETATM   23  C   UNL     1      42.997 -17.941   2.242  1.00  0.00     0.004 A 
HETATM   24  C   UNL     1      42.481 -16.817   2.888  1.00  0.00     0.014 A 
BRANCH  21  25
HETATM   25  O   UNL     1      44.679 -19.712   4.917  1.00  0.00    -0.356 OA
HETATM   26  C   UNL     1      43.978 -20.905   5.251  1.00  0.00     0.210 C 
ENDBRANCH  21  25
ENDBRANCH   1  19
TORSDOF 5
ENDMDL
MODEL 3
REMARK VINA RESULT:      -8.0      4.582      7.124
REMARK  5 active torsions:
REMARK  status: ('A' for Active; 'I' for Inactive)
REMARK    1  A    between atoms: O_2  and  C_3 
REMARK    2  A    between atoms: C_5  and  C_6 
REMARK    3  A    between atoms: C_10  and  C_11 
REMARK       I    between atoms: C_11  and  N_12 
REMARK    4  A    between atoms: N_12  and  C_13 
REMARK    5  A    between atoms: C_13  and  C_14 
ROOT
HETATM    1  C   UNL     1      43.216 -16.390   4.256  1.00  0.00     0.089 A 
HETATM    2  N   UNL     1      43.322 -15.446   5.203  1.00  0.00    -0.174 NA
HETATM    3  N   UNL     1      43.043 -14.297   4.569  1.00  0.00    -0.272 N 
HETATM    4  H   UNL     1      43.074 -13.426   5.090  1.00  0.00     0.189 HD
HETATM    5  C   UNL     1      42.725 -14.447   3.248  1.00  0.00     0.120 A 
HETATM    6  C   UNL     1      42.838 -15.803   3.016  1.00  0.00     0.071 A 
ENDROOT
BRANCH   5   7
HETATM    7  C   UNL     1      42.374 -13.322   2.424  1.00  0.00     0.269 C 
HETATM    8  N   UNL     1      41.490 -13.598   1.410  1.00  0.00    -0.355 N 
HETATM    9  H   UNL     1      41.160 -14.543   1.281  1.00  0.00     0.162 HD
HETATM   10  O   UNL     1      42.832 -12.200   2.622  1.00  0.00    -0.266 OA
BRANCH   8  11
HETATM   11  C   UNL     1      41.056 -12.598   0.456  1.00  0.00     0.128 C 
BRANCH  11  12
HETATM   12  C   UNL     1      39.727 -12.967  -0.199  1.00  0.00     0.012 C 
HETATM   13  C   UNL     1      39.421 -12.256  -1.547  1.00  0.00     0.014 C 
HETATM   14  C   UNL     1      38.339 -13.185  -2.111  1.00  0.00     0.017 C 
HETATM   15  C   UNL     1      40.519 -12.554  -2.543  1.00  0.00    -0.025 C 
HETATM   16  C   UNL     1      39.249 -14.417  -2.088  1.00  0.00     0.009 C 
HETATM   17  C   UNL     1      40.421 -13.854  -2.859  1.00  0.00    -0.026 C 
HETATM   18  C   UNL     1      39.647 -14.476  -0.597  1.00  0.00     0.015 C 
ENDBRANCH  11  12
ENDBRANCH   8  11
ENDBRANCH   5   7
BRANCH   1  19
HETATM   19  C   UNL     1      43.460 -17.808   4.543  1.00  0.00    -0.003 A 
HETATM   20  C   UNL     1      43.632 -18.724   3.490  1.00  0.00     0.050 A 
HETATM   21  C   UNL     1      43.881 -20.074   3.751  1.00  0.00     0.069 A 
HETATM   22  C   UNL     1      43.956 -20.512   5.074  1.00  0.00     0.037 A 
HETATM   23  C   UNL     1      43.779 -19.619   6.129  1.00  0.00     0.004 A 
HETATM   24  C   UNL     1      43.532 -18.271   5.864  1.00  0.00     0.014 A 
BRANCH  21  25
HETATM   25  O   UNL     1      44.072 -21.053   2.815  1.00  0.00    -0.356 OA
HETATM   26  C   UNL     1      43.710 -20.738   1.475  1.00  0.00     0.210 C 
ENDBRANCH  21  25
ENDBRANCH   1  19
TORSDOF 5
ENDMDL
MODEL 4
REMARK VINA RESULT:      -7.9      1.788      2.877
REMARK  5 active torsions:
REMARK  status: ('A' for Active; 'I' for Inactive)
REMARK    1  A    between atoms: O_2  and  C_3 
REMARK    2  A    between atoms: C_5  and  C_6 
REMARK    3  A    between atoms: C_10  and  C_11 
REMARK       I    between atoms: C_11  and  N_12 
REMARK    4  A    between atoms: N_12  and  C_13 
REMARK    5  A    between atoms: C_13  and  C_14 
ROOT
HETATM    1  C   UNL     1      43.127 -14.923   5.447  1.00  0.00     0.089 A 
HETATM    2  N   UNL     1      42.905 -15.021   6.767  1.00  0.00    -0.174 NA
HETATM    3  N   UNL     1      42.766 -13.752   7.183  1.00  0.00    -0.272 N 
HETATM    4  H   UNL     1      42.601 -13.571   8.168  1.00  0.00     0.189 HD
HETATM    5  C   UNL     1      42.854 -12.822   6.185  1.00  0.00     0.120 A 
HETATM    6  C   UNL     1      43.097 -13.559   5.043  1.00  0.00     0.071 A 
ENDROOT
BRANCH   5   7
HETATM    7  C   UNL     1      42.702 -11.416   6.449  1.00  0.00     0.269 C 
HETATM    8  N   UNL     1      43.110 -11.012   7.696  1.00  0.00    -0.355 N 
HETATM    9  H   UNL     1      43.461 -11.695   8.351  1.00  0.00     0.162 HD
HETATM   10  O   UNL     1      42.245 -10.642   5.613  1.00  0.00    -0.266 OA
BRANCH   8  11
HETATM   11  C   UNL     1      42.994  -9.642   8.151  1.00  0.00     0.128 C 
BRANCH  11  12
HETATM   12  C   UNL     1      43.757  -9.401   9.452  1.00  0.00     0.012 C 
HETATM   13  C   UNL     1      43.154  -8.324  10.396  1.00  0.00     0.014 C 
HETATM   14  C   UNL     1      43.841  -8.697  11.715  1.00  0.00     0.017 C 
HETATM   15  C   UNL     1      41.737  -8.703  10.763  1.00  0.00    -0.025 C 
HETATM   16  C   UNL     1      43.274 -10.119  11.720  1.00  0.00     0.009 C 
HETATM   17  C   UNL     1      41.810  -9.787  11.550  1.00  0.00    -0.026 C 
HETATM   18  C   UNL     1      43.797 -10.663  10.373  1.00  0.00     0.015 C 
ENDBRANCH  11  12
ENDBRANCH   8  11
ENDBRANCH   5   7
BRANCH   1  19
HETATM   19  C   UNL     1      43.347 -16.106   4.609  1.00  0.00    -0.003 A 
HETATM   20  C   UNL     1      43.855 -17.289   5.174  1.00  0.00     0.050 A 
HETATM   21  C   UNL     1      44.054 -18.428   4.390  1.00  0.00     0.069 A 
HETATM   22  C   UNL     1      43.747 -18.383   3.029  1.00  0.00     0.037 A 
HETATM   23  C   UNL     1      43.251 -17.216   2.452  1.00  0.00     0.004 A 
HETATM   24  C   UNL     1      43.052 -16.081   3.239  1.00  0.00     0.014 A 
BRANCH  21  25
HETATM   25  O   UNL     1      44.532 -19.633   4.826  1.00  0.00    -0.356 OA
HETATM   26  C   UNL     1      43.962 -20.798   4.239  1.00  0.00     0.210 C 
ENDBRANCH  21  25
ENDBRANCH   1  19
TORSDOF 5
ENDMDL
MODEL 5
REMARK VINA RESULT:      -7.8      5.284      7.733
REMARK  5 active torsions:
REMARK  status: ('A' for Active; 'I' for Inactive)
REMARK    1  A    between atoms: O_2  and  C_3 
REMARK    2  A    between atoms: C_5  and  C_6 
REMARK    3  A    between atoms: C_10  and  C_11 
REMARK       I    between atoms: C_11  and  N_12 
REMARK    4  A    between atoms: N_12  and  C_13 
REMARK    5  A    between atoms: C_13  and  C_14 
ROOT
HETATM    1  C   UNL     1      41.544 -15.678   4.098  1.00  0.00     0.089 A 
HETATM    2  N   UNL     1      40.949 -15.035   5.114  1.00  0.00    -0.174 NA
HETATM    3  N   UNL     1      40.214 -14.079   4.527  1.00  0.00    -0.272 N 
HETATM    4  H   UNL     1      39.675 -13.444   5.108  1.00  0.00     0.189 HD
HETATM    5  C   UNL     1      40.271 -14.085   3.162  1.00  0.00     0.120 A 
HETATM    6  C   UNL     1      41.138 -15.115   2.855  1.00  0.00     0.071 A 
ENDROOT
BRANCH   5   7
HETATM    7  C   UNL     1      39.523 -13.145   2.370  1.00  0.00     0.269 C 
HETATM    8  N   UNL     1      39.856 -13.113   1.038  1.00  0.00    -0.355 N 
HETATM    9  H   UNL     1      40.596 -13.707   0.696  1.00  0.00     0.162 HD
HETATM   10  O   UNL     1      38.650 -12.433   2.857  1.00  0.00    -0.266 OA
BRANCH   8  11
HETATM   11  C   UNL     1      39.237 -12.200   0.099  1.00  0.00     0.128 C 
BRANCH  11  12
HETATM   12  C   UNL     1      38.592 -12.933  -1.074  1.00  0.00     0.012 C 
HETATM   13  C   UNL     1      38.792 -12.276  -2.469  1.00  0.00     0.014 C 
HETATM   14  C   UNL     1      38.473 -13.465  -3.383  1.00  0.00     0.017 C 
HETATM   15  C   UNL     1      40.269 -12.149  -2.767  1.00  0.00    -0.025 C 
HETATM   16  C   UNL     1      39.579 -14.343  -2.788  1.00  0.00     0.009 C 
HETATM   17  C   UNL     1      40.742 -13.391  -2.948  1.00  0.00    -0.026 C 
HETATM   18  C   UNL     1      39.185 -14.362  -1.295  1.00  0.00     0.015 C 
ENDBRANCH  11  12
ENDBRANCH   8  11
ENDBRANCH   5   7
BRANCH   1  19
HETATM   19  C   UNL     1      42.458 -16.803   4.321  1.00  0.00    -0.003 A 
HETATM   20  C   UNL     1      42.932 -17.556   3.232  1.00  0.00     0.050 A 
HETATM   21  C   UNL     1      43.816 -18.619   3.429  1.00  0.00     0.069 A 
HETATM   22  C   UNL     1      44.227 -18.936   4.725  1.00  0.00     0.037 A 
HETATM   23  C   UNL     1      43.759 -18.206   5.816  1.00  0.00     0.004 A 
HETATM   24  C   UNL     1      42.877 -17.143   5.614  1.00  0.00     0.014 A 
BRANCH  21  25
HETATM   25  O   UNL     1      44.350 -19.415   2.452  1.00  0.00    -0.356 OA
HETATM   26  C   UNL     1      43.488 -20.393   1.881  1.00  0.00     0.210 C 
ENDBRANCH  21  25
ENDBRANCH   1  19
TORSDOF 5
ENDMDL
MODEL 6
REMARK VINA RESULT:      -7.8      5.585      7.865
REMARK  5 active torsions:
REMARK  status: ('A' for Active; 'I' for Inactive)
REMARK    1  A    between atoms: O_2  and  C_3 
REMARK    2  A    between atoms: C_5  and  C_6 
REMARK    3  A    between atoms: C_10  and  C_11 
REMARK       I    between atoms: C_11  and  N_12 
REMARK    4  A    between atoms: N_12  and  C_13 
REMARK    5  A    between atoms: C_13  and  C_14 
ROOT
HETATM    1  C   UNL     1      42.393 -16.203   2.361  1.00  0.00     0.089 A 
HETATM    2  N   UNL     1      43.159 -15.478   1.532  1.00  0.00    -0.174 NA
HETATM    3  N   UNL     1      42.299 -14.664   0.900  1.00  0.00    -0.272 N 
HETATM    4  H   UNL     1      42.653 -14.020   0.200  1.00  0.00     0.189 HD
HETATM    5  C   UNL     1      41.000 -14.799   1.303  1.00  0.00     0.120 A 
HETATM    6  C   UNL     1      41.032 -15.802   2.251  1.00  0.00     0.071 A 
ENDROOT
BRANCH   5   7
HETATM    7  C   UNL     1      39.950 -13.986   0.749  1.00  0.00     0.269 C 
HETATM    8  N   UNL     1      39.602 -14.289  -0.544  1.00  0.00    -0.355 N 
HETATM    9  H   UNL     1      40.095 -15.021  -1.034  1.00  0.00     0.162 HD
HETATM   10  O   UNL     1      39.408 -13.094   1.394  1.00  0.00    -0.266 OA
BRANCH   8  11
HETATM   11  C   UNL     1      38.595 -13.549  -1.277  1.00  0.00     0.128 C 
BRANCH  11  12
HETATM   12  C   UNL     1      39.179 -12.829  -2.490  1.00  0.00     0.012 C 
HETATM   13  C   UNL     1      39.156 -11.277  -2.427  1.00  0.00     0.014 C 
HETATM   14  C   UNL     1      40.203 -10.940  -3.495  1.00  0.00     0.017 C 
HETATM   15  C   UNL     1      39.915 -10.804  -1.207  1.00  0.00    -0.025 C 
HETATM   16  C   UNL     1      41.317 -11.716  -2.785  1.00  0.00     0.009 C 
HETATM   17  C   UNL     1      41.211 -11.078  -1.419  1.00  0.00    -0.026 C 
HETATM   18  C   UNL     1      40.699 -13.128  -2.698  1.00  0.00     0.015 C 
ENDBRANCH  11  12
ENDBRANCH   8  11
ENDBRANCH   5   7
BRANCH   1  19
HETATM   19  C   UNL     1      42.959 -17.235   3.236  1.00  0.00    -0.003 A 
HETATM   20  C   UNL     1      42.939 -17.069   4.632  1.00  0.00     0.050 A 
HETATM   21  C   UNL     1      43.460 -18.051   5.477  1.00  0.00     0.069 A 
HETATM   22  C   UNL     1      44.010 -19.208   4.923  1.00  0.00     0.037 A 
HETATM   23  C   UNL     1      44.046 -19.385   3.540  1.00  0.00     0.004 A 
HETATM   24  C   UNL     1      43.522 -18.401   2.700  1.00  0.00     0.014 A 
BRANCH  21  25
HETATM   25  O   UNL     1      43.489 -18.006   6.844  1.00  0.00    -0.356 OA
HETATM   26  C   UNL     1      43.821 -16.756   7.436  1.00  0.00     0.210 C 
ENDBRANCH  21  25
ENDBRANCH   1  19
TORSDOF 5
ENDMDL
MODEL 7
REMARK VINA RESULT:      -7.7      5.089      7.421
REMARK  5 active torsions:
REMARK  status: ('A' for Active; 'I' for Inactive)
REMARK    1  A    between atoms: O_2  and  C_3 
REMARK    2  A    between atoms: C_5  and  C_6 
REMARK    3  A    between atoms: C_10  and  C_11 
REMARK       I    between atoms: C_11  and  N_12 
REMARK    4  A    between atoms: N_12  and  C_13 
REMARK    5  A    between atoms: C_13  and  C_14 
ROOT
HETATM    1  C   UNL     1      42.873 -15.385   3.129  1.00  0.00     0.089 A 
HETATM    2  N   UNL     1      42.758 -14.668   4.258  1.00  0.00    -0.174 NA
HETATM    3  N   UNL     1      42.500 -13.419   3.842  1.00  0.00    -0.272 N 
HETATM    4  H   UNL     1      42.384 -12.683   4.531  1.00  0.00     0.189 HD
HETATM    5  C   UNL     1      42.405 -13.287   2.484  1.00  0.00     0.120 A 
HETATM    6  C   UNL     1      42.652 -14.554   1.995  1.00  0.00     0.071 A 
ENDROOT
BRANCH   5   7
HETATM    7  C   UNL     1      42.107 -12.023   1.867  1.00  0.00     0.269 C 
HETATM    8  N   UNL     1      41.230 -12.084   0.812  1.00  0.00    -0.355 N 
HETATM    9  H   UNL     1      40.870 -12.979   0.516  1.00  0.00     0.162 HD
HETATM   10  O   UNL     1      42.600 -10.972   2.265  1.00  0.00    -0.266 OA
BRANCH   8  11
HETATM   11  C   UNL     1      40.846 -10.917   0.045  1.00  0.00     0.128 C 
BRANCH  11  12
HETATM   12  C   UNL     1      39.637 -11.187  -0.847  1.00  0.00     0.012 C 
HETATM   13  C   UNL     1      39.900 -11.116  -2.377  1.00  0.00     0.014 C 
HETATM   14  C   UNL     1      38.683 -11.885  -2.904  1.00  0.00     0.017 C 
HETATM   15  C   UNL     1      40.977 -12.107  -2.757  1.00  0.00    -0.025 C 
HETATM   16  C   UNL     1      39.031 -13.159  -2.128  1.00  0.00     0.009 C 
HETATM   17  C   UNL     1      40.457 -13.333  -2.597  1.00  0.00    -0.026 C 
HETATM   18  C   UNL     1      39.070 -12.634  -0.677  1.00  0.00     0.015 C 
ENDBRANCH  11  12
ENDBRANCH   8  11
ENDBRANCH   5   7
BRANCH   1  19
HETATM   19  C   UNL     1      43.171 -16.821   3.150  1.00  0.00    -0.003 A 
HETATM   20  C   UNL     1      43.655 -17.426   4.323  1.00  0.00     0.050 A 
HETATM   21  C   UNL     1      43.927 -18.795   4.361  1.00  0.00     0.069 A 
HETATM   22  C   UNL     1      43.720 -19.566   3.216  1.00  0.00     0.037 A 
HETATM   23  C   UNL     1      43.250 -18.980   2.042  1.00  0.00     0.004 A 
HETATM   24  C   UNL     1      42.977 -17.611   2.009  1.00  0.00     0.014 A 
BRANCH  21  25
HETATM   25  O   UNL     1      44.390 -19.496   5.442  1.00  0.00    -0.356 OA
HETATM   26  C   UNL     1      44.178 -20.903   5.431  1.00  0.00     0.210 C 
ENDBRANCH  21  25
ENDBRANCH   1  19
TORSDOF 5
ENDMDL
MODEL 8
REMARK VINA RESULT:      -7.6      5.788      7.655
REMARK  5 active torsions:
REMARK  status: ('A' for Active; 'I' for Inactive)
REMARK    1  A    between atoms: O_2  and  C_3 
REMARK    2  A    between atoms: C_5  and  C_6 
REMARK    3  A    between atoms: C_10  and  C_11 
REMARK       I    between atoms: C_11  and  N_12 
REMARK    4  A    between atoms: N_12  and  C_13 
REMARK    5  A    between atoms: C_13  and  C_14 
ROOT
HETATM    1  C   UNL     1      41.370 -16.080   2.408  1.00  0.00     0.089 A 
HETATM    2  N   UNL     1      40.149 -15.958   2.949  1.00  0.00    -0.174 NA
HETATM    3  N   UNL     1      39.496 -15.121   2.128  1.00  0.00    -0.272 N 
HETATM    4  H   UNL     1      38.538 -14.864   2.345  1.00  0.00     0.189 HD
HETATM    5  C   UNL     1      40.226 -14.712   1.047  1.00  0.00     0.120 A 
HETATM    6  C   UNL     1      41.456 -15.318   1.209  1.00  0.00     0.071 A 
ENDROOT
BRANCH   5   7
HETATM    7  C   UNL     1      39.672 -13.835   0.051  1.00  0.00     0.269 C 
HETATM    8  N   UNL     1      39.493 -12.535   0.457  1.00  0.00    -0.355 N 
HETATM    9  H   UNL     1      39.726 -12.272   1.403  1.00  0.00     0.162 HD
HETATM   10  O   UNL     1      39.388 -14.226  -1.077  1.00  0.00    -0.266 OA
BRANCH   8  11
HETATM   11  C   UNL     1      38.910 -11.522  -0.398  1.00  0.00     0.128 C 
BRANCH  11  12
HETATM   12  C   UNL     1      39.853 -10.341  -0.617  1.00  0.00     0.012 C 
HETATM   13  C   UNL     1      41.249 -10.696  -1.201  1.00  0.00     0.014 C 
HETATM   14  C   UNL     1      41.689  -9.323  -1.721  1.00  0.00     0.017 C 
HETATM   15  C   UNL     1      41.085 -11.400  -2.529  1.00  0.00    -0.025 C 
HETATM   16  C   UNL     1      40.484  -9.184  -2.657  1.00  0.00     0.009 C 
HETATM   17  C   UNL     1      40.615 -10.494  -3.399  1.00  0.00    -0.026 C 
HETATM   18  C   UNL     1      39.309  -9.317  -1.665  1.00  0.00     0.015 C 
ENDBRANCH  11  12
ENDBRANCH   8  11
ENDBRANCH   5   7
BRANCH   1  19
HETATM   19  C   UNL     1      42.410 -16.914   3.021  1.00  0.00    -0.003 A 
HETATM   20  C   UNL     1      42.947 -16.567   4.273  1.00  0.00     0.050 A 
HETATM   21  C   UNL     1      43.926 -17.361   4.876  1.00  0.00     0.069 A 
HETATM   22  C   UNL     1      44.375 -18.509   4.220  1.00  0.00     0.037 A 
HETATM   23  C   UNL     1      43.858 -18.861   2.974  1.00  0.00     0.004 A 
HETATM   24  C   UNL     1      42.879 -18.066   2.377  1.00  0.00     0.014 A 
BRANCH  21  25
HETATM   25  O   UNL     1      44.515 -17.132   6.089  1.00  0.00    -0.356 OA
HETATM   26  C   UNL     1      43.647 -17.017   7.211  1.00  0.00     0.210 C 
ENDBRANCH  21  25
ENDBRANCH   1  19
TORSDOF 5
ENDMDL
MODEL 9
REMARK VINA RESULT:      -7.6      2.400      3.717
REMARK  5 active torsions:
REMARK  status: ('A' for Active; 'I' for Inactive)
REMARK    1  A    between atoms: O_2  and  C_3 
REMARK    2  A    between atoms: C_5  and  C_6 
REMARK    3  A    between atoms: C_10  and  C_11 
REMARK       I    between atoms: C_11  and  N_12 
REMARK    4  A    between atoms: N_12  and  C_13 
REMARK    5  A    between atoms: C_13  and  C_14 
ROOT
HETATM    1  C   UNL     1      43.340 -13.638   6.258  1.00  0.00     0.089 A 
HETATM    2  N   UNL     1      42.208 -12.922   6.185  1.00  0.00    -0.174 NA
HETATM    3  N   UNL     1      42.510 -11.750   6.765  1.00  0.00    -0.272 N 
HETATM    4  H   UNL     1      41.791 -11.037   6.840  1.00  0.00     0.189 HD
HETATM    5  C   UNL     1      43.806 -11.649   7.187  1.00  0.00     0.120 A 
HETATM    6  C   UNL     1      44.369 -12.871   6.875  1.00  0.00     0.071 A 
ENDROOT
BRANCH   5   7
HETATM    7  C   UNL     1      44.308 -10.452   7.806  1.00  0.00     0.269 C 
HETATM    8  N   UNL     1      43.456  -9.865   8.710  1.00  0.00    -0.355 N 
HETATM    9  H   UNL     1      42.547 -10.271   8.874  1.00  0.00     0.162 HD
HETATM   10  O   UNL     1      45.417  -9.998   7.543  1.00  0.00    -0.266 OA
BRANCH   8  11
HETATM   11  C   UNL     1      43.776  -8.632   9.399  1.00  0.00     0.128 C 
BRANCH  11  12
HETATM   12  C   UNL     1      43.879  -8.827  10.910  1.00  0.00     0.012 C 
HETATM   13  C   UNL     1      42.886  -7.992  11.765  1.00  0.00     0.014 C 
HETATM   14  C   UNL     1      42.932  -8.772  13.084  1.00  0.00     0.017 C 
HETATM   15  C   UNL     1      41.466  -8.314  11.360  1.00  0.00    -0.025 C 
HETATM   16  C   UNL     1      42.468 -10.081  12.438  1.00  0.00     0.009 C 
HETATM   17  C   UNL     1      41.220  -9.572  11.755  1.00  0.00    -0.026 C 
HETATM   18  C   UNL     1      43.549 -10.288  11.355  1.00  0.00     0.015 C 
ENDBRANCH  11  12
ENDBRANCH   8  11
ENDBRANCH   5   7
BRANCH   1  19
HETATM   19  C   UNL     1      43.427 -15.006   5.738  1.00  0.00    -0.003 A 
HETATM   20  C   UNL     1      42.762 -15.355   4.548  1.00  0.00     0.050 A 
HETATM   21  C   UNL     1      42.850 -16.650   4.034  1.00  0.00     0.069 A 
HETATM   22  C   UNL     1      43.604 -17.607   4.715  1.00  0.00     0.037 A 
HETATM   23  C   UNL     1      44.261 -17.281   5.900  1.00  0.00     0.004 A 
HETATM   24  C   UNL     1      44.173 -15.984   6.409  1.00  0.00     0.014 A 
BRANCH  21  25
HETATM   25  O   UNL     1      42.258 -17.104   2.887  1.00  0.00    -0.356 OA
HETATM   26  C   UNL     1      42.887 -18.200   2.232  1.00  0.00     0.210 C 
ENDBRANCH  21  25
ENDBRANCH   1  19
TORSDOF 5
ENDMDL
MODEL 10
REMARK VINA RESULT:      -7.5      6.480      8.558
REMARK  5 active torsions:
REMARK  status: ('A' for Active; 'I' for Inactive)
REMARK    1  A    between atoms: O_2  and  C_3 
REMARK    2  A    between atoms: C_5  and  C_6 
REMARK    3  A    between atoms: C_10  and  C_11 
REMARK       I    between atoms: C_11  and  N_12 
REMARK    4  A    between atoms: N_12  and  C_13 
REMARK    5  A    between atoms: C_13  and  C_14 
ROOT
HETATM    1  C   UNL     1      41.439 -16.106   2.197  1.00  0.00     0.089 A 
HETATM    2  N   UNL     1      40.133 -16.010   2.490  1.00  0.00    -0.174 NA
HETATM    3  N   UNL     1      39.647 -15.136   1.595  1.00  0.00    -0.272 N 
HETATM    4  H   UNL     1      38.663 -14.890   1.629  1.00  0.00     0.189 HD
HETATM    5  C   UNL     1      40.573 -14.676   0.700  1.00  0.00     0.120 A 
HETATM    6  C   UNL     1      41.752 -15.287   1.075  1.00  0.00     0.071 A 
ENDROOT
BRANCH   5   7
HETATM    7  C   UNL     1      40.219 -13.753  -0.345  1.00  0.00     0.269 C 
HETATM    8  N   UNL     1      39.090 -14.084  -1.054  1.00  0.00    -0.355 N 
HETATM    9  H   UNL     1      38.595 -14.935  -0.833  1.00  0.00     0.162 HD
HETATM   10  O   UNL     1      40.880 -12.746  -0.576  1.00  0.00    -0.266 OA
BRANCH   8  11
HETATM   11  C   UNL     1      38.606 -13.295  -2.168  1.00  0.00     0.128 C 
BRANCH  11  12
HETATM   12  C   UNL     1      37.492 -12.337  -1.753  1.00  0.00     0.012 C 
HETATM   13  C   UNL     1      37.956 -10.944  -1.243  1.00  0.00     0.014 C 
HETATM   14  C   UNL     1      36.657 -10.146  -1.396  1.00  0.00     0.017 C 
HETATM   15  C   UNL     1      38.774 -10.256  -2.313  1.00  0.00    -0.025 C 
HETATM   16  C   UNL     1      36.556 -10.413  -2.901  1.00  0.00     0.009 C 
HETATM   17  C   UNL     1      37.934  -9.947  -3.312  1.00  0.00    -0.026 C 
HETATM   18  C   UNL     1      36.548 -11.956  -2.938  1.00  0.00     0.015 C 
ENDBRANCH  11  12
ENDBRANCH   8  11
ENDBRANCH   5   7
BRANCH   1  19
HETATM   19  C   UNL     1      42.344 -16.966   2.965  1.00  0.00    -0.003 A 
HETATM   20  C   UNL     1      42.538 -16.740   4.340  1.00  0.00     0.050 A 
HETATM   21  C   UNL     1      43.385 -17.563   5.087  1.00  0.00     0.069 A 
HETATM   22  C   UNL     1      44.048 -18.616   4.455  1.00  0.00     0.037 A 
HETATM   23  C   UNL     1      43.873 -18.848   3.091  1.00  0.00     0.004 A 
HETATM   24  C   UNL     1      43.024 -18.025   2.349  1.00  0.00     0.014 A 
BRANCH  21  25
HETATM   25  O   UNL     1      43.646 -17.448   6.425  1.00  0.00    -0.356 OA
HETATM   26  C   UNL     1      44.574 -16.441   6.812  1.00  0.00     0.210 C 
ENDBRANCH  21  25
ENDBRANCH   1  19
TORSDOF 5
ENDMDL
