MODEL 1
REMARK VINA RESULT:     -10.3      0.000      0.000
REMARK  8 active torsions:
REMARK  status: ('A' for Active; 'I' for Inactive)
REMARK    1  A    between atoms: C_2  and  C_3 
REMARK    2  A    between atoms: C_6  and  N_7 
REMARK       I    between atoms: N_7  and  C_8 
REMARK    3  A    between atoms: C_8  and  C_9 
REMARK    4  A    between atoms: C_9  and  S_10 
REMARK    5  A    between atoms: S_10  and  C_11 
REMARK    6  A    between atoms: C_23  and  C_24 
REMARK    7  A    between atoms: C_24  and  C_25 
REMARK       I    between atoms: C_25  and  N_26 
REMARK    8  A    between atoms: N_26  and  C_27 
ROOT
HETATM    1  C   UNL     1      41.322  -9.964   7.103  1.00  0.00     0.178 A 
HETATM    2  N   UNL     1      41.001  -9.576   8.395  1.00  0.00    -0.241 N 
HETATM    3  C   UNL     1      41.946  -9.511   9.364  1.00  0.00     0.147 A 
HETATM    4  N   UNL     1      41.553  -9.250  10.572  1.00  0.00    -0.256 NA
HETATM    5  C   UNL     1      43.336  -9.754   8.980  1.00  0.00     0.039 A 
HETATM    6  C   UNL     1      43.571 -10.087   7.643  1.00  0.00     0.073 A 
HETATM    7  C   UNL     1      44.381  -9.653   9.905  1.00  0.00     0.018 A 
HETATM    8  C   UNL     1      45.687  -9.899   9.485  1.00  0.00     0.001 A 
HETATM    9  C   UNL     1      45.938 -10.247   8.158  1.00  0.00     0.002 A 
HETATM   10  C   UNL     1      44.884 -10.343   7.243  1.00  0.00     0.032 A 
HETATM   11  C   UNL     1      39.798  -9.231   8.968  1.00  0.00     0.257 A 
HETATM   12  O   UNL     1      38.716  -9.049   8.433  1.00  0.00    -0.270 OA
HETATM   13  C   UNL     1      40.078  -9.056  10.449  1.00  0.00     0.211 A 
HETATM   14  N   UNL     1      42.531 -10.201   6.701  1.00  0.00    -0.223 NA
ENDROOT
BRANCH   1  15
HETATM   15  S   UNL     1      40.055 -10.234   5.935  1.00  0.00    -0.082 SA
BRANCH  15  16
HETATM   16  C   UNL     1      39.807 -12.012   6.157  1.00  0.00     0.185 C 
BRANCH  16  17
HETATM   17  C   UNL     1      40.567 -12.888   5.168  1.00  0.00     0.231 C 
HETATM   18  N   UNL     1      40.413 -14.249   5.342  1.00  0.00    -0.327 N 
HETATM   19  H   UNL     1      39.689 -14.551   5.991  1.00  0.00     0.169 HD
HETATM   20  O   UNL     1      41.330 -12.354   4.364  1.00  0.00    -0.272 OA
BRANCH  18  21
HETATM   21  C   UNL     1      41.148 -15.287   4.734  1.00  0.00     0.034 A 
HETATM   22  C   UNL     1      40.897 -15.784   3.458  1.00  0.00     0.030 A 
HETATM   23  C   UNL     1      41.724 -16.771   2.902  1.00  0.00     0.010 A 
HETATM   24  C   UNL     1      42.826 -17.272   3.603  1.00  0.00    -0.055 A 
HETATM   25  C   UNL     1      43.053 -16.786   4.900  1.00  0.00     0.010 A 
HETATM   26  C   UNL     1      42.220 -15.814   5.458  1.00  0.00     0.030 A 
BRANCH  24  27
HETATM   27  C   UNL     1      43.782 -18.306   3.027  1.00  0.00     0.010 C 
HETATM   28  C   UNL     1      43.134 -19.332   2.090  1.00  0.00     0.015 C 
HETATM   29  C   UNL     1      44.535 -19.029   4.148  1.00  0.00     0.015 C 
ENDBRANCH  24  27
ENDBRANCH  18  21
ENDBRANCH  16  17
ENDBRANCH  15  16
ENDBRANCH   1  15
BRANCH  13  30
HETATM   30  C   UNL     1      39.328 -10.121  11.223  1.00  0.00     0.140 C 
BRANCH  30  31
HETATM   31  C   UNL     1      39.692 -10.093  12.685  1.00  0.00     0.220 C 
HETATM   32  N   UNL     1      40.196  -8.884  13.107  1.00  0.00    -0.356 N 
HETATM   33  H   UNL     1      40.275  -8.136  12.431  1.00  0.00     0.162 HD
HETATM   34  O   UNL     1      39.572 -11.078  13.405  1.00  0.00    -0.274 OA
BRANCH  32  35
HETATM   35  C   UNL     1      40.875  -8.732  14.388  1.00  0.00     0.084 C 
HETATM   36  C   UNL     1      42.383  -8.987  14.232  1.00  0.00     0.025 C 
HETATM   37  C   UNL     1      43.072  -7.888  13.422  1.00  0.00     0.002 C 
HETATM   38  C   UNL     1      42.819  -6.509  14.022  1.00  0.00     0.000 C 
HETATM   39  C   UNL     1      41.331  -6.226  14.202  1.00  0.00     0.002 C 
HETATM   40  C   UNL     1      40.621  -7.339  14.978  1.00  0.00     0.025 C 
ENDBRANCH  32  35
ENDBRANCH  30  31
ENDBRANCH  13  30
TORSDOF 8
ENDMDL
MODEL 2
REMARK VINA RESULT:     -10.3      1.542      2.110
REMARK  8 active torsions:
REMARK  status: ('A' for Active; 'I' for Inactive)
REMARK    1  A    between atoms: C_2  and  C_3 
REMARK    2  A    between atoms: C_6  and  N_7 
REMARK       I    between atoms: N_7  and  C_8 
REMARK    3  A    between atoms: C_8  and  C_9 
REMARK    4  A    between atoms: C_9  and  S_10 
REMARK    5  A    between atoms: S_10  and  C_11 
REMARK    6  A    between atoms: C_23  and  C_24 
REMARK    7  A    between atoms: C_24  and  C_25 
REMARK       I    between atoms: C_25  and  N_26 
REMARK    8  A    between atoms: N_26  and  C_27 
ROOT
HETATM    1  C   UNL     1      41.362 -10.676   6.606  1.00  0.00     0.178 A 
HETATM    2  N   UNL     1      40.981  -9.474   7.185  1.00  0.00    -0.241 N 
HETATM    3  C   UNL     1      41.862  -8.723   7.890  1.00  0.00     0.147 A 
HETATM    4  N   UNL     1      41.406  -7.671   8.496  1.00  0.00    -0.256 NA
HETATM    5  C   UNL     1      43.257  -9.161   7.927  1.00  0.00     0.039 A 
HETATM    6  C   UNL     1      43.558 -10.358   7.270  1.00  0.00     0.073 A 
HETATM    7  C   UNL     1      44.242  -8.417   8.585  1.00  0.00     0.018 A 
HETATM    8  C   UNL     1      45.555  -8.883   8.593  1.00  0.00     0.001 A 
HETATM    9  C   UNL     1      45.872 -10.083   7.955  1.00  0.00     0.002 A 
HETATM   10  C   UNL     1      44.877 -10.817   7.299  1.00  0.00     0.032 A 
HETATM   11  C   UNL     1      39.766  -8.828   7.221  1.00  0.00     0.257 A 
HETATM   12  O   UNL     1      38.736  -9.095   6.624  1.00  0.00    -0.270 OA
HETATM   13  C   UNL     1      39.957  -7.634   8.137  1.00  0.00     0.211 A 
HETATM   14  N   UNL     1      42.579 -11.123   6.610  1.00  0.00    -0.223 NA
ENDROOT
BRANCH   1  15
HETATM   15  S   UNL     1      40.162 -11.713   5.883  1.00  0.00    -0.082 SA
BRANCH  15  16
HETATM   16  C   UNL     1      41.133 -12.405   4.524  1.00  0.00     0.185 C 
BRANCH  16  17
HETATM   17  C   UNL     1      41.433 -13.894   4.649  1.00  0.00     0.231 C 
HETATM   18  N   UNL     1      42.619 -14.310   4.078  1.00  0.00    -0.327 N 
HETATM   19  H   UNL     1      43.263 -13.584   3.775  1.00  0.00     0.169 HD
HETATM   20  O   UNL     1      40.583 -14.632   5.146  1.00  0.00    -0.272 OA
BRANCH  18  21
HETATM   21  C   UNL     1      43.050 -15.633   3.849  1.00  0.00     0.034 A 
HETATM   22  C   UNL     1      43.591 -16.464   4.827  1.00  0.00     0.030 A 
HETATM   23  C   UNL     1      43.929 -17.791   4.527  1.00  0.00     0.010 A 
HETATM   24  C   UNL     1      43.720 -18.321   3.249  1.00  0.00    -0.055 A 
HETATM   25  C   UNL     1      43.203 -17.468   2.263  1.00  0.00     0.010 A 
HETATM   26  C   UNL     1      42.880 -16.141   2.559  1.00  0.00     0.030 A 
BRANCH  24  27
HETATM   27  C   UNL     1      44.024 -19.767   2.885  1.00  0.00     0.010 C 
HETATM   28  C   UNL     1      43.153 -20.347   1.765  1.00  0.00     0.015 C 
HETATM   29  C   UNL     1      43.944 -20.664   4.123  1.00  0.00     0.015 C 
ENDBRANCH  24  27
ENDBRANCH  18  21
ENDBRANCH  16  17
ENDBRANCH  15  16
ENDBRANCH   1  15
BRANCH  13  30
HETATM   30  C   UNL     1      39.093  -7.813   9.368  1.00  0.00     0.140 C 
BRANCH  30  31
HETATM   31  C   UNL     1      39.569  -8.971  10.207  1.00  0.00     0.220 C 
HETATM   32  N   UNL     1      40.558  -8.636  11.104  1.00  0.00    -0.356 N 
HETATM   33  H   UNL     1      40.873  -7.676  11.131  1.00  0.00     0.162 HD
HETATM   34  O   UNL     1      39.123 -10.104  10.066  1.00  0.00    -0.274 OA
BRANCH  32  35
HETATM   35  C   UNL     1      41.354  -9.646  11.792  1.00  0.00     0.084 C 
HETATM   36  C   UNL     1      42.826  -9.211  11.870  1.00  0.00     0.025 C 
HETATM   37  C   UNL     1      43.025  -8.018  12.804  1.00  0.00     0.002 C 
HETATM   38  C   UNL     1      42.474  -8.300  14.198  1.00  0.00     0.000 C 
HETATM   39  C   UNL     1      41.015  -8.746  14.158  1.00  0.00     0.002 C 
HETATM   40  C   UNL     1      40.795  -9.916  13.195  1.00  0.00     0.025 C 
ENDBRANCH  32  35
ENDBRANCH  30  31
ENDBRANCH  13  30
TORSDOF 8
ENDMDL
MODEL 3
REMARK VINA RESULT:      -9.7      3.337     10.975
REMARK  8 active torsions:
REMARK  status: ('A' for Active; 'I' for Inactive)
REMARK    1  A    between atoms: C_2  and  C_3 
REMARK    2  A    between atoms: C_6  and  N_7 
REMARK       I    between atoms: N_7  and  C_8 
REMARK    3  A    between atoms: C_8  and  C_9 
REMARK    4  A    between atoms: C_9  and  S_10 
REMARK    5  A    between atoms: S_10  and  C_11 
REMARK    6  A    between atoms: C_23  and  C_24 
REMARK    7  A    between atoms: C_24  and  C_25 
REMARK       I    between atoms: C_25  and  N_26 
REMARK    8  A    between atoms: N_26  and  C_27 
ROOT
HETATM    1  C   UNL     1      42.821 -15.232   5.780  1.00  0.00     0.178 A 
HETATM    2  N   UNL     1      41.824 -14.901   4.874  1.00  0.00    -0.241 N 
HETATM    3  C   UNL     1      41.665 -15.593   3.720  1.00  0.00     0.147 A 
HETATM    4  N   UNL     1      40.786 -15.156   2.872  1.00  0.00    -0.256 NA
HETATM    5  C   UNL     1      42.505 -16.772   3.509  1.00  0.00     0.039 A 
HETATM    6  C   UNL     1      43.446 -17.060   4.502  1.00  0.00     0.073 A 
HETATM    7  C   UNL     1      42.369 -17.575   2.372  1.00  0.00     0.018 A 
HETATM    8  C   UNL     1      43.198 -18.685   2.220  1.00  0.00     0.001 A 
HETATM    9  C   UNL     1      44.153 -18.979   3.193  1.00  0.00     0.002 A 
HETATM   10  C   UNL     1      44.277 -18.168   4.327  1.00  0.00     0.032 A 
HETATM   11  C   UNL     1      40.880 -13.899   4.888  1.00  0.00     0.257 A 
HETATM   12  O   UNL     1      40.597 -13.123   5.786  1.00  0.00    -0.270 OA
HETATM   13  C   UNL     1      40.181 -13.968   3.544  1.00  0.00     0.211 A 
HETATM   14  N   UNL     1      43.602 -16.258   5.649  1.00  0.00    -0.223 NA
ENDROOT
BRANCH   1  15
HETATM   15  S   UNL     1      43.128 -14.201   7.152  1.00  0.00    -0.082 SA
BRANCH  15  16
HETATM   16  C   UNL     1      44.170 -12.948   6.367  1.00  0.00     0.185 C 
BRANCH  16  17
HETATM   17  C   UNL     1      44.408 -11.700   7.208  1.00  0.00     0.231 C 
HETATM   18  N   UNL     1      43.587 -11.562   8.309  1.00  0.00    -0.327 N 
HETATM   19  H   UNL     1      43.018 -12.366   8.563  1.00  0.00     0.169 HD
HETATM   20  O   UNL     1      45.221 -10.864   6.816  1.00  0.00    -0.272 OA
BRANCH  18  21
HETATM   21  C   UNL     1      43.428 -10.429   9.133  1.00  0.00     0.034 A 
HETATM   22  C   UNL     1      42.749  -9.273   8.756  1.00  0.00     0.030 A 
HETATM   23  C   UNL     1      42.577  -8.219   9.665  1.00  0.00     0.010 A 
HETATM   24  C   UNL     1      43.067  -8.303  10.973  1.00  0.00    -0.055 A 
HETATM   25  C   UNL     1      43.776  -9.459  11.334  1.00  0.00     0.010 A 
HETATM   26  C   UNL     1      43.959 -10.502  10.423  1.00  0.00     0.030 A 
BRANCH  24  27
HETATM   27  C   UNL     1      42.866  -7.210  12.012  1.00  0.00     0.010 C 
HETATM   28  C   UNL     1      43.214  -7.613  13.448  1.00  0.00     0.015 C 
HETATM   29  C   UNL     1      41.435  -6.668  11.956  1.00  0.00     0.015 C 
ENDBRANCH  24  27
ENDBRANCH  18  21
ENDBRANCH  16  17
ENDBRANCH  15  16
ENDBRANCH   1  15
BRANCH  13  30
HETATM   30  C   UNL     1      40.477 -12.702   2.767  1.00  0.00     0.140 C 
BRANCH  30  31
HETATM   31  C   UNL     1      39.391 -12.407   1.764  1.00  0.00     0.220 C 
HETATM   32  N   UNL     1      39.580 -13.023   0.548  1.00  0.00    -0.356 N 
HETATM   33  H   UNL     1      40.397 -13.605   0.428  1.00  0.00     0.162 HD
HETATM   34  O   UNL     1      38.453 -11.660   2.021  1.00  0.00    -0.274 OA
BRANCH  32  35
HETATM   35  C   UNL     1      38.821 -12.643  -0.637  1.00  0.00     0.084 C 
HETATM   36  C   UNL     1      39.414 -11.377  -1.275  1.00  0.00     0.025 C 
HETATM   37  C   UNL     1      40.787 -11.635  -1.896  1.00  0.00     0.002 C 
HETATM   38  C   UNL     1      40.738 -12.774  -2.909  1.00  0.00     0.000 C 
HETATM   39  C   UNL     1      40.143 -14.046  -2.313  1.00  0.00     0.002 C 
HETATM   40  C   UNL     1      38.785 -13.794  -1.653  1.00  0.00     0.025 C 
ENDBRANCH  32  35
ENDBRANCH  30  31
ENDBRANCH  13  30
TORSDOF 8
ENDMDL
MODEL 4
REMARK VINA RESULT:      -9.3      3.898     11.375
REMARK  8 active torsions:
REMARK  status: ('A' for Active; 'I' for Inactive)
REMARK    1  A    between atoms: C_2  and  C_3 
REMARK    2  A    between atoms: C_6  and  N_7 
REMARK       I    between atoms: N_7  and  C_8 
REMARK    3  A    between atoms: C_8  and  C_9 
REMARK    4  A    between atoms: C_9  and  S_10 
REMARK    5  A    between atoms: S_10  and  C_11 
REMARK    6  A    between atoms: C_23  and  C_24 
REMARK    7  A    between atoms: C_24  and  C_25 
REMARK       I    between atoms: C_25  and  N_26 
REMARK    8  A    between atoms: N_26  and  C_27 
ROOT
HETATM    1  C   UNL     1      41.945 -13.010   4.827  1.00  0.00     0.178 A 
HETATM    2  N   UNL     1      41.509 -12.710   3.545  1.00  0.00    -0.241 N 
HETATM    3  C   UNL     1      41.748 -13.549   2.508  1.00  0.00     0.147 A 
HETATM    4  N   UNL     1      41.410 -13.150   1.321  1.00  0.00    -0.256 NA
HETATM    5  C   UNL     1      42.381 -14.834   2.800  1.00  0.00     0.039 A 
HETATM    6  C   UNL     1      42.738 -15.072   4.131  1.00  0.00     0.073 A 
HETATM    7  C   UNL     1      42.615 -15.782   1.799  1.00  0.00     0.018 A 
HETATM    8  C   UNL     1      43.225 -16.989   2.132  1.00  0.00     0.001 A 
HETATM    9  C   UNL     1      43.602 -17.237   3.452  1.00  0.00     0.002 A 
HETATM   10  C   UNL     1      43.361 -16.281   4.446  1.00  0.00     0.032 A 
HETATM   11  C   UNL     1      40.837 -11.617   3.046  1.00  0.00     0.257 A 
HETATM   12  O   UNL     1      40.332 -10.685   3.649  1.00  0.00    -0.270 OA
HETATM   13  C   UNL     1      40.787 -11.811   1.543  1.00  0.00     0.211 A 
HETATM   14  N   UNL     1      42.518 -14.126   5.151  1.00  0.00    -0.223 NA
ENDROOT
BRANCH   1  15
HETATM   15  S   UNL     1      41.802 -11.822   6.095  1.00  0.00    -0.082 SA
BRANCH  15  16
HETATM   16  C   UNL     1      43.501 -11.203   6.129  1.00  0.00     0.185 C 
BRANCH  16  17
HETATM   17  C   UNL     1      43.948 -10.645   7.475  1.00  0.00     0.231 C 
HETATM   18  N   UNL     1      42.932 -10.361   8.366  1.00  0.00    -0.327 N 
HETATM   19  H   UNL     1      42.003 -10.695   8.126  1.00  0.00     0.169 HD
HETATM   20  O   UNL     1      45.140 -10.393   7.648  1.00  0.00    -0.272 OA
BRANCH  18  21
HETATM   21  C   UNL     1      43.021  -9.647   9.579  1.00  0.00     0.034 A 
HETATM   22  C   UNL     1      42.846  -8.270   9.695  1.00  0.00     0.030 A 
HETATM   23  C   UNL     1      42.881  -7.651  10.953  1.00  0.00     0.010 A 
HETATM   24  C   UNL     1      43.077  -8.395  12.121  1.00  0.00    -0.055 A 
HETATM   25  C   UNL     1      43.282  -9.777  11.992  1.00  0.00     0.010 A 
HETATM   26  C   UNL     1      43.262 -10.390  10.736  1.00  0.00     0.030 A 
BRANCH  24  27
HETATM   27  C   UNL     1      43.075  -7.780  13.513  1.00  0.00     0.010 C 
HETATM   28  C   UNL     1      42.186  -8.497  14.534  1.00  0.00     0.015 C 
HETATM   29  C   UNL     1      42.699  -6.297  13.447  1.00  0.00     0.015 C 
ENDBRANCH  24  27
ENDBRANCH  18  21
ENDBRANCH  16  17
ENDBRANCH  15  16
ENDBRANCH   1  15
BRANCH  13  30
HETATM   30  C   UNL     1      41.600 -10.722   0.875  1.00  0.00     0.140 C 
BRANCH  30  31
HETATM   31  C   UNL     1      41.184 -10.529  -0.560  1.00  0.00     0.220 C 
HETATM   32  N   UNL     1      40.175 -11.375  -0.962  1.00  0.00    -0.356 N 
HETATM   33  H   UNL     1      39.804 -12.031  -0.289  1.00  0.00     0.162 HD
HETATM   34  O   UNL     1      41.728  -9.710  -1.292  1.00  0.00    -0.274 OA
BRANCH  32  35
HETATM   35  C   UNL     1      39.832 -11.558  -2.367  1.00  0.00     0.084 C 
HETATM   36  C   UNL     1      40.607 -12.745  -2.962  1.00  0.00     0.025 C 
HETATM   37  C   UNL     1      40.141 -14.082  -2.387  1.00  0.00     0.002 C 
HETATM   38  C   UNL     1      38.639 -14.276  -2.568  1.00  0.00     0.000 C 
HETATM   39  C   UNL     1      37.837 -13.109  -2.000  1.00  0.00     0.002 C 
HETATM   40  C   UNL     1      38.321 -11.760  -2.537  1.00  0.00     0.025 C 
ENDBRANCH  32  35
ENDBRANCH  30  31
ENDBRANCH  13  30
TORSDOF 8
ENDMDL
MODEL 5
REMARK VINA RESULT:      -9.2      3.662     11.096
REMARK  8 active torsions:
REMARK  status: ('A' for Active; 'I' for Inactive)
REMARK    1  A    between atoms: C_2  and  C_3 
REMARK    2  A    between atoms: C_6  and  N_7 
REMARK       I    between atoms: N_7  and  C_8 
REMARK    3  A    between atoms: C_8  and  C_9 
REMARK    4  A    between atoms: C_9  and  S_10 
REMARK    5  A    between atoms: S_10  and  C_11 
REMARK    6  A    between atoms: C_23  and  C_24 
REMARK    7  A    between atoms: C_24  and  C_25 
REMARK       I    between atoms: C_25  and  N_26 
REMARK    8  A    between atoms: N_26  and  C_27 
ROOT
HETATM    1  C   UNL     1      42.068 -12.410   5.154  1.00  0.00     0.178 A 
HETATM    2  N   UNL     1      40.891 -12.395   4.421  1.00  0.00    -0.241 N 
HETATM    3  C   UNL     1      40.541 -13.439   3.631  1.00  0.00     0.147 A 
HETATM    4  N   UNL     1      39.485 -13.306   2.890  1.00  0.00    -0.256 NA
HETATM    5  C   UNL     1      41.387 -14.632   3.662  1.00  0.00     0.039 A 
HETATM    6  C   UNL     1      42.525 -14.576   4.472  1.00  0.00     0.073 A 
HETATM    7  C   UNL     1      41.069 -15.775   2.921  1.00  0.00     0.018 A 
HETATM    8  C   UNL     1      41.913 -16.883   2.984  1.00  0.00     0.001 A 
HETATM    9  C   UNL     1      43.061 -16.840   3.775  1.00  0.00     0.002 A 
HETATM   10  C   UNL     1      43.366 -15.690   4.513  1.00  0.00     0.032 A 
HETATM   11  C   UNL     1      39.913 -11.434   4.292  1.00  0.00     0.257 A 
HETATM   12  O   UNL     1      39.774 -10.392   4.911  1.00  0.00    -0.270 OA
HETATM   13  C   UNL     1      38.962 -11.950   3.230  1.00  0.00     0.211 A 
HETATM   14  N   UNL     1      42.864 -13.432   5.218  1.00  0.00    -0.223 NA
ENDROOT
BRANCH   1  15
HETATM   15  S   UNL     1      42.588 -10.975   5.997  1.00  0.00    -0.082 SA
BRANCH  15  16
HETATM   16  C   UNL     1      44.033 -11.634   6.862  1.00  0.00     0.185 C 
BRANCH  16  17
HETATM   17  C   UNL     1      44.228 -11.097   8.275  1.00  0.00     0.231 C 
HETATM   18  N   UNL     1      43.098 -10.576   8.873  1.00  0.00    -0.327 N 
HETATM   19  H   UNL     1      42.211 -10.741   8.403  1.00  0.00     0.169 HD
HETATM   20  O   UNL     1      45.363 -11.065   8.748  1.00  0.00    -0.272 OA
BRANCH  18  21
HETATM   21  C   UNL     1      43.017  -9.825  10.063  1.00  0.00     0.034 A 
HETATM   22  C   UNL     1      43.110 -10.367  11.343  1.00  0.00     0.030 A 
HETATM   23  C   UNL     1      43.091  -9.537  12.472  1.00  0.00     0.010 A 
HETATM   24  C   UNL     1      42.994  -8.146  12.348  1.00  0.00    -0.055 A 
HETATM   25  C   UNL     1      42.872  -7.611  11.056  1.00  0.00     0.010 A 
HETATM   26  C   UNL     1      42.876  -8.441   9.932  1.00  0.00     0.030 A 
BRANCH  24  27
HETATM   27  C   UNL     1      43.018  -7.198  13.537  1.00  0.00     0.010 C 
HETATM   28  C   UNL     1      42.329  -7.729  14.799  1.00  0.00     0.015 C 
HETATM   29  C   UNL     1      42.427  -5.838  13.156  1.00  0.00     0.015 C 
ENDBRANCH  24  27
ENDBRANCH  18  21
ENDBRANCH  16  17
ENDBRANCH  15  16
ENDBRANCH   1  15
BRANCH  13  30
HETATM   30  C   UNL     1      39.021 -11.033   2.026  1.00  0.00     0.140 C 
BRANCH  30  31
HETATM   31  C   UNL     1      38.134 -11.531   0.914  1.00  0.00     0.220 C 
HETATM   32  N   UNL     1      38.778 -12.354   0.018  1.00  0.00    -0.356 N 
HETATM   33  H   UNL     1      39.756 -12.556   0.173  1.00  0.00     0.162 HD
HETATM   34  O   UNL     1      36.958 -11.196   0.818  1.00  0.00    -0.274 OA
BRANCH  32  35
HETATM   35  C   UNL     1      38.196 -12.701  -1.272  1.00  0.00     0.084 C 
HETATM   36  C   UNL     1      38.449 -11.584  -2.296  1.00  0.00     0.025 C 
HETATM   37  C   UNL     1      39.926 -11.478  -2.679  1.00  0.00     0.002 C 
HETATM   38  C   UNL     1      40.468 -12.808  -3.190  1.00  0.00     0.000 C 
HETATM   39  C   UNL     1      40.223 -13.945  -2.202  1.00  0.00     0.002 C 
HETATM   40  C   UNL     1      38.755 -14.037  -1.781  1.00  0.00     0.025 C 
ENDBRANCH  32  35
ENDBRANCH  30  31
ENDBRANCH  13  30
TORSDOF 8
ENDMDL
MODEL 6
REMARK VINA RESULT:      -9.2      3.519      5.275
REMARK  8 active torsions:
REMARK  status: ('A' for Active; 'I' for Inactive)
REMARK    1  A    between atoms: C_2  and  C_3 
REMARK    2  A    between atoms: C_6  and  N_7 
REMARK       I    between atoms: N_7  and  C_8 
REMARK    3  A    between atoms: C_8  and  C_9 
REMARK    4  A    between atoms: C_9  and  S_10 
REMARK    5  A    between atoms: S_10  and  C_11 
REMARK    6  A    between atoms: C_23  and  C_24 
REMARK    7  A    between atoms: C_24  and  C_25 
REMARK       I    between atoms: C_25  and  N_26 
REMARK    8  A    between atoms: N_26  and  C_27 
ROOT
HETATM    1  C   UNL     1      39.793 -12.304   3.686  1.00  0.00     0.178 A 
HETATM    2  N   UNL     1      40.733 -11.435   4.219  1.00  0.00    -0.241 N 
HETATM    3  C   UNL     1      41.601 -11.841   5.178  1.00  0.00     0.147 A 
HETATM    4  N   UNL     1      42.375 -10.944   5.709  1.00  0.00    -0.256 NA
HETATM    5  C   UNL     1      41.593 -13.254   5.553  1.00  0.00     0.039 A 
HETATM    6  C   UNL     1      40.646 -14.067   4.923  1.00  0.00     0.073 A 
HETATM    7  C   UNL     1      42.492 -13.769   6.493  1.00  0.00     0.018 A 
HETATM    8  C   UNL     1      42.437 -15.123   6.817  1.00  0.00     0.001 A 
HETATM    9  C   UNL     1      41.489 -15.946   6.209  1.00  0.00     0.002 A 
HETATM   10  C   UNL     1      40.596 -15.419   5.270  1.00  0.00     0.032 A 
HETATM   11  C   UNL     1      40.981 -10.103   3.975  1.00  0.00     0.257 A 
HETATM   12  O   UNL     1      40.511  -9.380   3.112  1.00  0.00    -0.270 OA
HETATM   13  C   UNL     1      42.033  -9.684   4.984  1.00  0.00     0.211 A 
HETATM   14  N   UNL     1      39.728 -13.565   3.981  1.00  0.00    -0.223 NA
ENDROOT
BRANCH   1  15
HETATM   15  S   UNL     1      38.563 -11.702   2.608  1.00  0.00    -0.082 SA
BRANCH  15  16
HETATM   16  C   UNL     1      39.420 -11.894   1.027  1.00  0.00     0.185 C 
BRANCH  16  17
HETATM   17  C   UNL     1      40.665 -12.772   1.080  1.00  0.00     0.231 C 
HETATM   18  N   UNL     1      40.430 -14.125   1.221  1.00  0.00    -0.327 N 
HETATM   19  H   UNL     1      39.470 -14.440   1.110  1.00  0.00     0.169 HD
HETATM   20  O   UNL     1      41.771 -12.235   1.097  1.00  0.00    -0.272 OA
BRANCH  18  21
HETATM   21  C   UNL     1      41.366 -15.139   1.513  1.00  0.00     0.034 A 
HETATM   22  C   UNL     1      42.747 -14.965   1.485  1.00  0.00     0.030 A 
HETATM   23  C   UNL     1      43.605 -16.010   1.859  1.00  0.00     0.010 A 
HETATM   24  C   UNL     1      43.101 -17.244   2.283  1.00  0.00    -0.055 A 
HETATM   25  C   UNL     1      41.709 -17.419   2.280  1.00  0.00     0.010 A 
HETATM   26  C   UNL     1      40.856 -16.383   1.892  1.00  0.00     0.030 A 
BRANCH  24  27
HETATM   27  C   UNL     1      43.985 -18.393   2.746  1.00  0.00     0.010 C 
HETATM   28  C   UNL     1      43.512 -19.785   2.314  1.00  0.00     0.015 C 
HETATM   29  C   UNL     1      44.170 -18.355   4.265  1.00  0.00     0.015 C 
ENDBRANCH  24  27
ENDBRANCH  18  21
ENDBRANCH  16  17
ENDBRANCH  15  16
ENDBRANCH   1  15
BRANCH  13  30
HETATM   30  C   UNL     1      41.434  -8.665   5.930  1.00  0.00     0.140 C 
BRANCH  30  31
HETATM   31  C   UNL     1      41.876  -8.909   7.350  1.00  0.00     0.220 C 
HETATM   32  N   UNL     1      43.239  -8.835   7.526  1.00  0.00    -0.356 N 
HETATM   33  H   UNL     1      43.814  -8.626   6.722  1.00  0.00     0.162 HD
HETATM   34  O   UNL     1      41.080  -9.178   8.243  1.00  0.00    -0.274 OA
BRANCH  32  35
HETATM   35  C   UNL     1      43.891  -9.322   8.735  1.00  0.00     0.084 C 
HETATM   36  C   UNL     1      44.052 -10.849   8.684  1.00  0.00     0.025 C 
HETATM   37  C   UNL     1      45.067 -11.286   7.627  1.00  0.00     0.002 C 
HETATM   38  C   UNL     1      46.418 -10.611   7.835  1.00  0.00     0.000 C 
HETATM   39  C   UNL     1      46.295  -9.091   7.903  1.00  0.00     0.002 C 
HETATM   40  C   UNL     1      45.253  -8.642   8.930  1.00  0.00     0.025 C 
ENDBRANCH  32  35
ENDBRANCH  30  31
ENDBRANCH  13  30
TORSDOF 8
ENDMDL
MODEL 7
REMARK VINA RESULT:      -9.1      2.377     10.399
REMARK  8 active torsions:
REMARK  status: ('A' for Active; 'I' for Inactive)
REMARK    1  A    between atoms: C_2  and  C_3 
REMARK    2  A    between atoms: C_6  and  N_7 
REMARK       I    between atoms: N_7  and  C_8 
REMARK    3  A    between atoms: C_8  and  C_9 
REMARK    4  A    between atoms: C_9  and  S_10 
REMARK    5  A    between atoms: S_10  and  C_11 
REMARK    6  A    between atoms: C_23  and  C_24 
REMARK    7  A    between atoms: C_24  and  C_25 
REMARK       I    between atoms: C_25  and  N_26 
REMARK    8  A    between atoms: N_26  and  C_27 
ROOT
HETATM    1  C   UNL     1      43.410 -12.348   6.628  1.00  0.00     0.178 A 
HETATM    2  N   UNL     1      42.093 -12.437   6.200  1.00  0.00    -0.241 N 
HETATM    3  C   UNL     1      41.550 -13.626   5.842  1.00  0.00     0.147 A 
HETATM    4  N   UNL     1      40.351 -13.615   5.347  1.00  0.00    -0.256 NA
HETATM    5  C   UNL     1      42.359 -14.830   6.027  1.00  0.00     0.039 A 
HETATM    6  C   UNL     1      43.656 -14.648   6.514  1.00  0.00     0.073 A 
HETATM    7  C   UNL     1      41.856 -16.102   5.735  1.00  0.00     0.018 A 
HETATM    8  C   UNL     1      42.672 -17.216   5.926  1.00  0.00     0.001 A 
HETATM    9  C   UNL     1      43.975 -17.052   6.397  1.00  0.00     0.002 A 
HETATM   10  C   UNL     1      44.464 -15.774   6.687  1.00  0.00     0.032 A 
HETATM   11  C   UNL     1      41.129 -11.471   6.020  1.00  0.00     0.257 A 
HETATM   12  O   UNL     1      41.157 -10.291   6.327  1.00  0.00    -0.270 OA
HETATM   13  C   UNL     1      39.945 -12.179   5.389  1.00  0.00     0.211 A 
HETATM   14  N   UNL     1      44.181 -13.375   6.805  1.00  0.00    -0.223 NA
ENDROOT
BRANCH   1  15
HETATM   15  S   UNL     1      44.137 -10.784   6.885  1.00  0.00    -0.082 SA
BRANCH  15  16
HETATM   16  C   UNL     1      44.492 -10.899   8.655  1.00  0.00     0.185 C 
BRANCH  16  17
HETATM   17  C   UNL     1      43.661  -9.969   9.532  1.00  0.00     0.231 C 
HETATM   18  N   UNL     1      43.920 -10.044  10.886  1.00  0.00    -0.327 N 
HETATM   19  H   UNL     1      44.741 -10.574  11.169  1.00  0.00     0.169 HD
HETATM   20  O   UNL     1      42.767  -9.303   9.012  1.00  0.00    -0.272 OA
BRANCH  18  21
HETATM   21  C   UNL     1      43.175  -9.477  11.940  1.00  0.00     0.034 A 
HETATM   22  C   UNL     1      42.058 -10.072  12.521  1.00  0.00     0.030 A 
HETATM   23  C   UNL     1      41.418  -9.471  13.615  1.00  0.00     0.010 A 
HETATM   24  C   UNL     1      41.890  -8.272  14.161  1.00  0.00    -0.055 A 
HETATM   25  C   UNL     1      42.998  -7.666  13.551  1.00  0.00     0.010 A 
HETATM   26  C   UNL     1      43.626  -8.258  12.452  1.00  0.00     0.030 A 
BRANCH  24  27
HETATM   27  C   UNL     1      41.263  -7.605  15.376  1.00  0.00     0.010 C 
HETATM   28  C   UNL     1      40.044  -6.728  15.073  1.00  0.00     0.015 C 
HETATM   29  C   UNL     1      42.308  -6.793  16.146  1.00  0.00     0.015 C 
ENDBRANCH  24  27
ENDBRANCH  18  21
ENDBRANCH  16  17
ENDBRANCH  15  16
ENDBRANCH   1  15
BRANCH  13  30
HETATM   30  C   UNL     1      39.734 -11.638   3.990  1.00  0.00     0.140 C 
BRANCH  30  31
HETATM   31  C   UNL     1      39.471 -12.750   3.007  1.00  0.00     0.220 C 
HETATM   32  N   UNL     1      40.614 -13.369   2.553  1.00  0.00    -0.356 N 
HETATM   33  H   UNL     1      41.505 -13.045   2.904  1.00  0.00     0.162 HD
HETATM   34  O   UNL     1      38.338 -13.038   2.636  1.00  0.00    -0.274 OA
BRANCH  32  35
HETATM   35  C   UNL     1      40.607 -14.254   1.395  1.00  0.00     0.084 C 
HETATM   36  C   UNL     1      42.030 -14.431   0.842  1.00  0.00     0.025 C 
HETATM   37  C   UNL     1      42.922 -15.228   1.794  1.00  0.00     0.002 C 
HETATM   38  C   UNL     1      42.307 -16.581   2.136  1.00  0.00     0.000 C 
HETATM   39  C   UNL     1      40.887 -16.445   2.678  1.00  0.00     0.002 C 
HETATM   40  C   UNL     1      39.994 -15.614   1.752  1.00  0.00     0.025 C 
ENDBRANCH  32  35
ENDBRANCH  30  31
ENDBRANCH  13  30
TORSDOF 8
ENDMDL
MODEL 8
REMARK VINA RESULT:      -9.1      2.664      4.462
REMARK  8 active torsions:
REMARK  status: ('A' for Active; 'I' for Inactive)
REMARK    1  A    between atoms: C_2  and  C_3 
REMARK    2  A    between atoms: C_6  and  N_7 
REMARK       I    between atoms: N_7  and  C_8 
REMARK    3  A    between atoms: C_8  and  C_9 
REMARK    4  A    between atoms: C_9  and  S_10 
REMARK    5  A    between atoms: S_10  and  C_11 
REMARK    6  A    between atoms: C_23  and  C_24 
REMARK    7  A    between atoms: C_24  and  C_25 
REMARK       I    between atoms: C_25  and  N_26 
REMARK    8  A    between atoms: N_26  and  C_27 
ROOT
HETATM    1  C   UNL     1      41.675 -10.255   4.282  1.00  0.00     0.178 A 
HETATM    2  N   UNL     1      42.118 -10.287   5.596  1.00  0.00    -0.241 N 
HETATM    3  C   UNL     1      41.562  -9.493   6.544  1.00  0.00     0.147 A 
HETATM    4  N   UNL     1      42.103  -9.495   7.723  1.00  0.00    -0.256 NA
HETATM    5  C   UNL     1      40.405  -8.684   6.165  1.00  0.00     0.039 A 
HETATM    6  C   UNL     1      39.995  -8.757   4.830  1.00  0.00     0.073 A 
HETATM    7  C   UNL     1      39.737  -7.879   7.094  1.00  0.00     0.018 A 
HETATM    8  C   UNL     1      38.641  -7.125   6.677  1.00  0.00     0.001 A 
HETATM    9  C   UNL     1      38.228  -7.175   5.346  1.00  0.00     0.002 A 
HETATM   10  C   UNL     1      38.904  -7.985   4.427  1.00  0.00     0.032 A 
HETATM   11  C   UNL     1      43.123 -11.008   6.199  1.00  0.00     0.257 A 
HETATM   12  O   UNL     1      43.797 -11.917   5.742  1.00  0.00    -0.270 OA
HETATM   13  C   UNL     1      43.215 -10.486   7.620  1.00  0.00     0.211 A 
HETATM   14  N   UNL     1      40.661  -9.555   3.880  1.00  0.00    -0.223 NA
ENDROOT
BRANCH   1  15
HETATM   15  S   UNL     1      42.541 -11.134   3.050  1.00  0.00    -0.082 SA
BRANCH  15  16
HETATM   16  C   UNL     1      41.357 -12.463   2.731  1.00  0.00     0.185 C 
BRANCH  16  17
HETATM   17  C   UNL     1      41.648 -13.765   3.468  1.00  0.00     0.231 C 
HETATM   18  N   UNL     1      42.828 -14.391   3.121  1.00  0.00    -0.327 N 
HETATM   19  H   UNL     1      43.476 -13.863   2.541  1.00  0.00     0.169 HD
HETATM   20  O   UNL     1      40.796 -14.221   4.229  1.00  0.00    -0.272 OA
BRANCH  18  21
HETATM   21  C   UNL     1      43.251 -15.691   3.466  1.00  0.00     0.034 A 
HETATM   22  C   UNL     1      43.609 -16.086   4.752  1.00  0.00     0.030 A 
HETATM   23  C   UNL     1      43.950 -17.420   5.020  1.00  0.00     0.010 A 
HETATM   24  C   UNL     1      43.925 -18.390   4.012  1.00  0.00    -0.055 A 
HETATM   25  C   UNL     1      43.592 -17.977   2.713  1.00  0.00     0.010 A 
HETATM   26  C   UNL     1      43.267 -16.645   2.445  1.00  0.00     0.030 A 
BRANCH  24  27
HETATM   27  C   UNL     1      44.238 -19.858   4.258  1.00  0.00     0.010 C 
HETATM   28  C   UNL     1      43.680 -20.822   3.206  1.00  0.00     0.015 C 
HETATM   29  C   UNL     1      43.770 -20.284   5.653  1.00  0.00     0.015 C 
ENDBRANCH  24  27
ENDBRANCH  18  21
ENDBRANCH  16  17
ENDBRANCH  15  16
ENDBRANCH   1  15
BRANCH  13  30
HETATM   30  C   UNL     1      44.557  -9.811   7.813  1.00  0.00     0.140 C 
BRANCH  30  31
HETATM   31  C   UNL     1      44.459  -8.666   8.788  1.00  0.00     0.220 C 
HETATM   32  N   UNL     1      43.836  -8.997   9.970  1.00  0.00    -0.356 N 
HETATM   33  H   UNL     1      43.510  -9.946  10.089  1.00  0.00     0.162 HD
HETATM   34  O   UNL     1      44.875  -7.544   8.520  1.00  0.00    -0.274 OA
BRANCH  32  35
HETATM   35  C   UNL     1      43.379  -7.985  10.915  1.00  0.00     0.084 C 
HETATM   36  C   UNL     1      41.929  -7.579  10.610  1.00  0.00     0.025 C 
HETATM   37  C   UNL     1      40.940  -8.706  10.912  1.00  0.00     0.002 C 
HETATM   38  C   UNL     1      41.070  -9.194  12.351  1.00  0.00     0.000 C 
HETATM   39  C   UNL     1      42.502  -9.595  12.693  1.00  0.00     0.002 C 
HETATM   40  C   UNL     1      43.507  -8.490  12.358  1.00  0.00     0.025 C 
ENDBRANCH  32  35
ENDBRANCH  30  31
ENDBRANCH  13  30
TORSDOF 8
ENDMDL
MODEL 9
REMARK VINA RESULT:      -8.8      5.296      8.614
REMARK  8 active torsions:
REMARK  status: ('A' for Active; 'I' for Inactive)
REMARK    1  A    between atoms: C_2  and  C_3 
REMARK    2  A    between atoms: C_6  and  N_7 
REMARK       I    between atoms: N_7  and  C_8 
REMARK    3  A    between atoms: C_8  and  C_9 
REMARK    4  A    between atoms: C_9  and  S_10 
REMARK    5  A    between atoms: S_10  and  C_11 
REMARK    6  A    between atoms: C_23  and  C_24 
REMARK    7  A    between atoms: C_24  and  C_25 
REMARK       I    between atoms: C_25  and  N_26 
REMARK    8  A    between atoms: N_26  and  C_27 
ROOT
HETATM    1  C   UNL     1      39.221 -11.133  -0.852  1.00  0.00     0.178 A 
HETATM    2  N   UNL     1      39.213 -10.706   0.467  1.00  0.00    -0.241 N 
HETATM    3  C   UNL     1      38.160 -10.024   0.979  1.00  0.00     0.147 A 
HETATM    4  N   UNL     1      38.272  -9.561   2.186  1.00  0.00    -0.256 NA
HETATM    5  C   UNL     1      36.982  -9.848   0.131  1.00  0.00     0.039 A 
HETATM    6  C   UNL     1      37.060 -10.359  -1.169  1.00  0.00     0.073 A 
HETATM    7  C   UNL     1      35.831  -9.205   0.598  1.00  0.00     0.018 A 
HETATM    8  C   UNL     1      34.738  -9.061  -0.255  1.00  0.00     0.001 A 
HETATM    9  C   UNL     1      34.804  -9.551  -1.560  1.00  0.00     0.002 A 
HETATM   10  C   UNL     1      35.962 -10.194  -2.014  1.00  0.00     0.032 A 
HETATM   11  C   UNL     1      40.156 -10.819   1.464  1.00  0.00     0.257 A 
HETATM   12  O   UNL     1      41.198 -11.454   1.467  1.00  0.00    -0.270 OA
HETATM   13  C   UNL     1      39.620 -10.018   2.635  1.00  0.00     0.211 A 
HETATM   14  N   UNL     1      38.213 -11.001  -1.658  1.00  0.00    -0.223 NA
ENDROOT
BRANCH   1  15
HETATM   15  S   UNL     1      40.668 -11.825  -1.535  1.00  0.00    -0.082 SA
BRANCH  15  16
HETATM   16  C   UNL     1      40.082 -13.507  -1.853  1.00  0.00     0.185 C 
BRANCH  16  17
HETATM   17  C   UNL     1      40.158 -14.444  -0.653  1.00  0.00     0.231 C 
HETATM   18  N   UNL     1      41.173 -14.178   0.244  1.00  0.00    -0.327 N 
HETATM   19  H   UNL     1      41.673 -13.300   0.127  1.00  0.00     0.169 HD
HETATM   20  O   UNL     1      39.400 -15.412  -0.605  1.00  0.00    -0.272 OA
BRANCH  18  21
HETATM   21  C   UNL     1      41.618 -14.986   1.311  1.00  0.00     0.034 A 
HETATM   22  C   UNL     1      40.781 -15.559   2.265  1.00  0.00     0.030 A 
HETATM   23  C   UNL     1      41.302 -16.408   3.252  1.00  0.00     0.010 A 
HETATM   24  C   UNL     1      42.666 -16.715   3.297  1.00  0.00    -0.055 A 
HETATM   25  C   UNL     1      43.506 -16.109   2.350  1.00  0.00     0.010 A 
HETATM   26  C   UNL     1      42.988 -15.251   1.377  1.00  0.00     0.030 A 
BRANCH  24  27
HETATM   27  C   UNL     1      43.274 -17.667   4.316  1.00  0.00     0.010 C 
HETATM   28  C   UNL     1      44.219 -17.012   5.329  1.00  0.00     0.015 C 
HETATM   29  C   UNL     1      43.987 -18.826   3.614  1.00  0.00     0.015 C 
ENDBRANCH  24  27
ENDBRANCH  18  21
ENDBRANCH  16  17
ENDBRANCH  15  16
ENDBRANCH   1  15
BRANCH  13  30
HETATM   30  C   UNL     1      40.533  -8.836   2.886  1.00  0.00     0.140 C 
BRANCH  30  31
HETATM   31  C   UNL     1      41.360  -9.036   4.130  1.00  0.00     0.220 C 
HETATM   32  N   UNL     1      42.077 -10.211   4.135  1.00  0.00    -0.356 N 
HETATM   33  H   UNL     1      42.000 -10.822   3.333  1.00  0.00     0.162 HD
HETATM   34  O   UNL     1      41.354  -8.229   5.053  1.00  0.00    -0.274 OA
BRANCH  32  35
HETATM   35  C   UNL     1      42.698 -10.734   5.346  1.00  0.00     0.084 C 
HETATM   36  C   UNL     1      41.639 -11.353   6.271  1.00  0.00     0.025 C 
HETATM   37  C   UNL     1      41.045 -12.636   5.688  1.00  0.00     0.002 C 
HETATM   38  C   UNL     1      42.130 -13.655   5.357  1.00  0.00     0.000 C 
HETATM   39  C   UNL     1      43.207 -13.070   4.448  1.00  0.00     0.002 C 
HETATM   40  C   UNL     1      43.782 -11.764   5.001  1.00  0.00     0.025 C 
ENDBRANCH  32  35
ENDBRANCH  30  31
ENDBRANCH  13  30
TORSDOF 8
ENDMDL
MODEL 10
REMARK VINA RESULT:      -8.8      6.513     10.470
REMARK  8 active torsions:
REMARK  status: ('A' for Active; 'I' for Inactive)
REMARK    1  A    between atoms: C_2  and  C_3 
REMARK    2  A    between atoms: C_6  and  N_7 
REMARK       I    between atoms: N_7  and  C_8 
REMARK    3  A    between atoms: C_8  and  C_9 
REMARK    4  A    between atoms: C_9  and  S_10 
REMARK    5  A    between atoms: S_10  and  C_11 
REMARK    6  A    between atoms: C_23  and  C_24 
REMARK    7  A    between atoms: C_24  and  C_25 
REMARK       I    between atoms: C_25  and  N_26 
REMARK    8  A    between atoms: N_26  and  C_27 
ROOT
HETATM    1  C   UNL     1      40.290 -11.464   1.871  1.00  0.00     0.178 A 
HETATM    2  N   UNL     1      40.411 -12.306   0.776  1.00  0.00    -0.241 N 
HETATM    3  C   UNL     1      40.840 -11.843  -0.423  1.00  0.00     0.147 A 
HETATM    4  N   UNL     1      40.820 -12.663  -1.428  1.00  0.00    -0.256 NA
HETATM    5  C   UNL     1      41.281 -10.450  -0.499  1.00  0.00     0.039 A 
HETATM    6  C   UNL     1      41.173  -9.691   0.670  1.00  0.00     0.073 A 
HETATM    7  C   UNL     1      41.790  -9.906  -1.683  1.00  0.00     0.018 A 
HETATM    8  C   UNL     1      42.192  -8.572  -1.701  1.00  0.00     0.001 A 
HETATM    9  C   UNL     1      42.078  -7.795  -0.548  1.00  0.00     0.002 A 
HETATM   10  C   UNL     1      41.568  -8.352   0.630  1.00  0.00     0.032 A 
HETATM   11  C   UNL     1      40.134 -13.646   0.626  1.00  0.00     0.257 A 
HETATM   12  O   UNL     1      39.836 -14.469   1.476  1.00  0.00    -0.270 OA
HETATM   13  C   UNL     1      40.327 -13.948  -0.848  1.00  0.00     0.211 A 
HETATM   14  N   UNL     1      40.655 -10.220   1.867  1.00  0.00    -0.223 NA
ENDROOT
BRANCH   1  15
HETATM   15  S   UNL     1      39.545 -12.042   3.337  1.00  0.00    -0.082 SA
BRANCH  15  16
HETATM   16  C   UNL     1      40.981 -12.030   4.437  1.00  0.00     0.185 C 
BRANCH  16  17
HETATM   17  C   UNL     1      42.018 -13.108   4.141  1.00  0.00     0.231 C 
HETATM   18  N   UNL     1      41.508 -14.357   3.848  1.00  0.00    -0.327 N 
HETATM   19  H   UNL     1      40.505 -14.419   3.690  1.00  0.00     0.169 HD
HETATM   20  O   UNL     1      43.210 -12.838   4.275  1.00  0.00    -0.272 OA
BRANCH  18  21
HETATM   21  C   UNL     1      42.210 -15.575   3.749  1.00  0.00     0.034 A 
HETATM   22  C   UNL     1      42.621 -16.337   4.840  1.00  0.00     0.030 A 
HETATM   23  C   UNL     1      43.252 -17.574   4.649  1.00  0.00     0.010 A 
HETATM   24  C   UNL     1      43.473 -18.084   3.365  1.00  0.00    -0.055 A 
HETATM   25  C   UNL     1      43.082 -17.296   2.271  1.00  0.00     0.010 A 
HETATM   26  C   UNL     1      42.467 -16.057   2.463  1.00  0.00     0.030 A 
BRANCH  24  27
HETATM   27  C   UNL     1      44.110 -19.441   3.103  1.00  0.00     0.010 C 
HETATM   28  C   UNL     1      43.443 -20.263   1.995  1.00  0.00     0.015 C 
HETATM   29  C   UNL     1      44.176 -20.264   4.392  1.00  0.00     0.015 C 
ENDBRANCH  24  27
ENDBRANCH  18  21
ENDBRANCH  16  17
ENDBRANCH  15  16
ENDBRANCH   1  15
BRANCH  13  30
HETATM   30  C   UNL     1      38.994 -14.335  -1.452  1.00  0.00     0.140 C 
BRANCH  30  31
HETATM   31  C   UNL     1      38.620 -13.417  -2.588  1.00  0.00     0.220 C 
HETATM   32  N   UNL     1      38.057 -12.230  -2.177  1.00  0.00    -0.356 N 
HETATM   33  H   UNL     1      37.947 -12.070  -1.185  1.00  0.00     0.162 HD
HETATM   34  O   UNL     1      38.783 -13.732  -3.761  1.00  0.00    -0.274 OA
BRANCH  32  35
HETATM   35  C   UNL     1      37.364 -11.341  -3.101  1.00  0.00     0.084 C 
HETATM   36  C   UNL     1      36.008 -10.909  -2.520  1.00  0.00     0.025 C 
HETATM   37  C   UNL     1      36.168  -9.983  -1.314  1.00  0.00     0.002 C 
HETATM   38  C   UNL     1      37.020  -8.764  -1.653  1.00  0.00     0.000 C 
HETATM   39  C   UNL     1      38.371  -9.156  -2.244  1.00  0.00     0.002 C 
HETATM   40  C   UNL     1      38.226 -10.115  -3.429  1.00  0.00     0.025 C 
ENDBRANCH  32  35
ENDBRANCH  30  31
ENDBRANCH  13  30
TORSDOF 8
ENDMDL
