MODEL 1
REMARK VINA RESULT:      -7.8      0.000      0.000
REMARK  4 active torsions:
REMARK  status: ('A' for Active; 'I' for Inactive)
REMARK    1  A    between atoms: C_5  and  N_6 
REMARK       I    between atoms: N_6  and  C_7 
REMARK    2  A    between atoms: C_7  and  C_8 
REMARK    3  A    between atoms: C_12  and  O_13 
REMARK    4  A    between atoms: C_19  and  C_20 
ROOT
HETATM    1  C   UNL     1      42.405 -17.806   2.354  1.00  0.00     0.015 C 
HETATM    2  C   UNL     1      42.110 -16.294   2.415  1.00  0.00    -0.040 C 
HETATM    3  C   UNL     1      43.453 -15.550   2.306  1.00  0.00     0.015 C 
HETATM    4  C   UNL     1      41.377 -15.987   3.742  1.00  0.00     0.039 C 
HETATM    5  C   UNL     1      40.913 -14.525   3.891  1.00  0.00     0.122 C 
HETATM    6  C   UNL     1      40.387 -13.950   2.608  1.00  0.00     0.007 A 
HETATM    7  C   UNL     1      40.532 -14.564   1.377  1.00  0.00     0.047 A 
HETATM    8  N   UNL     1      40.041 -14.030   0.237  1.00  0.00    -0.237 NA
HETATM    9  C   UNL     1      39.408 -12.843   0.314  1.00  0.00     0.133 A 
HETATM   10  N   UNL     1      39.216 -12.178   1.468  1.00  0.00    -0.244 NA
HETATM   11  C   UNL     1      39.713 -12.744   2.584  1.00  0.00     0.130 A 
HETATM   12  C   UNL     1      41.185 -15.916   1.239  1.00  0.00     0.069 C 
ENDROOT
BRANCH   5  13
HETATM   13  N   UNL     1      41.970 -13.686   4.435  1.00  0.00    -0.347 N 
HETATM   14  C   UNL     1      41.945 -13.252   5.739  1.00  0.00     0.270 C 
HETATM   15  O   UNL     1      40.991 -13.455   6.484  1.00  0.00    -0.266 OA
HETATM   16  H   UNL     1      42.803 -13.537   3.883  1.00  0.00     0.163 HD
BRANCH  14  17
HETATM   17  C   UNL     1      43.119 -12.552   6.183  1.00  0.00     0.122 A 
HETATM   18  N   UNL     1      43.424 -12.452   7.520  1.00  0.00    -0.270 N 
HETATM   19  H   UNL     1      42.887 -12.832   8.295  1.00  0.00     0.189 HD
HETATM   20  N   UNL     1      44.564 -11.780   7.775  1.00  0.00    -0.149 NA
HETATM   21  C   UNL     1      44.971 -11.453   6.560  1.00  0.00     0.183 A 
HETATM   22  C   UNL     1      44.139 -11.886   5.528  1.00  0.00     0.096 A 
BRANCH  21  23
HETATM   23  O   UNL     1      46.106 -10.768   6.500  1.00  0.00    -0.344 OA
HETATM   24  H   UNL     1      46.782 -11.384   6.833  1.00  0.00     0.219 HD
ENDBRANCH  21  23
ENDBRANCH  14  17
ENDBRANCH   5  13
BRANCH   9  25
HETATM   25  C   UNL     1      38.778 -12.278  -0.957  1.00  0.00     0.011 C 
HETATM   26  C   UNL     1      39.847 -11.465  -1.707  1.00  0.00     0.023 C 
HETATM   27  C   UNL     1      38.268 -13.412  -1.867  1.00  0.00     0.023 C 
HETATM   28  C   UNL     1      37.584 -11.360  -0.627  1.00  0.00     0.023 C 
ENDBRANCH   9  25
TORSDOF 4
ENDMDL
MODEL 2
REMARK VINA RESULT:      -7.4      3.361      7.480
REMARK  4 active torsions:
REMARK  status: ('A' for Active; 'I' for Inactive)
REMARK    1  A    between atoms: C_5  and  N_6 
REMARK       I    between atoms: N_6  and  C_7 
REMARK    2  A    between atoms: C_7  and  C_8 
REMARK    3  A    between atoms: C_12  and  O_13 
REMARK    4  A    between atoms: C_19  and  C_20 
ROOT
HETATM    1  C   UNL     1      39.751 -11.228   5.176  1.00  0.00     0.015 C 
HETATM    2  C   UNL     1      40.428 -12.275   4.269  1.00  0.00    -0.040 C 
HETATM    3  C   UNL     1      41.436 -11.534   3.370  1.00  0.00     0.015 C 
HETATM    4  C   UNL     1      39.335 -12.998   3.448  1.00  0.00     0.039 C 
HETATM    5  C   UNL     1      39.854 -14.158   2.575  1.00  0.00     0.122 C 
HETATM    6  C   UNL     1      40.919 -14.965   3.259  1.00  0.00     0.007 A 
HETATM    7  C   UNL     1      41.545 -14.574   4.428  1.00  0.00     0.047 A 
HETATM    8  N   UNL     1      42.495 -15.324   5.029  1.00  0.00    -0.237 NA
HETATM    9  C   UNL     1      42.851 -16.485   4.444  1.00  0.00     0.133 A 
HETATM   10  N   UNL     1      42.292 -16.946   3.310  1.00  0.00    -0.244 NA
HETATM   11  C   UNL     1      41.344 -16.175   2.744  1.00  0.00     0.130 A 
HETATM   12  C   UNL     1      41.152 -13.312   5.153  1.00  0.00     0.069 C 
ENDROOT
BRANCH   5  13
HETATM   13  N   UNL     1      40.322 -13.680   1.282  1.00  0.00    -0.347 N 
HETATM   14  C   UNL     1      40.022 -14.346   0.118  1.00  0.00     0.270 C 
HETATM   15  O   UNL     1      39.440 -15.425   0.107  1.00  0.00    -0.266 OA
HETATM   16  H   UNL     1      40.756 -12.769   1.230  1.00  0.00     0.163 HD
BRANCH  14  17
HETATM   17  C   UNL     1      40.425 -13.688  -1.094  1.00  0.00     0.122 A 
HETATM   18  N   UNL     1      40.487 -14.370  -2.287  1.00  0.00    -0.270 N 
HETATM   19  H   UNL     1      40.274 -15.353  -2.436  1.00  0.00     0.189 HD
HETATM   20  N   UNL     1      40.866 -13.612  -3.335  1.00  0.00    -0.149 NA
HETATM   21  C   UNL     1      41.047 -12.430  -2.771  1.00  0.00     0.183 A 
HETATM   22  C   UNL     1      40.801 -12.392  -1.398  1.00  0.00     0.096 A 
BRANCH  21  23
HETATM   23  O   UNL     1      41.430 -11.457  -3.589  1.00  0.00    -0.344 OA
HETATM   24  H   UNL     1      40.660 -11.301  -4.162  1.00  0.00     0.219 HD
ENDBRANCH  21  23
ENDBRANCH  14  17
ENDBRANCH   5  13
BRANCH   9  25
HETATM   25  C   UNL     1      43.862 -17.374   5.163  1.00  0.00     0.011 C 
HETATM   26  C   UNL     1      44.910 -16.472   5.836  1.00  0.00     0.023 C 
HETATM   27  C   UNL     1      43.168 -18.236   6.236  1.00  0.00     0.023 C 
HETATM   28  C   UNL     1      44.570 -18.324   4.177  1.00  0.00     0.023 C 
ENDBRANCH   9  25
TORSDOF 4
ENDMDL
MODEL 3
REMARK VINA RESULT:      -7.3      1.344      1.441
REMARK  4 active torsions:
REMARK  status: ('A' for Active; 'I' for Inactive)
REMARK    1  A    between atoms: C_5  and  N_6 
REMARK       I    between atoms: N_6  and  C_7 
REMARK    2  A    between atoms: C_7  and  C_8 
REMARK    3  A    between atoms: C_12  and  O_13 
REMARK    4  A    between atoms: C_19  and  C_20 
ROOT
HETATM    1  C   UNL     1      42.404 -17.437   3.125  1.00  0.00     0.015 C 
HETATM    2  C   UNL     1      41.965 -15.977   2.898  1.00  0.00    -0.040 C 
HETATM    3  C   UNL     1      43.215 -15.087   3.024  1.00  0.00     0.015 C 
HETATM    4  C   UNL     1      40.883 -15.619   3.944  1.00  0.00     0.039 C 
HETATM    5  C   UNL     1      40.263 -14.218   3.767  1.00  0.00     0.122 C 
HETATM    6  C   UNL     1      40.043 -13.861   2.326  1.00  0.00     0.007 A 
HETATM    7  C   UNL     1      40.562 -14.585   1.268  1.00  0.00     0.047 A 
HETATM    8  N   UNL     1      40.341 -14.247  -0.021  1.00  0.00    -0.237 NA
HETATM    9  C   UNL     1      39.603 -13.148  -0.271  1.00  0.00     0.133 A 
HETATM   10  N   UNL     1      39.054 -12.388   0.694  1.00  0.00    -0.244 NA
HETATM   11  C   UNL     1      39.290 -12.760   1.967  1.00  0.00     0.130 A 
HETATM   12  C   UNL     1      41.351 -15.851   1.488  1.00  0.00     0.069 C 
ENDROOT
BRANCH   5  13
HETATM   13  N   UNL     1      41.058 -13.198   4.434  1.00  0.00    -0.347 N 
HETATM   14  C   UNL     1      40.652 -12.630   5.618  1.00  0.00     0.270 C 
HETATM   15  O   UNL     1      39.560 -12.868   6.124  1.00  0.00    -0.266 OA
HETATM   16  H   UNL     1      41.988 -13.007   4.090  1.00  0.00     0.163 HD
BRANCH  14  17
HETATM   17  C   UNL     1      41.598 -11.743   6.237  1.00  0.00     0.122 A 
HETATM   18  N   UNL     1      41.180 -10.670   6.989  1.00  0.00    -0.270 N 
HETATM   19  H   UNL     1      40.219 -10.397   7.176  1.00  0.00     0.189 HD
HETATM   20  N   UNL     1      42.186  -9.943   7.516  1.00  0.00    -0.149 NA
HETATM   21  C   UNL     1      43.254 -10.585   7.072  1.00  0.00     0.183 A 
HETATM   22  C   UNL     1      42.980 -11.698   6.277  1.00  0.00     0.096 A 
BRANCH  21  23
HETATM   23  O   UNL     1      44.423 -10.081   7.448  1.00  0.00    -0.344 OA
HETATM   24  H   UNL     1      44.919  -9.964   6.618  1.00  0.00     0.219 HD
ENDBRANCH  21  23
ENDBRANCH  14  17
ENDBRANCH   5  13
BRANCH   9  25
HETATM   25  C   UNL     1      39.281 -12.812  -1.725  1.00  0.00     0.011 C 
HETATM   26  C   UNL     1      39.577 -11.320  -1.955  1.00  0.00     0.023 C 
HETATM   27  C   UNL     1      40.139 -13.656  -2.687  1.00  0.00     0.023 C 
HETATM   28  C   UNL     1      37.799 -13.088  -2.046  1.00  0.00     0.023 C 
ENDBRANCH   9  25
TORSDOF 4
ENDMDL
MODEL 4
REMARK VINA RESULT:      -7.1      3.938      6.843
REMARK  4 active torsions:
REMARK  status: ('A' for Active; 'I' for Inactive)
REMARK    1  A    between atoms: C_5  and  N_6 
REMARK       I    between atoms: N_6  and  C_7 
REMARK    2  A    between atoms: C_7  and  C_8 
REMARK    3  A    between atoms: C_12  and  O_13 
REMARK    4  A    between atoms: C_19  and  C_20 
ROOT
HETATM    1  C   UNL     1      39.732  -9.433   4.811  1.00  0.00     0.015 C 
HETATM    2  C   UNL     1      40.601 -10.319   5.725  1.00  0.00    -0.040 C 
HETATM    3  C   UNL     1      39.810 -10.570   7.023  1.00  0.00     0.015 C 
HETATM    4  C   UNL     1      41.941  -9.593   5.988  1.00  0.00     0.039 C 
HETATM    5  C   UNL     1      42.964 -10.414   6.799  1.00  0.00     0.122 C 
HETATM    6  C   UNL     1      42.974 -11.866   6.417  1.00  0.00     0.007 A 
HETATM    7  C   UNL     1      42.011 -12.455   5.617  1.00  0.00     0.047 A 
HETATM    8  N   UNL     1      42.048 -13.763   5.281  1.00  0.00    -0.237 NA
HETATM    9  C   UNL     1      43.055 -14.515   5.767  1.00  0.00     0.133 A 
HETATM   10  N   UNL     1      44.036 -14.026   6.547  1.00  0.00    -0.244 NA
HETATM   11  C   UNL     1      43.970 -12.716   6.855  1.00  0.00     0.130 A 
HETATM   12  C   UNL     1      40.893 -11.652   5.003  1.00  0.00     0.069 C 
ENDROOT
BRANCH   5  13
HETATM   13  N   UNL     1      42.752 -10.260   8.230  1.00  0.00    -0.347 N 
HETATM   14  C   UNL     1      43.785  -9.948   9.081  1.00  0.00     0.270 C 
HETATM   15  O   UNL     1      44.952  -9.883   8.706  1.00  0.00    -0.266 OA
HETATM   16  H   UNL     1      41.805 -10.248   8.581  1.00  0.00     0.163 HD
BRANCH  14  17
HETATM   17  C   UNL     1      43.410  -9.686  10.443  1.00  0.00     0.122 A 
HETATM   18  N   UNL     1      42.869 -10.673  11.233  1.00  0.00    -0.270 N 
HETATM   19  H   UNL     1      42.680 -11.634  10.961  1.00  0.00     0.189 HD
HETATM   20  N   UNL     1      42.584 -10.277  12.490  1.00  0.00    -0.149 NA
HETATM   21  C   UNL     1      42.957  -9.008  12.471  1.00  0.00     0.183 A 
HETATM   22  C   UNL     1      43.471  -8.566  11.253  1.00  0.00     0.096 A 
BRANCH  21  23
HETATM   23  O   UNL     1      42.791  -8.346  13.610  1.00  0.00    -0.344 OA
HETATM   24  H   UNL     1      42.696  -7.415  13.341  1.00  0.00     0.219 HD
ENDBRANCH  21  23
ENDBRANCH  14  17
ENDBRANCH   5  13
BRANCH   9  25
HETATM   25  C   UNL     1      43.147 -15.972   5.321  1.00  0.00     0.011 C 
HETATM   26  C   UNL     1      41.873 -16.701   5.779  1.00  0.00     0.023 C 
HETATM   27  C   UNL     1      43.266 -16.069   3.788  1.00  0.00     0.023 C 
HETATM   28  C   UNL     1      44.377 -16.667   5.937  1.00  0.00     0.023 C 
ENDBRANCH   9  25
TORSDOF 4
ENDMDL
MODEL 5
REMARK VINA RESULT:      -6.9      3.769      6.016
REMARK  4 active torsions:
REMARK  status: ('A' for Active; 'I' for Inactive)
REMARK    1  A    between atoms: C_5  and  N_6 
REMARK       I    between atoms: N_6  and  C_7 
REMARK    2  A    between atoms: C_7  and  C_8 
REMARK    3  A    between atoms: C_12  and  O_13 
REMARK    4  A    between atoms: C_19  and  C_20 
ROOT
HETATM    1  C   UNL     1      37.660 -13.444  -2.993  1.00  0.00     0.015 C 
HETATM    2  C   UNL     1      38.913 -12.923  -2.263  1.00  0.00    -0.040 C 
HETATM    3  C   UNL     1      40.079 -13.872  -2.599  1.00  0.00     0.015 C 
HETATM    4  C   UNL     1      38.618 -12.873  -0.746  1.00  0.00     0.039 C 
HETATM    5  C   UNL     1      39.748 -12.260   0.105  1.00  0.00     0.122 C 
HETATM    6  C   UNL     1      40.397 -11.081  -0.559  1.00  0.00     0.007 A 
HETATM    7  C   UNL     1      40.189 -10.734  -1.881  1.00  0.00     0.047 A 
HETATM    8  N   UNL     1      40.779  -9.662  -2.453  1.00  0.00    -0.237 NA
HETATM    9  C   UNL     1      41.618  -8.923  -1.701  1.00  0.00     0.133 A 
HETATM   10  N   UNL     1      41.876  -9.183  -0.406  1.00  0.00    -0.244 NA
HETATM   11  C   UNL     1      41.264 -10.255   0.132  1.00  0.00     0.130 A 
HETATM   12  C   UNL     1      39.222 -11.493  -2.755  1.00  0.00     0.069 C 
ENDROOT
BRANCH   5  13
HETATM   13  N   UNL     1      40.742 -13.259   0.466  1.00  0.00    -0.347 N 
HETATM   14  C   UNL     1      40.590 -14.056   1.575  1.00  0.00     0.270 C 
HETATM   15  O   UNL     1      39.673 -13.906   2.375  1.00  0.00    -0.266 OA
HETATM   16  H   UNL     1      41.485 -13.461  -0.188  1.00  0.00     0.163 HD
BRANCH  14  17
HETATM   17  C   UNL     1      41.572 -15.093   1.732  1.00  0.00     0.122 A 
HETATM   18  N   UNL     1      42.868 -14.917   1.304  1.00  0.00    -0.270 N 
HETATM   19  H   UNL     1      43.251 -14.090   0.854  1.00  0.00     0.189 HD
HETATM   20  N   UNL     1      43.671 -15.974   1.536  1.00  0.00    -0.149 NA
HETATM   21  C   UNL     1      42.847 -16.827   2.119  1.00  0.00     0.183 A 
HETATM   22  C   UNL     1      41.540 -16.366   2.274  1.00  0.00     0.096 A 
BRANCH  21  23
HETATM   23  O   UNL     1      43.381 -17.990   2.474  1.00  0.00    -0.344 OA
HETATM   24  H   UNL     1      42.897 -18.247   3.278  1.00  0.00     0.219 HD
ENDBRANCH  21  23
ENDBRANCH  14  17
ENDBRANCH   5  13
BRANCH   9  25
HETATM   25  C   UNL     1      42.221  -7.663  -2.317  1.00  0.00     0.011 C 
HETATM   26  C   UNL     1      41.282  -6.482  -2.022  1.00  0.00     0.023 C 
HETATM   27  C   UNL     1      43.611  -7.371  -1.720  1.00  0.00     0.023 C 
HETATM   28  C   UNL     1      42.382  -7.813  -3.843  1.00  0.00     0.023 C 
ENDBRANCH   9  25
TORSDOF 4
ENDMDL
MODEL 6
REMARK VINA RESULT:      -6.8     11.419     15.099
REMARK  4 active torsions:
REMARK  status: ('A' for Active; 'I' for Inactive)
REMARK    1  A    between atoms: C_5  and  N_6 
REMARK       I    between atoms: N_6  and  C_7 
REMARK    2  A    between atoms: C_7  and  C_8 
REMARK    3  A    between atoms: C_12  and  O_13 
REMARK    4  A    between atoms: C_19  and  C_20 
ROOT
HETATM    1  C   UNL     1      38.955  -3.118  15.603  1.00  0.00     0.015 C 
HETATM    2  C   UNL     1      39.633  -4.501  15.527  1.00  0.00    -0.040 C 
HETATM    3  C   UNL     1      38.567  -5.563  15.854  1.00  0.00     0.015 C 
HETATM    4  C   UNL     1      40.813  -4.528  16.526  1.00  0.00     0.039 C 
HETATM    5  C   UNL     1      41.660  -5.815  16.478  1.00  0.00     0.122 C 
HETATM    6  C   UNL     1      41.865  -6.322  15.080  1.00  0.00     0.007 A 
HETATM    7  C   UNL     1      41.172  -5.845  13.983  1.00  0.00     0.047 A 
HETATM    8  N   UNL     1      41.382  -6.312  12.732  1.00  0.00    -0.237 NA
HETATM    9  C   UNL     1      42.289  -7.295  12.566  1.00  0.00     0.133 A 
HETATM   10  N   UNL     1      43.012  -7.815  13.575  1.00  0.00    -0.244 NA
HETATM   11  C   UNL     1      42.780  -7.320  14.805  1.00  0.00     0.130 A 
HETATM   12  C   UNL     1      40.186  -4.711  14.101  1.00  0.00     0.069 C 
ENDROOT
BRANCH   5  13
HETATM   13  N   UNL     1      41.093  -6.855  17.324  1.00  0.00    -0.347 N 
HETATM   14  C   UNL     1      41.654  -7.183  18.535  1.00  0.00     0.270 C 
HETATM   15  O   UNL     1      42.712  -6.699  18.924  1.00  0.00    -0.266 OA
HETATM   16  H   UNL     1      40.194  -7.244  17.077  1.00  0.00     0.163 HD
BRANCH  14  17
HETATM   17  C   UNL     1      40.912  -8.123  19.328  1.00  0.00     0.122 A 
HETATM   18  N   UNL     1      39.538  -8.083  19.379  1.00  0.00    -0.270 N 
HETATM   19  H   UNL     1      38.932  -7.425  18.897  1.00  0.00     0.189 HD
HETATM   20  N   UNL     1      38.989  -9.040  20.153  1.00  0.00    -0.149 NA
HETATM   21  C   UNL     1      40.055  -9.685  20.595  1.00  0.00     0.183 A 
HETATM   22  C   UNL     1      41.274  -9.184  20.139  1.00  0.00     0.096 A 
BRANCH  21  23
HETATM   23  O   UNL     1      39.810 -10.712  21.401  1.00  0.00    -0.344 OA
HETATM   24  H   UNL     1      40.501 -11.363  21.186  1.00  0.00     0.219 HD
ENDBRANCH  21  23
ENDBRANCH  14  17
ENDBRANCH   5  13
BRANCH   9  25
HETATM   25  C   UNL     1      42.590  -7.766  11.145  1.00  0.00     0.011 C 
HETATM   26  C   UNL     1      43.817  -8.691  11.190  1.00  0.00     0.023 C 
HETATM   27  C   UNL     1      41.392  -8.537  10.558  1.00  0.00     0.023 C 
HETATM   28  C   UNL     1      42.889  -6.574  10.215  1.00  0.00     0.023 C 
ENDBRANCH   9  25
TORSDOF 4
ENDMDL
MODEL 7
REMARK VINA RESULT:      -6.7     10.261     14.952
REMARK  4 active torsions:
REMARK  status: ('A' for Active; 'I' for Inactive)
REMARK    1  A    between atoms: C_5  and  N_6 
REMARK       I    between atoms: N_6  and  C_7 
REMARK    2  A    between atoms: C_7  and  C_8 
REMARK    3  A    between atoms: C_12  and  O_13 
REMARK    4  A    between atoms: C_19  and  C_20 
ROOT
HETATM    1  C   UNL     1      40.105  -3.737  12.603  1.00  0.00     0.015 C 
HETATM    2  C   UNL     1      40.812  -4.840  13.414  1.00  0.00    -0.040 C 
HETATM    3  C   UNL     1      42.266  -4.930  12.914  1.00  0.00     0.015 C 
HETATM    4  C   UNL     1      40.043  -6.167  13.219  1.00  0.00     0.039 C 
HETATM    5  C   UNL     1      40.571  -7.342  14.066  1.00  0.00     0.122 C 
HETATM    6  C   UNL     1      40.977  -6.922  15.448  1.00  0.00     0.007 A 
HETATM    7  C   UNL     1      41.106  -5.602  15.842  1.00  0.00     0.047 A 
HETATM    8  N   UNL     1      41.465  -5.250  17.096  1.00  0.00    -0.237 NA
HETATM    9  C   UNL     1      41.726  -6.232  17.981  1.00  0.00     0.133 A 
HETATM   10  N   UNL     1      41.621  -7.541  17.687  1.00  0.00    -0.244 NA
HETATM   11  C   UNL     1      41.254  -7.854  16.430  1.00  0.00     0.130 A 
HETATM   12  C   UNL     1      40.778  -4.463  14.910  1.00  0.00     0.069 C 
ENDROOT
BRANCH   5  13
HETATM   13  N   UNL     1      41.664  -8.030  13.395  1.00  0.00    -0.347 N 
HETATM   14  C   UNL     1      41.562  -9.350  13.025  1.00  0.00     0.270 C 
HETATM   15  O   UNL     1      40.599 -10.048  13.324  1.00  0.00    -0.266 OA
HETATM   16  H   UNL     1      42.455  -7.489  13.077  1.00  0.00     0.163 HD
BRANCH  14  17
HETATM   17  C   UNL     1      42.657  -9.861  12.246  1.00  0.00     0.122 A 
HETATM   18  N   UNL     1      43.046 -11.177  12.344  1.00  0.00    -0.270 N 
HETATM   19  H   UNL     1      42.634 -11.889  12.942  1.00  0.00     0.189 HD
HETATM   20  N   UNL     1      44.076 -11.507  11.540  1.00  0.00    -0.149 NA
HETATM   21  C   UNL     1      44.332 -10.360  10.932  1.00  0.00     0.183 A 
HETATM   22  C   UNL     1      43.509  -9.300  11.312  1.00  0.00     0.096 A 
BRANCH  21  23
HETATM   23  O   UNL     1      45.326 -10.387  10.053  1.00  0.00    -0.344 OA
HETATM   24  H   UNL     1      45.304  -9.510   9.631  1.00  0.00     0.219 HD
ENDBRANCH  21  23
ENDBRANCH  14  17
ENDBRANCH   5  13
BRANCH   9  25
HETATM   25  C   UNL     1      42.049  -5.839  19.420  1.00  0.00     0.011 C 
HETATM   26  C   UNL     1      43.175  -6.753  19.932  1.00  0.00     0.023 C 
HETATM   27  C   UNL     1      42.510  -4.371  19.497  1.00  0.00     0.023 C 
HETATM   28  C   UNL     1      40.815  -5.998  20.331  1.00  0.00     0.023 C 
ENDBRANCH   9  25
TORSDOF 4
ENDMDL
MODEL 8
REMARK VINA RESULT:      -6.5      3.115      7.013
REMARK  4 active torsions:
REMARK  status: ('A' for Active; 'I' for Inactive)
REMARK    1  A    between atoms: C_5  and  N_6 
REMARK       I    between atoms: N_6  and  C_7 
REMARK    2  A    between atoms: C_7  and  C_8 
REMARK    3  A    between atoms: C_12  and  O_13 
REMARK    4  A    between atoms: C_19  and  C_20 
ROOT
HETATM    1  C   UNL     1      42.638 -11.893   5.964  1.00  0.00     0.015 C 
HETATM    2  C   UNL     1      42.587 -12.829   4.740  1.00  0.00    -0.040 C 
HETATM    3  C   UNL     1      43.524 -12.247   3.666  1.00  0.00     0.015 C 
HETATM    4  C   UNL     1      41.123 -12.925   4.251  1.00  0.00     0.039 C 
HETATM    5  C   UNL     1      40.899 -13.922   3.097  1.00  0.00     0.122 C 
HETATM    6  C   UNL     1      41.708 -15.177   3.251  1.00  0.00     0.007 A 
HETATM    7  C   UNL     1      42.725 -15.325   4.177  1.00  0.00     0.047 A 
HETATM    8  N   UNL     1      43.433 -16.469   4.301  1.00  0.00    -0.237 NA
HETATM    9  C   UNL     1      43.140 -17.489   3.471  1.00  0.00     0.133 A 
HETATM   10  N   UNL     1      42.165 -17.436   2.545  1.00  0.00    -0.244 NA
HETATM   11  C   UNL     1      41.476 -16.282   2.455  1.00  0.00     0.130 A 
HETATM   12  C   UNL     1      43.060 -14.236   5.165  1.00  0.00     0.069 C 
ENDROOT
BRANCH   5  13
HETATM   13  N   UNL     1      41.151 -13.302   1.805  1.00  0.00    -0.347 N 
HETATM   14  C   UNL     1      40.163 -12.633   1.123  1.00  0.00     0.270 C 
HETATM   15  O   UNL     1      38.999 -12.606   1.507  1.00  0.00    -0.266 OA
HETATM   16  H   UNL     1      42.103 -13.248   1.471  1.00  0.00     0.163 HD
BRANCH  14  17
HETATM   17  C   UNL     1      40.586 -11.950  -0.069  1.00  0.00     0.122 A 
HETATM   18  N   UNL     1      41.073 -12.645  -1.152  1.00  0.00    -0.270 N 
HETATM   19  H   UNL     1      41.187 -13.652  -1.226  1.00  0.00     0.189 HD
HETATM   20  N   UNL     1      41.412 -11.865  -2.197  1.00  0.00    -0.149 NA
HETATM   21  C   UNL     1      41.130 -10.655  -1.744  1.00  0.00     0.183 A 
HETATM   22  C   UNL     1      40.622 -10.620  -0.446  1.00  0.00     0.096 A 
BRANCH  21  23
HETATM   23  O   UNL     1      41.367  -9.657  -2.588  1.00  0.00    -0.344 OA
HETATM   24  H   UNL     1      42.305  -9.754  -2.826  1.00  0.00     0.219 HD
ENDBRANCH  21  23
ENDBRANCH  14  17
ENDBRANCH   5  13
BRANCH   9  25
HETATM   25  C   UNL     1      43.879 -18.811   3.665  1.00  0.00     0.011 C 
HETATM   26  C   UNL     1      43.440 -19.780   2.555  1.00  0.00     0.023 C 
HETATM   27  C   UNL     1      45.404 -18.603   3.586  1.00  0.00     0.023 C 
HETATM   28  C   UNL     1      43.556 -19.433   5.037  1.00  0.00     0.023 C 
ENDBRANCH   9  25
TORSDOF 4
ENDMDL
MODEL 9
REMARK VINA RESULT:      -6.5      8.710     12.439
REMARK  4 active torsions:
REMARK  status: ('A' for Active; 'I' for Inactive)
REMARK    1  A    between atoms: C_5  and  N_6 
REMARK       I    between atoms: N_6  and  C_7 
REMARK    2  A    between atoms: C_7  and  C_8 
REMARK    3  A    between atoms: C_12  and  O_13 
REMARK    4  A    between atoms: C_19  and  C_20 
ROOT
HETATM    1  C   UNL     1      42.280  -6.729  15.910  1.00  0.00     0.015 C 
HETATM    2  C   UNL     1      41.917  -6.849  14.417  1.00  0.00    -0.040 C 
HETATM    3  C   UNL     1      41.853  -5.425  13.834  1.00  0.00     0.015 C 
HETATM    4  C   UNL     1      40.567  -7.593  14.295  1.00  0.00     0.039 C 
HETATM    5  C   UNL     1      40.129  -7.890  12.847  1.00  0.00     0.122 C 
HETATM    6  C   UNL     1      41.276  -8.295  11.968  1.00  0.00     0.007 A 
HETATM    7  C   UNL     1      42.604  -8.175  12.335  1.00  0.00     0.047 A 
HETATM    8  N   UNL     1      43.619  -8.556  11.528  1.00  0.00    -0.237 NA
HETATM    9  C   UNL     1      43.311  -9.050  10.313  1.00  0.00     0.133 A 
HETATM   10  N   UNL     1      42.049  -9.208   9.875  1.00  0.00    -0.244 NA
HETATM   11  C   UNL     1      41.064  -8.823  10.709  1.00  0.00     0.130 A 
HETATM   12  C   UNL     1      43.005  -7.678  13.701  1.00  0.00     0.069 C 
ENDROOT
BRANCH   5  13
HETATM   13  N   UNL     1      39.411  -6.764  12.269  1.00  0.00    -0.347 N 
HETATM   14  C   UNL     1      38.114  -6.479  12.625  1.00  0.00     0.270 C 
HETATM   15  O   UNL     1      37.458  -7.206  13.363  1.00  0.00    -0.266 OA
HETATM   16  H   UNL     1      39.922  -6.103  11.701  1.00  0.00     0.163 HD
BRANCH  14  17
HETATM   17  C   UNL     1      37.577  -5.260  12.086  1.00  0.00     0.122 A 
HETATM   18  N   UNL     1      36.531  -4.611  12.701  1.00  0.00    -0.270 N 
HETATM   19  H   UNL     1      36.049  -4.902  13.547  1.00  0.00     0.189 HD
HETATM   20  N   UNL     1      36.151  -3.474  12.084  1.00  0.00    -0.149 NA
HETATM   21  C   UNL     1      36.984  -3.424  11.057  1.00  0.00     0.183 A 
HETATM   22  C   UNL     1      37.888  -4.483  10.984  1.00  0.00     0.096 A 
BRANCH  21  23
HETATM   23  O   UNL     1      36.840  -2.377  10.254  1.00  0.00    -0.344 OA
HETATM   24  H   UNL     1      35.892  -2.161  10.299  1.00  0.00     0.219 HD
ENDBRANCH  21  23
ENDBRANCH  14  17
ENDBRANCH   5  13
BRANCH   9  25
HETATM   25  C   UNL     1      44.449  -9.560   9.433  1.00  0.00     0.011 C 
HETATM   26  C   UNL     1      45.562 -10.104  10.345  1.00  0.00     0.023 C 
HETATM   27  C   UNL     1      43.960 -10.685   8.500  1.00  0.00     0.023 C 
HETATM   28  C   UNL     1      45.023  -8.431   8.554  1.00  0.00     0.023 C 
ENDBRANCH   9  25
TORSDOF 4
ENDMDL
MODEL 10
REMARK VINA RESULT:      -6.2      4.067      7.971
REMARK  4 active torsions:
REMARK  status: ('A' for Active; 'I' for Inactive)
REMARK    1  A    between atoms: C_5  and  N_6 
REMARK       I    between atoms: N_6  and  C_7 
REMARK    2  A    between atoms: C_7  and  C_8 
REMARK    3  A    between atoms: C_12  and  O_13 
REMARK    4  A    between atoms: C_19  and  C_20 
ROOT
HETATM    1  C   UNL     1      38.380  -9.541   3.539  1.00  0.00     0.015 C 
HETATM    2  C   UNL     1      39.088 -10.386   2.462  1.00  0.00    -0.040 C 
HETATM    3  C   UNL     1      40.148  -9.495   1.789  1.00  0.00     0.015 C 
HETATM    4  C   UNL     1      38.028 -10.896   1.458  1.00  0.00     0.039 C 
HETATM    5  C   UNL     1      38.576 -11.856   0.383  1.00  0.00     0.122 C 
HETATM    6  C   UNL     1      39.596 -12.813   0.928  1.00  0.00     0.007 A 
HETATM    7  C   UNL     1      40.169 -12.691   2.181  1.00  0.00     0.047 A 
HETATM    8  N   UNL     1      41.079 -13.572   2.652  1.00  0.00    -0.237 NA
HETATM    9  C   UNL     1      41.450 -14.591   1.851  1.00  0.00     0.133 A 
HETATM   10  N   UNL     1      40.941 -14.789   0.621  1.00  0.00    -0.244 NA
HETATM   11  C   UNL     1      40.032 -13.895   0.188  1.00  0.00     0.130 A 
HETATM   12  C   UNL     1      39.755 -11.603   3.138  1.00  0.00     0.069 C 
ENDROOT
BRANCH   5  13
HETATM   13  N   UNL     1      39.113 -11.125  -0.756  1.00  0.00    -0.347 N 
HETATM   14  C   UNL     1      38.697 -11.389  -2.039  1.00  0.00     0.270 C 
HETATM   15  O   UNL     1      37.937 -12.313  -2.310  1.00  0.00    -0.266 OA
HETATM   16  H   UNL     1      39.698 -10.320  -0.583  1.00  0.00     0.163 HD
BRANCH  14  17
HETATM   17  C   UNL     1      39.201 -10.500  -3.049  1.00  0.00     0.122 A 
HETATM   18  N   UNL     1      38.366  -9.948  -3.992  1.00  0.00    -0.270 N 
HETATM   19  H   UNL     1      37.364 -10.100  -4.079  1.00  0.00     0.189 HD
HETATM   20  N   UNL     1      38.985  -9.123  -4.860  1.00  0.00    -0.149 NA
HETATM   21  C   UNL     1      40.239  -9.172  -4.442  1.00  0.00     0.183 A 
HETATM   22  C   UNL     1      40.457  -9.996  -3.339  1.00  0.00     0.096 A 
BRANCH  21  23
HETATM   23  O   UNL     1      41.100  -8.431  -5.128  1.00  0.00    -0.344 OA
HETATM   24  H   UNL     1      41.342  -8.980  -5.894  1.00  0.00     0.219 HD
ENDBRANCH  21  23
ENDBRANCH  14  17
ENDBRANCH   5  13
BRANCH   9  25
HETATM   25  C   UNL     1      42.413 -15.634   2.410  1.00  0.00     0.011 C 
HETATM   26  C   UNL     1      42.890 -15.162   3.793  1.00  0.00     0.023 C 
HETATM   27  C   UNL     1      41.718 -17.002   2.551  1.00  0.00     0.023 C 
HETATM   28  C   UNL     1      43.635 -15.816   1.488  1.00  0.00     0.023 C 
ENDBRANCH   9  25
TORSDOF 4
ENDMDL
