MODEL 1
REMARK VINA RESULT:      -8.6      0.000      0.000
REMARK  10 active torsions:
REMARK  status: ('A' for Active; 'I' for Inactive)
REMARK    1  A    between atoms: C_2  and  C_3 
REMARK    2  A    between atoms: C_3  and  C_4 
REMARK    3  A    between atoms: C_4  and  O_5 
REMARK    4  A    between atoms: O_5  and  C_6 
REMARK    5  A    between atoms: C_9  and  C_10 
REMARK       I    between atoms: C_10  and  N_11 
REMARK    6  A    between atoms: N_11  and  C_12 
REMARK    7  A    between atoms: C_12  and  N_13 
REMARK    8  A    between atoms: N_13  and  C_14 
REMARK    9  A    between atoms: C_16  and  O_17 
REMARK   10  A    between atoms: C_18  and  C_19 
ROOT
HETATM    1  N   UNL     1      39.140 -13.176   0.606  1.00  0.00    -0.333 N 
HETATM    2  H   UNL     1      38.241 -13.589   0.377  1.00  0.00     0.168 HD
ENDROOT
BRANCH   1   3
HETATM    3  C   UNL     1      39.352 -11.897   0.100  1.00  0.00     0.179 C 
HETATM    4  S   UNL     1      40.041 -11.727  -1.404  1.00  0.00    -0.040 SA
BRANCH   3   5
HETATM    5  N   UNL     1      39.027 -10.875   0.997  1.00  0.00    -0.299 N 
HETATM    6  C   UNL     1      39.532 -10.253   2.129  1.00  0.00     0.257 C 
HETATM    7  O   UNL     1      39.074  -9.152   2.444  1.00  0.00    -0.267 OA
HETATM    8  H   UNL     1      38.227 -10.328   0.708  1.00  0.00     0.171 HD
BRANCH   6   9
HETATM    9  C   UNL     1      40.603 -10.813   2.955  1.00  0.00     0.032 A 
HETATM   10  C   UNL     1      40.227 -11.477   4.130  1.00  0.00     0.020 A 
HETATM   11  C   UNL     1      41.133 -12.321   4.765  1.00  0.00     0.038 A 
HETATM   12  C   UNL     1      42.390 -12.528   4.195  1.00  0.00     0.068 A 
HETATM   13  C   UNL     1      42.796 -11.805   3.072  1.00  0.00     0.038 A 
HETATM   14  C   UNL     1      41.893 -10.955   2.433  1.00  0.00     0.020 A 
BRANCH  12  15
HETATM   15  O   UNL     1      43.244 -13.478   4.688  1.00  0.00    -0.351 OA
BRANCH  15  16
HETATM   16  C   UNL     1      42.941 -13.786   6.060  1.00  0.00     0.175 C 
BRANCH  16  17
HETATM   17  C   UNL     1      43.951 -14.809   6.577  1.00  0.00     0.026 C 
BRANCH  17  18
HETATM   18  C   UNL     1      43.253 -15.967   7.288  1.00  0.00    -0.002 C 
HETATM   19  C   UNL     1      41.748 -15.926   7.084  1.00  0.00     0.005 C 
ENDBRANCH  17  18
ENDBRANCH  16  17
ENDBRANCH  15  16
ENDBRANCH  12  15
ENDBRANCH   6   9
ENDBRANCH   3   5
ENDBRANCH   1   3
BRANCH   1  20
HETATM   20  C   UNL     1      40.077 -13.963   1.310  1.00  0.00     0.036 C 
HETATM   21  C   UNL     1      39.681 -14.635   2.466  1.00  0.00     0.067 C 
HETATM   22  C   UNL     1      40.518 -15.625   3.005  1.00  0.00     0.082 C 
HETATM   23  C   UNL     1      41.764 -15.917   2.426  1.00  0.00     0.050 C 
HETATM   24  C   UNL     1      42.208 -15.105   1.373  1.00  0.00     0.021 C 
HETATM   25  C   UNL     1      41.375 -14.135   0.823  1.00  0.00     0.030 C 
BRANCH  22  26
HETATM   26  O   UNL     1      40.091 -16.337   4.094  1.00  0.00    -0.360 OA
HETATM   27  H   UNL     1      40.797 -16.926   4.404  1.00  0.00     0.217 HD
ENDBRANCH  22  26
BRANCH  23  28
HETATM   28  C   UNL     1      42.589 -17.075   2.764  1.00  0.00     0.183 A 
HETATM   29  O   UNL     1      42.988 -17.185   4.073  1.00  0.00    -0.289 OA
HETATM   30  C   UNL     1      43.448 -18.464   4.174  1.00  0.00     0.106 A 
HETATM   31  C   UNL     1      43.322 -19.059   2.930  1.00  0.00     0.093 A 
HETATM   32  C   UNL     1      43.924 -19.103   5.312  1.00  0.00     0.040 A 
HETATM   33  N   UNL     1      42.790 -18.165   2.038  1.00  0.00    -0.221 NA
HETATM   34  C   UNL     1      43.690 -20.402   2.778  1.00  0.00     0.034 A 
HETATM   35  C   UNL     1      44.166 -21.088   3.907  1.00  0.00     0.002 A 
HETATM   36  C   UNL     1      44.280 -20.448   5.149  1.00  0.00     0.003 A 
ENDBRANCH  23  28
ENDBRANCH   1  20
TORSDOF 10
ENDMDL
MODEL 2
REMARK VINA RESULT:      -8.6      3.066      6.831
REMARK  10 active torsions:
REMARK  status: ('A' for Active; 'I' for Inactive)
REMARK    1  A    between atoms: C_2  and  C_3 
REMARK    2  A    between atoms: C_3  and  C_4 
REMARK    3  A    between atoms: C_4  and  O_5 
REMARK    4  A    between atoms: O_5  and  C_6 
REMARK    5  A    between atoms: C_9  and  C_10 
REMARK       I    between atoms: C_10  and  N_11 
REMARK    6  A    between atoms: N_11  and  C_12 
REMARK    7  A    between atoms: C_12  and  N_13 
REMARK    8  A    between atoms: N_13  and  C_14 
REMARK    9  A    between atoms: C_16  and  O_17 
REMARK   10  A    between atoms: C_18  and  C_19 
ROOT
HETATM    1  N   UNL     1      42.827 -11.237   5.042  1.00  0.00    -0.333 N 
HETATM    2  H   UNL     1      43.178 -10.294   5.176  1.00  0.00     0.168 HD
ENDROOT
BRANCH   1   3
HETATM    3  C   UNL     1      42.984 -12.091   6.129  1.00  0.00     0.179 C 
HETATM    4  S   UNL     1      44.361 -11.978   7.053  1.00  0.00    -0.040 SA
BRANCH   3   5
HETATM    5  N   UNL     1      41.958 -13.034   6.258  1.00  0.00    -0.299 N 
HETATM    6  C   UNL     1      41.754 -14.402   6.155  1.00  0.00     0.257 C 
HETATM    7  O   UNL     1      40.739 -14.880   6.667  1.00  0.00    -0.267 OA
HETATM    8  H   UNL     1      41.105 -12.649   6.639  1.00  0.00     0.171 HD
BRANCH   6   9
HETATM    9  C   UNL     1      42.691 -15.317   5.503  1.00  0.00     0.032 A 
HETATM   10  C   UNL     1      43.838 -15.682   6.221  1.00  0.00     0.020 A 
HETATM   11  C   UNL     1      44.574 -16.794   5.825  1.00  0.00     0.038 A 
HETATM   12  C   UNL     1      44.132 -17.557   4.744  1.00  0.00     0.068 A 
HETATM   13  C   UNL     1      43.039 -17.150   3.977  1.00  0.00     0.038 A 
HETATM   14  C   UNL     1      42.299 -16.033   4.367  1.00  0.00     0.020 A 
BRANCH  12  15
HETATM   15  O   UNL     1      44.725 -18.752   4.430  1.00  0.00    -0.351 OA
BRANCH  15  16
HETATM   16  C   UNL     1      43.985 -19.858   4.977  1.00  0.00     0.175 C 
BRANCH  16  17
HETATM   17  C   UNL     1      43.902 -20.968   3.931  1.00  0.00     0.026 C 
BRANCH  17  18
HETATM   18  C   UNL     1      44.062 -20.412   2.517  1.00  0.00    -0.002 C 
HETATM   19  C   UNL     1      42.717 -20.174   1.851  1.00  0.00     0.005 C 
ENDBRANCH  17  18
ENDBRANCH  16  17
ENDBRANCH  15  16
ENDBRANCH  12  15
ENDBRANCH   6   9
ENDBRANCH   3   5
ENDBRANCH   1   3
BRANCH   1  20
HETATM   20  C   UNL     1      42.320 -11.585   3.770  1.00  0.00     0.036 C 
HETATM   21  C   UNL     1      42.894 -12.643   3.067  1.00  0.00     0.067 C 
HETATM   22  C   UNL     1      42.227 -13.165   1.947  1.00  0.00     0.082 C 
HETATM   23  C   UNL     1      41.017 -12.610   1.498  1.00  0.00     0.050 C 
HETATM   24  C   UNL     1      40.558 -11.440   2.120  1.00  0.00     0.021 C 
HETATM   25  C   UNL     1      41.205 -10.929   3.242  1.00  0.00     0.030 C 
BRANCH  22  26
HETATM   26  O   UNL     1      42.754 -14.254   1.306  1.00  0.00    -0.360 OA
HETATM   27  H   UNL     1      43.377 -14.714   1.891  1.00  0.00     0.217 HD
ENDBRANCH  22  26
BRANCH  23  28
HETATM   28  C   UNL     1      40.138 -13.221   0.504  1.00  0.00     0.183 A 
HETATM   29  O   UNL     1      39.103 -12.448   0.039  1.00  0.00    -0.289 OA
HETATM   30  C   UNL     1      38.659 -13.116  -1.063  1.00  0.00     0.106 A 
HETATM   31  C   UNL     1      39.427 -14.259  -1.204  1.00  0.00     0.093 A 
HETATM   32  C   UNL     1      37.650 -12.728  -1.936  1.00  0.00     0.040 A 
HETATM   33  N   UNL     1      40.353 -14.326  -0.196  1.00  0.00    -0.221 NA
HETATM   34  C   UNL     1      39.195 -15.103  -2.298  1.00  0.00     0.034 A 
HETATM   35  C   UNL     1      38.191 -14.742  -3.210  1.00  0.00     0.002 A 
HETATM   36  C   UNL     1      37.434 -13.576  -3.029  1.00  0.00     0.003 A 
ENDBRANCH  23  28
ENDBRANCH   1  20
TORSDOF 10
ENDMDL
MODEL 3
REMARK VINA RESULT:      -8.6      2.547      3.453
REMARK  10 active torsions:
REMARK  status: ('A' for Active; 'I' for Inactive)
REMARK    1  A    between atoms: C_2  and  C_3 
REMARK    2  A    between atoms: C_3  and  C_4 
REMARK    3  A    between atoms: C_4  and  O_5 
REMARK    4  A    between atoms: O_5  and  C_6 
REMARK    5  A    between atoms: C_9  and  C_10 
REMARK       I    between atoms: C_10  and  N_11 
REMARK    6  A    between atoms: N_11  and  C_12 
REMARK    7  A    between atoms: C_12  and  N_13 
REMARK    8  A    between atoms: N_13  and  C_14 
REMARK    9  A    between atoms: C_16  and  O_17 
REMARK   10  A    between atoms: C_18  and  C_19 
ROOT
HETATM    1  N   UNL     1      39.592 -12.484   2.138  1.00  0.00    -0.333 N 
HETATM    2  H   UNL     1      39.310 -11.983   1.301  1.00  0.00     0.168 HD
ENDROOT
BRANCH   1   3
HETATM    3  C   UNL     1      39.260 -11.867   3.340  1.00  0.00     0.179 C 
HETATM    4  S   UNL     1      39.069 -10.216   3.376  1.00  0.00    -0.040 SA
BRANCH   3   5
HETATM    5  N   UNL     1      39.214 -12.744   4.429  1.00  0.00    -0.299 N 
HETATM    6  C   UNL     1      40.016 -13.189   5.469  1.00  0.00     0.257 C 
HETATM    7  O   UNL     1      39.475 -13.751   6.424  1.00  0.00    -0.267 OA
HETATM    8  H   UNL     1      38.291 -13.116   4.605  1.00  0.00     0.171 HD
BRANCH   6   9
HETATM    9  C   UNL     1      41.467 -13.002   5.515  1.00  0.00     0.032 A 
HETATM   10  C   UNL     1      41.950 -11.692   5.397  1.00  0.00     0.020 A 
HETATM   11  C   UNL     1      43.256 -11.402   5.778  1.00  0.00     0.038 A 
HETATM   12  C   UNL     1      44.052 -12.413   6.318  1.00  0.00     0.068 A 
HETATM   13  C   UNL     1      43.603 -13.734   6.360  1.00  0.00     0.038 A 
HETATM   14  C   UNL     1      42.295 -14.032   5.975  1.00  0.00     0.020 A 
BRANCH  12  15
HETATM   15  O   UNL     1      45.276 -12.136   6.865  1.00  0.00    -0.351 OA
BRANCH  15  16
HETATM   16  C   UNL     1      45.626 -10.752   6.680  1.00  0.00     0.175 C 
BRANCH  16  17
HETATM   17  C   UNL     1      46.402 -10.266   7.903  1.00  0.00     0.026 C 
BRANCH  17  18
HETATM   18  C   UNL     1      45.601  -9.231   8.692  1.00  0.00    -0.002 C 
HETATM   19  C   UNL     1      45.207  -9.752  10.064  1.00  0.00     0.005 C 
ENDBRANCH  17  18
ENDBRANCH  16  17
ENDBRANCH  15  16
ENDBRANCH  12  15
ENDBRANCH   6   9
ENDBRANCH   3   5
ENDBRANCH   1   3
BRANCH   1  20
HETATM   20  C   UNL     1      40.349 -13.667   1.985  1.00  0.00     0.036 C 
HETATM   21  C   UNL     1      41.710 -13.580   1.696  1.00  0.00     0.067 C 
HETATM   22  C   UNL     1      42.511 -14.727   1.818  1.00  0.00     0.082 C 
HETATM   23  C   UNL     1      41.957 -15.966   2.180  1.00  0.00     0.050 C 
HETATM   24  C   UNL     1      40.562 -16.056   2.291  1.00  0.00     0.021 C 
HETATM   25  C   UNL     1      39.765 -14.919   2.190  1.00  0.00     0.030 C 
BRANCH  22  26
HETATM   26  O   UNL     1      43.861 -14.620   1.611  1.00  0.00    -0.360 OA
HETATM   27  H   UNL     1      44.285 -14.212   2.383  1.00  0.00     0.217 HD
ENDBRANCH  22  26
BRANCH  23  28
HETATM   28  C   UNL     1      42.731 -17.145   2.560  1.00  0.00     0.183 A 
HETATM   29  O   UNL     1      43.185 -17.192   3.855  1.00  0.00    -0.289 OA
HETATM   30  C   UNL     1      43.578 -18.486   4.023  1.00  0.00     0.106 A 
HETATM   31  C   UNL     1      43.360 -19.153   2.830  1.00  0.00     0.093 A 
HETATM   32  C   UNL     1      44.071 -19.076   5.180  1.00  0.00     0.040 A 
HETATM   33  N   UNL     1      42.836 -18.291   1.902  1.00  0.00    -0.221 NA
HETATM   34  C   UNL     1      43.645 -20.523   2.754  1.00  0.00     0.034 A 
HETATM   35  C   UNL     1      44.135 -21.159   3.905  1.00  0.00     0.002 A 
HETATM   36  C   UNL     1      44.344 -20.446   5.094  1.00  0.00     0.003 A 
ENDBRANCH  23  28
ENDBRANCH   1  20
TORSDOF 10
ENDMDL
MODEL 4
REMARK VINA RESULT:      -8.6      3.090      6.723
REMARK  10 active torsions:
REMARK  status: ('A' for Active; 'I' for Inactive)
REMARK    1  A    between atoms: C_2  and  C_3 
REMARK    2  A    between atoms: C_3  and  C_4 
REMARK    3  A    between atoms: C_4  and  O_5 
REMARK    4  A    between atoms: O_5  and  C_6 
REMARK    5  A    between atoms: C_9  and  C_10 
REMARK       I    between atoms: C_10  and  N_11 
REMARK    6  A    between atoms: N_11  and  C_12 
REMARK    7  A    between atoms: C_12  and  N_13 
REMARK    8  A    between atoms: N_13  and  C_14 
REMARK    9  A    between atoms: C_16  and  O_17 
REMARK   10  A    between atoms: C_18  and  C_19 
ROOT
HETATM    1  N   UNL     1      42.239 -12.001   5.866  1.00  0.00    -0.333 N 
HETATM    2  H   UNL     1      41.736 -11.204   6.244  1.00  0.00     0.168 HD
ENDROOT
BRANCH   1   3
HETATM    3  C   UNL     1      43.380 -12.373   6.570  1.00  0.00     0.179 C 
HETATM    4  S   UNL     1      44.834 -11.663   6.186  1.00  0.00    -0.040 SA
BRANCH   3   5
HETATM    5  N   UNL     1      43.164 -13.405   7.490  1.00  0.00    -0.299 N 
HETATM    6  C   UNL     1      43.026 -14.784   7.526  1.00  0.00     0.257 C 
HETATM    7  O   UNL     1      43.162 -15.356   8.610  1.00  0.00    -0.267 OA
HETATM    8  H   UNL     1      43.217 -13.101   8.452  1.00  0.00     0.171 HD
BRANCH   6   9
HETATM    9  C   UNL     1      42.759 -15.606   6.345  1.00  0.00     0.032 A 
HETATM   10  C   UNL     1      41.435 -16.010   6.129  1.00  0.00     0.020 A 
HETATM   11  C   UNL     1      41.053 -16.478   4.876  1.00  0.00     0.038 A 
HETATM   12  C   UNL     1      41.986 -16.495   3.838  1.00  0.00     0.068 A 
HETATM   13  C   UNL     1      43.324 -16.172   4.071  1.00  0.00     0.038 A 
HETATM   14  C   UNL     1      43.714 -15.706   5.327  1.00  0.00     0.020 A 
BRANCH  12  15
HETATM   15  O   UNL     1      41.610 -16.781   2.553  1.00  0.00    -0.351 OA
BRANCH  15  16
HETATM   16  C   UNL     1      42.681 -17.413   1.828  1.00  0.00     0.175 C 
BRANCH  16  17
HETATM   17  C   UNL     1      43.362 -18.437   2.734  1.00  0.00     0.026 C 
BRANCH  17  18
HETATM   18  C   UNL     1      43.375 -19.823   2.091  1.00  0.00    -0.002 C 
HETATM   19  C   UNL     1      43.775 -20.900   3.086  1.00  0.00     0.005 C 
ENDBRANCH  17  18
ENDBRANCH  16  17
ENDBRANCH  15  16
ENDBRANCH  12  15
ENDBRANCH   6   9
ENDBRANCH   3   5
ENDBRANCH   1   3
BRANCH   1  20
HETATM   20  C   UNL     1      41.785 -12.562   4.652  1.00  0.00     0.036 C 
HETATM   21  C   UNL     1      40.450 -12.945   4.527  1.00  0.00     0.067 C 
HETATM   22  C   UNL     1      39.937 -13.239   3.254  1.00  0.00     0.082 C 
HETATM   23  C   UNL     1      40.756 -13.197   2.113  1.00  0.00     0.050 C 
HETATM   24  C   UNL     1      42.128 -12.981   2.295  1.00  0.00     0.021 C 
HETATM   25  C   UNL     1      42.640 -12.670   3.552  1.00  0.00     0.030 C 
BRANCH  22  26
HETATM   26  O   UNL     1      38.607 -13.538   3.126  1.00  0.00    -0.360 OA
HETATM   27  H   UNL     1      38.340 -13.475   2.195  1.00  0.00     0.217 HD
ENDBRANCH  22  26
BRANCH  23  28
HETATM   28  C   UNL     1      40.269 -13.251   0.736  1.00  0.00     0.183 A 
HETATM   29  O   UNL     1      40.345 -14.467   0.105  1.00  0.00    -0.289 OA
HETATM   30  C   UNL     1      39.561 -14.317  -1.001  1.00  0.00     0.106 A 
HETATM   31  C   UNL     1      39.064 -13.025  -0.995  1.00  0.00     0.093 A 
HETATM   32  C   UNL     1      39.257 -15.277  -1.958  1.00  0.00     0.040 A 
HETATM   33  N   UNL     1      39.531 -12.350   0.103  1.00  0.00    -0.221 NA
HETATM   34  C   UNL     1      38.188 -12.629  -2.014  1.00  0.00     0.034 A 
HETATM   35  C   UNL     1      37.846 -13.573  -2.995  1.00  0.00     0.002 A 
HETATM   36  C   UNL     1      38.374 -14.871  -2.965  1.00  0.00     0.003 A 
ENDBRANCH  23  28
ENDBRANCH   1  20
TORSDOF 10
ENDMDL
MODEL 5
REMARK VINA RESULT:      -8.5      2.901      6.638
REMARK  10 active torsions:
REMARK  status: ('A' for Active; 'I' for Inactive)
REMARK    1  A    between atoms: C_2  and  C_3 
REMARK    2  A    between atoms: C_3  and  C_4 
REMARK    3  A    between atoms: C_4  and  O_5 
REMARK    4  A    between atoms: O_5  and  C_6 
REMARK    5  A    between atoms: C_9  and  C_10 
REMARK       I    between atoms: C_10  and  N_11 
REMARK    6  A    between atoms: N_11  and  C_12 
REMARK    7  A    between atoms: C_12  and  N_13 
REMARK    8  A    between atoms: N_13  and  C_14 
REMARK    9  A    between atoms: C_16  and  O_17 
REMARK   10  A    between atoms: C_18  and  C_19 
ROOT
HETATM    1  N   UNL     1      39.391 -12.599   1.830  1.00  0.00    -0.333 N 
HETATM    2  H   UNL     1      38.411 -12.442   2.040  1.00  0.00     0.168 HD
ENDROOT
BRANCH   1   3
HETATM    3  C   UNL     1      39.659 -13.052   0.541  1.00  0.00     0.179 C 
HETATM    4  S   UNL     1      39.890 -11.940  -0.674  1.00  0.00    -0.040 SA
BRANCH   3   5
HETATM    5  N   UNL     1      39.610 -14.444   0.411  1.00  0.00    -0.299 N 
HETATM    6  C   UNL     1      40.043 -15.588   1.064  1.00  0.00     0.257 C 
HETATM    7  O   UNL     1      39.508 -16.661   0.777  1.00  0.00    -0.267 OA
HETATM    8  H   UNL     1      38.990 -14.755  -0.324  1.00  0.00     0.171 HD
BRANCH   6   9
HETATM    9  C   UNL     1      41.078 -15.592   2.098  1.00  0.00     0.032 A 
HETATM   10  C   UNL     1      40.717 -16.063   3.367  1.00  0.00     0.020 A 
HETATM   11  C   UNL     1      41.706 -16.423   4.277  1.00  0.00     0.038 A 
HETATM   12  C   UNL     1      43.046 -16.351   3.893  1.00  0.00     0.068 A 
HETATM   13  C   UNL     1      43.412 -15.805   2.662  1.00  0.00     0.038 A 
HETATM   14  C   UNL     1      42.424 -15.439   1.747  1.00  0.00     0.020 A 
BRANCH  12  15
HETATM   15  O   UNL     1      44.039 -16.857   4.690  1.00  0.00    -0.351 OA
BRANCH  15  16
HETATM   16  C   UNL     1      43.846 -18.263   4.930  1.00  0.00     0.175 C 
BRANCH  16  17
HETATM   17  C   UNL     1      44.547 -19.058   3.830  1.00  0.00     0.026 C 
BRANCH  17  18
HETATM   18  C   UNL     1      43.649 -20.173   3.294  1.00  0.00    -0.002 C 
HETATM   19  C   UNL     1      43.200 -19.897   1.870  1.00  0.00     0.005 C 
ENDBRANCH  17  18
ENDBRANCH  16  17
ENDBRANCH  15  16
ENDBRANCH  12  15
ENDBRANCH   6   9
ENDBRANCH   3   5
ENDBRANCH   1   3
BRANCH   1  20
HETATM   20  C   UNL     1      40.332 -12.434   2.870  1.00  0.00     0.036 C 
HETATM   21  C   UNL     1      41.589 -11.903   2.585  1.00  0.00     0.067 C 
HETATM   22  C   UNL     1      42.413 -11.484   3.641  1.00  0.00     0.082 C 
HETATM   23  C   UNL     1      42.011 -11.633   4.979  1.00  0.00     0.050 C 
HETATM   24  C   UNL     1      40.822 -12.329   5.236  1.00  0.00     0.021 C 
HETATM   25  C   UNL     1      39.992 -12.730   4.193  1.00  0.00     0.030 C 
BRANCH  22  26
HETATM   26  O   UNL     1      43.613 -10.890   3.354  1.00  0.00    -0.360 OA
HETATM   27  H   UNL     1      43.824 -10.225   4.028  1.00  0.00     0.217 HD
ENDBRANCH  22  26
BRANCH  23  28
HETATM   28  C   UNL     1      42.682 -11.020   6.124  1.00  0.00     0.183 A 
HETATM   29  O   UNL     1      43.985 -11.390   6.343  1.00  0.00    -0.289 OA
HETATM   30  C   UNL     1      44.447 -10.467   7.234  1.00  0.00     0.106 A 
HETATM   31  C   UNL     1      43.408  -9.599   7.521  1.00  0.00     0.093 A 
HETATM   32  C   UNL     1      45.733 -10.360   7.749  1.00  0.00     0.040 A 
HETATM   33  N   UNL     1      42.287  -9.966   6.824  1.00  0.00    -0.221 NA
HETATM   34  C   UNL     1      43.641  -8.524   8.388  1.00  0.00     0.034 A 
HETATM   35  C   UNL     1      44.930  -8.373   8.922  1.00  0.00     0.002 A 
HETATM   36  C   UNL     1      45.955  -9.276   8.607  1.00  0.00     0.003 A 
ENDBRANCH  23  28
ENDBRANCH   1  20
TORSDOF 10
ENDMDL
MODEL 6
REMARK VINA RESULT:      -8.3      3.001      6.298
REMARK  10 active torsions:
REMARK  status: ('A' for Active; 'I' for Inactive)
REMARK    1  A    between atoms: C_2  and  C_3 
REMARK    2  A    between atoms: C_3  and  C_4 
REMARK    3  A    between atoms: C_4  and  O_5 
REMARK    4  A    between atoms: O_5  and  C_6 
REMARK    5  A    between atoms: C_9  and  C_10 
REMARK       I    between atoms: C_10  and  N_11 
REMARK    6  A    between atoms: N_11  and  C_12 
REMARK    7  A    between atoms: C_12  and  N_13 
REMARK    8  A    between atoms: N_13  and  C_14 
REMARK    9  A    between atoms: C_16  and  O_17 
REMARK   10  A    between atoms: C_18  and  C_19 
ROOT
HETATM    1  N   UNL     1      38.761 -12.790   2.634  1.00  0.00    -0.333 N 
HETATM    2  H   UNL     1      38.172 -13.614   2.708  1.00  0.00     0.168 HD
ENDROOT
BRANCH   1   3
HETATM    3  C   UNL     1      38.903 -12.275   1.349  1.00  0.00     0.179 C 
HETATM    4  S   UNL     1      38.612 -10.658   1.090  1.00  0.00    -0.040 SA
BRANCH   3   5
HETATM    5  N   UNL     1      39.201 -13.242   0.383  1.00  0.00    -0.299 N 
HETATM    6  C   UNL     1      39.891 -14.437   0.254  1.00  0.00     0.257 C 
HETATM    7  O   UNL     1      39.642 -15.154  -0.718  1.00  0.00    -0.267 OA
HETATM    8  H   UNL     1      38.690 -13.116  -0.480  1.00  0.00     0.171 HD
BRANCH   6   9
HETATM    9  C   UNL     1      40.878 -14.916   1.223  1.00  0.00     0.032 A 
HETATM   10  C   UNL     1      41.991 -14.099   1.463  1.00  0.00     0.020 A 
HETATM   11  C   UNL     1      42.768 -14.308   2.598  1.00  0.00     0.038 A 
HETATM   12  C   UNL     1      42.398 -15.301   3.506  1.00  0.00     0.068 A 
HETATM   13  C   UNL     1      41.341 -16.169   3.229  1.00  0.00     0.038 A 
HETATM   14  C   UNL     1      40.561 -15.967   2.090  1.00  0.00     0.020 A 
BRANCH  12  15
HETATM   15  O   UNL     1      43.029 -15.425   4.716  1.00  0.00    -0.351 OA
BRANCH  15  16
HETATM   16  C   UNL     1      42.962 -16.778   5.200  1.00  0.00     0.175 C 
BRANCH  16  17
HETATM   17  C   UNL     1      44.344 -17.419   5.086  1.00  0.00     0.026 C 
BRANCH  17  18
HETATM   18  C   UNL     1      44.270 -18.778   4.393  1.00  0.00    -0.002 C 
HETATM   19  C   UNL     1      43.973 -18.637   2.909  1.00  0.00     0.005 C 
ENDBRANCH  17  18
ENDBRANCH  16  17
ENDBRANCH  15  16
ENDBRANCH  12  15
ENDBRANCH   6   9
ENDBRANCH   3   5
ENDBRANCH   1   3
BRANCH   1  20
HETATM   20  C   UNL     1      39.423 -12.336   3.796  1.00  0.00     0.036 C 
HETATM   21  C   UNL     1      39.871 -13.259   4.739  1.00  0.00     0.067 C 
HETATM   22  C   UNL     1      40.761 -12.840   5.741  1.00  0.00     0.082 C 
HETATM   23  C   UNL     1      41.169 -11.499   5.836  1.00  0.00     0.050 C 
HETATM   24  C   UNL     1      40.564 -10.565   4.983  1.00  0.00     0.021 C 
HETATM   25  C   UNL     1      39.697 -10.977   3.976  1.00  0.00     0.030 C 
BRANCH  22  26
HETATM   26  O   UNL     1      41.260 -13.767   6.617  1.00  0.00    -0.360 OA
HETATM   27  H   UNL     1      41.120 -14.662   6.269  1.00  0.00     0.217 HD
ENDBRANCH  22  26
BRANCH  23  28
HETATM   28  C   UNL     1      42.259 -11.019   6.681  1.00  0.00     0.183 A 
HETATM   29  O   UNL     1      43.496 -11.576   6.466  1.00  0.00    -0.289 OA
HETATM   30  C   UNL     1      44.351 -10.752   7.135  1.00  0.00     0.106 A 
HETATM   31  C   UNL     1      43.600  -9.754   7.731  1.00  0.00     0.093 A 
HETATM   32  C   UNL     1      45.736 -10.842   7.194  1.00  0.00     0.040 A 
HETATM   33  N   UNL     1      42.272  -9.939   7.450  1.00  0.00    -0.221 NA
HETATM   34  C   UNL     1      44.257  -8.746   8.449  1.00  0.00     0.034 A 
HETATM   35  C   UNL     1      45.657  -8.794   8.525  1.00  0.00     0.002 A 
HETATM   36  C   UNL     1      46.381  -9.824   7.908  1.00  0.00     0.003 A 
ENDBRANCH  23  28
ENDBRANCH   1  20
TORSDOF 10
ENDMDL
MODEL 7
REMARK VINA RESULT:      -8.3      5.368      6.480
REMARK  10 active torsions:
REMARK  status: ('A' for Active; 'I' for Inactive)
REMARK    1  A    between atoms: C_2  and  C_3 
REMARK    2  A    between atoms: C_3  and  C_4 
REMARK    3  A    between atoms: C_4  and  O_5 
REMARK    4  A    between atoms: O_5  and  C_6 
REMARK    5  A    between atoms: C_9  and  C_10 
REMARK       I    between atoms: C_10  and  N_11 
REMARK    6  A    between atoms: N_11  and  C_12 
REMARK    7  A    between atoms: C_12  and  N_13 
REMARK    8  A    between atoms: N_13  and  C_14 
REMARK    9  A    between atoms: C_16  and  O_17 
REMARK   10  A    between atoms: C_18  and  C_19 
ROOT
HETATM    1  N   UNL     1      43.182 -12.031   7.480  1.00  0.00    -0.333 N 
HETATM    2  H   UNL     1      43.086 -12.073   8.490  1.00  0.00     0.168 HD
ENDROOT
BRANCH   1   3
HETATM    3  C   UNL     1      43.371 -10.757   6.954  1.00  0.00     0.179 C 
HETATM    4  S   UNL     1      42.134 -10.043   6.102  1.00  0.00    -0.040 SA
BRANCH   3   5
HETATM    5  N   UNL     1      44.663 -10.254   7.142  1.00  0.00    -0.299 N 
HETATM    6  C   UNL     1      45.398  -9.534   8.072  1.00  0.00     0.257 C 
HETATM    7  O   UNL     1      46.628  -9.570   7.997  1.00  0.00    -0.267 OA
HETATM    8  H   UNL     1      45.324 -10.581   6.451  1.00  0.00     0.171 HD
BRANCH   6   9
HETATM    9  C   UNL     1      44.799  -8.759   9.158  1.00  0.00     0.032 A 
HETATM   10  C   UNL     1      44.084  -7.606   8.806  1.00  0.00     0.020 A 
HETATM   11  C   UNL     1      43.210  -7.030   9.723  1.00  0.00     0.038 A 
HETATM   12  C   UNL     1      43.024  -7.638  10.965  1.00  0.00     0.068 A 
HETATM   13  C   UNL     1      43.794  -8.736  11.349  1.00  0.00     0.038 A 
HETATM   14  C   UNL     1      44.675  -9.316  10.435  1.00  0.00     0.020 A 
BRANCH  12  15
HETATM   15  O   UNL     1      42.049  -7.207  11.826  1.00  0.00    -0.351 OA
BRANCH  15  16
HETATM   16  C   UNL     1      41.488  -8.305  12.567  1.00  0.00     0.175 C 
BRANCH  16  17
HETATM   17  C   UNL     1      40.034  -8.502  12.144  1.00  0.00     0.026 C 
BRANCH  17  18
HETATM   18  C   UNL     1      39.775  -9.942  11.705  1.00  0.00    -0.002 C 
HETATM   19  C   UNL     1      39.428 -10.835  12.884  1.00  0.00     0.005 C 
ENDBRANCH  17  18
ENDBRANCH  16  17
ENDBRANCH  15  16
ENDBRANCH  12  15
ENDBRANCH   6   9
ENDBRANCH   3   5
ENDBRANCH   1   3
BRANCH   1  20
HETATM   20  C   UNL     1      43.023 -13.225   6.743  1.00  0.00     0.036 C 
HETATM   21  C   UNL     1      42.810 -13.162   5.367  1.00  0.00     0.067 C 
HETATM   22  C   UNL     1      42.928 -14.331   4.599  1.00  0.00     0.082 C 
HETATM   23  C   UNL     1      43.212 -15.569   5.201  1.00  0.00     0.050 C 
HETATM   24  C   UNL     1      43.247 -15.629   6.601  1.00  0.00     0.021 C 
HETATM   25  C   UNL     1      43.149 -14.470   7.365  1.00  0.00     0.030 C 
BRANCH  22  26
HETATM   26  O   UNL     1      42.796 -14.251   3.239  1.00  0.00    -0.360 OA
HETATM   27  H   UNL     1      43.541 -13.757   2.861  1.00  0.00     0.217 HD
ENDBRANCH  22  26
BRANCH  23  28
HETATM   28  C   UNL     1      43.586 -16.781   4.475  1.00  0.00     0.183 A 
HETATM   29  O   UNL     1      43.935 -17.870   5.235  1.00  0.00    -0.289 OA
HETATM   30  C   UNL     1      43.923 -18.908   4.351  1.00  0.00     0.106 A 
HETATM   31  C   UNL     1      43.585 -18.403   3.108  1.00  0.00     0.093 A 
HETATM   32  C   UNL     1      44.159 -20.250   4.623  1.00  0.00     0.040 A 
HETATM   33  N   UNL     1      43.388 -17.050   3.192  1.00  0.00    -0.221 NA
HETATM   34  C   UNL     1      43.462 -19.285   2.027  1.00  0.00     0.034 A 
HETATM   35  C   UNL     1      43.681 -20.652   2.261  1.00  0.00     0.002 A 
HETATM   36  C   UNL     1      44.024 -21.122   3.536  1.00  0.00     0.003 A 
ENDBRANCH  23  28
ENDBRANCH   1  20
TORSDOF 10
ENDMDL
MODEL 8
REMARK VINA RESULT:      -8.1      2.642      4.259
REMARK  10 active torsions:
REMARK  status: ('A' for Active; 'I' for Inactive)
REMARK    1  A    between atoms: C_2  and  C_3 
REMARK    2  A    between atoms: C_3  and  C_4 
REMARK    3  A    between atoms: C_4  and  O_5 
REMARK    4  A    between atoms: O_5  and  C_6 
REMARK    5  A    between atoms: C_9  and  C_10 
REMARK       I    between atoms: C_10  and  N_11 
REMARK    6  A    between atoms: N_11  and  C_12 
REMARK    7  A    between atoms: C_12  and  N_13 
REMARK    8  A    between atoms: N_13  and  C_14 
REMARK    9  A    between atoms: C_16  and  O_17 
REMARK   10  A    between atoms: C_18  and  C_19 
ROOT
HETATM    1  N   UNL     1      40.993 -11.896   6.614  1.00  0.00    -0.333 N 
HETATM    2  H   UNL     1      40.259 -11.940   7.313  1.00  0.00     0.168 HD
ENDROOT
BRANCH   1   3
HETATM    3  C   UNL     1      41.580 -10.646   6.445  1.00  0.00     0.179 C 
HETATM    4  S   UNL     1      43.164 -10.428   6.901  1.00  0.00    -0.040 SA
BRANCH   3   5
HETATM    5  N   UNL     1      40.698  -9.667   5.975  1.00  0.00    -0.299 N 
HETATM    6  C   UNL     1      39.919  -9.385   4.863  1.00  0.00     0.257 C 
HETATM    7  O   UNL     1      39.019  -8.550   4.977  1.00  0.00    -0.267 OA
HETATM    8  H   UNL     1      40.447  -8.984   6.676  1.00  0.00     0.171 HD
BRANCH   6   9
HETATM    9  C   UNL     1      40.082 -10.046   3.567  1.00  0.00     0.032 A 
HETATM   10  C   UNL     1      41.276  -9.814   2.873  1.00  0.00     0.020 A 
HETATM   11  C   UNL     1      41.646 -10.662   1.834  1.00  0.00     0.038 A 
HETATM   12  C   UNL     1      40.842 -11.761   1.529  1.00  0.00     0.068 A 
HETATM   13  C   UNL     1      39.612 -11.948   2.162  1.00  0.00     0.038 A 
HETATM   14  C   UNL     1      39.234 -11.098   3.202  1.00  0.00     0.020 A 
BRANCH  12  15
HETATM   15  O   UNL     1      41.254 -12.714   0.636  1.00  0.00    -0.351 OA
BRANCH  15  16
HETATM   16  C   UNL     1      40.229 -12.996  -0.332  1.00  0.00     0.175 C 
BRANCH  16  17
HETATM   17  C   UNL     1      39.914 -14.491  -0.306  1.00  0.00     0.026 C 
BRANCH  17  18
HETATM   18  C   UNL     1      40.699 -15.203   0.794  1.00  0.00    -0.002 C 
HETATM   19  C   UNL     1      39.786 -15.709   1.899  1.00  0.00     0.005 C 
ENDBRANCH  17  18
ENDBRANCH  16  17
ENDBRANCH  15  16
ENDBRANCH  12  15
ENDBRANCH   6   9
ENDBRANCH   3   5
ENDBRANCH   1   3
BRANCH   1  20
HETATM   20  C   UNL     1      41.260 -13.055   5.851  1.00  0.00     0.036 C 
HETATM   21  C   UNL     1      41.977 -12.946   4.661  1.00  0.00     0.067 C 
HETATM   22  C   UNL     1      42.478 -14.108   4.053  1.00  0.00     0.082 C 
HETATM   23  C   UNL     1      42.228 -15.378   4.598  1.00  0.00     0.050 C 
HETATM   24  C   UNL     1      41.358 -15.466   5.694  1.00  0.00     0.021 C 
HETATM   25  C   UNL     1      40.875 -14.317   6.312  1.00  0.00     0.030 C 
BRANCH  22  26
HETATM   26  O   UNL     1      43.249 -13.990   2.927  1.00  0.00    -0.360 OA
HETATM   27  H   UNL     1      43.424 -14.868   2.551  1.00  0.00     0.217 HD
ENDBRANCH  22  26
BRANCH  23  28
HETATM   28  C   UNL     1      42.895 -16.610   4.180  1.00  0.00     0.183 A 
HETATM   29  O   UNL     1      43.296 -17.462   5.179  1.00  0.00    -0.289 OA
HETATM   30  C   UNL     1      43.583 -18.625   4.528  1.00  0.00     0.106 A 
HETATM   31  C   UNL     1      43.359 -18.421   3.177  1.00  0.00     0.093 A 
HETATM   32  C   UNL     1      43.986 -19.829   5.090  1.00  0.00     0.040 A 
HETATM   33  N   UNL     1      42.938 -17.134   2.964  1.00  0.00    -0.221 NA
HETATM   34  C   UNL     1      43.542 -19.488   2.289  1.00  0.00     0.034 A 
HETATM   35  C   UNL     1      43.939 -20.727   2.818  1.00  0.00     0.002 A 
HETATM   36  C   UNL     1      44.157 -20.891   4.193  1.00  0.00     0.003 A 
ENDBRANCH  23  28
ENDBRANCH   1  20
TORSDOF 10
ENDMDL
MODEL 9
REMARK VINA RESULT:      -8.0      3.095      6.621
REMARK  10 active torsions:
REMARK  status: ('A' for Active; 'I' for Inactive)
REMARK    1  A    between atoms: C_2  and  C_3 
REMARK    2  A    between atoms: C_3  and  C_4 
REMARK    3  A    between atoms: C_4  and  O_5 
REMARK    4  A    between atoms: O_5  and  C_6 
REMARK    5  A    between atoms: C_9  and  C_10 
REMARK       I    between atoms: C_10  and  N_11 
REMARK    6  A    between atoms: N_11  and  C_12 
REMARK    7  A    between atoms: C_12  and  N_13 
REMARK    8  A    between atoms: N_13  and  C_14 
REMARK    9  A    between atoms: C_16  and  O_17 
REMARK   10  A    between atoms: C_18  and  C_19 
ROOT
HETATM    1  N   UNL     1      40.829 -11.057   6.744  1.00  0.00    -0.333 N 
HETATM    2  H   UNL     1      40.401 -11.705   7.397  1.00  0.00     0.168 HD
ENDROOT
BRANCH   1   3
HETATM    3  C   UNL     1      41.684 -10.118   7.312  1.00  0.00     0.179 C 
HETATM    4  S   UNL     1      41.259  -8.510   7.273  1.00  0.00    -0.040 SA
BRANCH   3   5
HETATM    5  N   UNL     1      42.883 -10.660   7.787  1.00  0.00    -0.299 N 
HETATM    6  C   UNL     1      43.892 -11.522   7.384  1.00  0.00     0.257 C 
HETATM    7  O   UNL     1      44.963 -11.492   7.995  1.00  0.00    -0.267 OA
HETATM    8  H   UNL     1      43.196 -10.242   8.652  1.00  0.00     0.171 HD
BRANCH   6   9
HETATM    9  C   UNL     1      43.771 -12.444   6.255  1.00  0.00     0.032 A 
HETATM   10  C   UNL     1      43.188 -13.693   6.504  1.00  0.00     0.020 A 
HETATM   11  C   UNL     1      42.727 -14.464   5.442  1.00  0.00     0.038 A 
HETATM   12  C   UNL     1      42.810 -13.958   4.144  1.00  0.00     0.068 A 
HETATM   13  C   UNL     1      43.464 -12.753   3.884  1.00  0.00     0.038 A 
HETATM   14  C   UNL     1      43.933 -11.978   4.946  1.00  0.00     0.020 A 
BRANCH  12  15
HETATM   15  O   UNL     1      42.214 -14.603   3.093  1.00  0.00    -0.351 OA
BRANCH  15  16
HETATM   16  C   UNL     1      43.046 -14.564   1.920  1.00  0.00     0.175 C 
BRANCH  16  17
HETATM   17  C   UNL     1      43.447 -15.990   1.545  1.00  0.00     0.026 C 
BRANCH  17  18
HETATM   18  C   UNL     1      42.589 -17.018   2.280  1.00  0.00    -0.002 C 
HETATM   19  C   UNL     1      43.438 -18.097   2.931  1.00  0.00     0.005 C 
ENDBRANCH  17  18
ENDBRANCH  16  17
ENDBRANCH  15  16
ENDBRANCH  12  15
ENDBRANCH   6   9
ENDBRANCH   3   5
ENDBRANCH   1   3
BRANCH   1  20
HETATM   20  C   UNL     1      40.445 -11.125   5.386  1.00  0.00     0.036 C 
HETATM   21  C   UNL     1      40.932 -10.179   4.484  1.00  0.00     0.067 C 
HETATM   22  C   UNL     1      40.780 -10.403   3.107  1.00  0.00     0.082 C 
HETATM   23  C   UNL     1      40.106 -11.538   2.625  1.00  0.00     0.050 C 
HETATM   24  C   UNL     1      39.477 -12.375   3.557  1.00  0.00     0.021 C 
HETATM   25  C   UNL     1      39.640 -12.169   4.923  1.00  0.00     0.030 C 
BRANCH  22  26
HETATM   26  O   UNL     1      41.329  -9.512   2.224  1.00  0.00    -0.360 OA
HETATM   27  H   UNL     1      41.165  -8.603   2.523  1.00  0.00     0.217 HD
ENDBRANCH  22  26
BRANCH  23  28
HETATM   28  C   UNL     1      40.104 -11.975   1.231  1.00  0.00     0.183 A 
HETATM   29  O   UNL     1      40.039 -13.329   1.012  1.00  0.00    -0.289 OA
HETATM   30  C   UNL     1      39.737 -13.436  -0.314  1.00  0.00     0.106 A 
HETATM   31  C   UNL     1      39.649 -12.157  -0.833  1.00  0.00     0.093 A 
HETATM   32  C   UNL     1      39.509 -14.601  -1.035  1.00  0.00     0.040 A 
HETATM   33  N   UNL     1      39.898 -11.235   0.151  1.00  0.00    -0.221 NA
HETATM   34  C   UNL     1      39.304 -11.992  -2.181  1.00  0.00     0.034 A 
HETATM   35  C   UNL     1      39.054 -13.144  -2.944  1.00  0.00     0.002 A 
HETATM   36  C   UNL     1      39.157 -14.423  -2.379  1.00  0.00     0.003 A 
ENDBRANCH  23  28
ENDBRANCH   1  20
TORSDOF 10
ENDMDL
MODEL 10
REMARK VINA RESULT:      -8.0      2.833      5.103
REMARK  10 active torsions:
REMARK  status: ('A' for Active; 'I' for Inactive)
REMARK    1  A    between atoms: C_2  and  C_3 
REMARK    2  A    between atoms: C_3  and  C_4 
REMARK    3  A    between atoms: C_4  and  O_5 
REMARK    4  A    between atoms: O_5  and  C_6 
REMARK    5  A    between atoms: C_9  and  C_10 
REMARK       I    between atoms: C_10  and  N_11 
REMARK    6  A    between atoms: N_11  and  C_12 
REMARK    7  A    between atoms: C_12  and  N_13 
REMARK    8  A    between atoms: N_13  and  C_14 
REMARK    9  A    between atoms: C_16  and  O_17 
REMARK   10  A    between atoms: C_18  and  C_19 
ROOT
HETATM    1  N   UNL     1      42.265  -9.384   5.915  1.00  0.00    -0.333 N 
HETATM    2  H   UNL     1      42.812  -8.789   6.529  1.00  0.00     0.168 HD
ENDROOT
BRANCH   1   3
HETATM    3  C   UNL     1      41.070  -8.834   5.462  1.00  0.00     0.179 C 
HETATM    4  S   UNL     1      41.119  -7.516   4.450  1.00  0.00    -0.040 SA
BRANCH   3   5
HETATM    5  N   UNL     1      39.931  -9.432   6.011  1.00  0.00    -0.299 N 
HETATM    6  C   UNL     1      39.119 -10.540   5.825  1.00  0.00     0.257 C 
HETATM    7  O   UNL     1      38.373 -10.879   6.748  1.00  0.00    -0.267 OA
HETATM    8  H   UNL     1      39.632  -9.005   6.877  1.00  0.00     0.171 HD
BRANCH   6   9
HETATM    9  C   UNL     1      39.118 -11.354   4.609  1.00  0.00     0.032 A 
HETATM   10  C   UNL     1      39.111 -10.675   3.383  1.00  0.00     0.020 A 
HETATM   11  C   UNL     1      39.460 -11.352   2.218  1.00  0.00     0.038 A 
HETATM   12  C   UNL     1      39.857 -12.687   2.297  1.00  0.00     0.068 A 
HETATM   13  C   UNL     1      39.786 -13.388   3.502  1.00  0.00     0.038 A 
HETATM   14  C   UNL     1      39.432 -12.715   4.673  1.00  0.00     0.020 A 
BRANCH  12  15
HETATM   15  O   UNL     1      40.374 -13.338   1.208  1.00  0.00    -0.351 OA
BRANCH  15  16
HETATM   16  C   UNL     1      40.783 -12.406   0.191  1.00  0.00     0.175 C 
BRANCH  16  17
HETATM   17  C   UNL     1      40.482 -13.001  -1.183  1.00  0.00     0.026 C 
BRANCH  17  18
HETATM   18  C   UNL     1      39.181 -13.802  -1.167  1.00  0.00    -0.002 C 
HETATM   19  C   UNL     1      39.063 -14.708  -2.381  1.00  0.00     0.005 C 
ENDBRANCH  17  18
ENDBRANCH  16  17
ENDBRANCH  15  16
ENDBRANCH  12  15
ENDBRANCH   6   9
ENDBRANCH   3   5
ENDBRANCH   1   3
BRANCH   1  20
HETATM   20  C   UNL     1      42.725 -10.698   5.675  1.00  0.00     0.036 C 
HETATM   21  C   UNL     1      42.907 -11.571   6.747  1.00  0.00     0.067 C 
HETATM   22  C   UNL     1      43.092 -12.939   6.495  1.00  0.00     0.082 C 
HETATM   23  C   UNL     1      43.142 -13.435   5.181  1.00  0.00     0.050 C 
HETATM   24  C   UNL     1      43.131 -12.511   4.127  1.00  0.00     0.021 C 
HETATM   25  C   UNL     1      42.929 -11.156   4.370  1.00  0.00     0.030 C 
BRANCH  22  26
HETATM   26  O   UNL     1      43.192 -13.803   7.552  1.00  0.00    -0.360 OA
HETATM   27  H   UNL     1      43.750 -13.416   8.246  1.00  0.00     0.217 HD
ENDBRANCH  22  26
BRANCH  23  28
HETATM   28  C   UNL     1      43.091 -14.851   4.824  1.00  0.00     0.183 A 
HETATM   29  O   UNL     1      42.655 -15.150   3.557  1.00  0.00    -0.289 OA
HETATM   30  C   UNL     1      43.001 -16.458   3.387  1.00  0.00     0.106 A 
HETATM   31  C   UNL     1      43.609 -16.891   4.553  1.00  0.00     0.093 A 
HETATM   32  C   UNL     1      42.828 -17.236   2.249  1.00  0.00     0.040 A 
HETATM   33  N   UNL     1      43.649 -15.868   5.465  1.00  0.00    -0.221 NA
HETATM   34  C   UNL     1      44.099 -18.201   4.618  1.00  0.00     0.034 A 
HETATM   35  C   UNL     1      43.955 -19.018   3.486  1.00  0.00     0.002 A 
HETATM   36  C   UNL     1      43.330 -18.541   2.325  1.00  0.00     0.003 A 
ENDBRANCH  23  28
ENDBRANCH   1  20
TORSDOF 10
ENDMDL
