MODEL 1
REMARK VINA RESULT:      -8.1      0.000      0.000
REMARK  3 active torsions:
REMARK  status: ('A' for Active; 'I' for Inactive)
REMARK    1  A    between atoms: N_7  and  C_9 
REMARK    2  A    between atoms: C_9  and  C_10 
REMARK    3  A    between atoms: C_13  and  C_14 
ROOT
HETATM    1  C   UNL     1      38.184 -11.903  -2.957  1.00  0.00     0.269 C 
HETATM    2  N   UNL     1      39.267 -12.851  -2.499  1.00  0.00    -0.074 N 
HETATM    3  H   UNL     1      39.149 -13.641  -3.154  1.00  0.00     0.279 HD
HETATM    4  C   UNL     1      39.098 -13.462  -1.132  1.00  0.00     0.245 C 
HETATM    5  C   UNL     1      39.603 -12.581   0.057  1.00  0.00     0.008 C 
HETATM    6  C   UNL     1      39.637 -13.517   1.309  1.00  0.00     0.246 C 
HETATM    7  N   UNL     1      39.792 -12.811   2.637  1.00  0.00    -0.063 N 
HETATM    8  H   UNL     1      39.518 -13.520   3.341  1.00  0.00     0.280 HD
HETATM    9  C   UNL     1      38.819 -11.686   2.850  1.00  0.00     0.235 C 
HETATM   10  C   UNL     1      38.880 -10.716   1.686  1.00  0.00     0.029 C 
HETATM   11  C   UNL     1      38.626 -11.414   0.346  1.00  0.00     0.014 C 
HETATM   12  C   UNL     1      41.018 -12.055  -0.295  1.00  0.00     0.014 C 
HETATM   13  C   UNL     1      41.116 -11.414  -1.682  1.00  0.00     0.029 C 
HETATM   14  C   UNL     1      40.661 -12.356  -2.782  1.00  0.00     0.234 C 
ENDROOT
BRANCH   7  15
HETATM   15  C   UNL     1      41.224 -12.502   3.106  1.00  0.00     0.323 C 
BRANCH  15  16
HETATM   16  C   UNL     1      42.127 -13.671   2.962  1.00  0.00     0.199 A 
HETATM   17  O   UNL     1      43.045 -13.630   1.963  1.00  0.00    -0.194 OA
HETATM   18  N   UNL     1      43.641 -14.883   1.935  1.00  0.00    -0.106 NA
HETATM   19  C   UNL     1      43.058 -15.554   2.943  1.00  0.00     0.189 A 
HETATM   20  N   UNL     1      42.047 -14.835   3.561  1.00  0.00    -0.202 NA
BRANCH  19  21
HETATM   21  C   UNL     1      43.401 -16.914   3.335  1.00  0.00     0.016 A 
HETATM   22  C   UNL     1      43.347 -17.966   2.410  1.00  0.00     0.039 A 
HETATM   23  C   UNL     1      43.676 -19.264   2.804  1.00  0.00     0.035 A 
HETATM   24 CL   UNL     1      43.583 -20.546   1.663  1.00  0.00    -0.084 Cl
HETATM   25  C   UNL     1      44.071 -19.529   4.113  1.00  0.00     0.024 A 
HETATM   26  C   UNL     1      44.134 -18.490   5.040  1.00  0.00     0.003 A 
HETATM   27  C   UNL     1      43.797 -17.189   4.655  1.00  0.00     0.015 A 
ENDBRANCH  19  21
ENDBRANCH  15  16
ENDBRANCH   7  15
TORSDOF 3
ENDMDL
MODEL 2
REMARK VINA RESULT:      -8.0      2.275      3.424
REMARK  3 active torsions:
REMARK  status: ('A' for Active; 'I' for Inactive)
REMARK    1  A    between atoms: N_7  and  C_9 
REMARK    2  A    between atoms: C_9  and  C_10 
REMARK    3  A    between atoms: C_13  and  C_14 
ROOT
HETATM    1  C   UNL     1      38.196 -11.275   1.410  1.00  0.00     0.269 C 
HETATM    2  N   UNL     1      38.721 -12.679   1.587  1.00  0.00    -0.074 N 
HETATM    3  H   UNL     1      37.908 -13.248   1.301  1.00  0.00     0.279 HD
HETATM    4  C   UNL     1      39.015 -13.119   2.999  1.00  0.00     0.245 C 
HETATM    5  C   UNL     1      40.421 -12.706   3.544  1.00  0.00     0.008 C 
HETATM    6  C   UNL     1      40.636 -13.526   4.858  1.00  0.00     0.246 C 
HETATM    7  N   UNL     1      41.785 -13.063   5.725  1.00  0.00    -0.063 N 
HETATM    8  H   UNL     1      41.611 -13.508   6.645  1.00  0.00     0.280 HD
HETATM    9  C   UNL     1      41.773 -11.590   6.023  1.00  0.00     0.235 C 
HETATM   10  C   UNL     1      41.686 -10.798   4.732  1.00  0.00     0.029 C 
HETATM   11  C   UNL     1      40.467 -11.198   3.896  1.00  0.00     0.014 C 
HETATM   12  C   UNL     1      41.482 -13.065   2.473  1.00  0.00     0.014 C 
HETATM   13  C   UNL     1      41.144 -12.560   1.068  1.00  0.00     0.029 C 
HETATM   14  C   UNL     1      39.788 -13.053   0.593  1.00  0.00     0.234 C 
ENDROOT
BRANCH   7  15
HETATM   15  C   UNL     1      43.179 -13.629   5.407  1.00  0.00     0.323 C 
BRANCH  15  16
HETATM   16  C   UNL     1      43.261 -15.091   5.652  1.00  0.00     0.199 A 
HETATM   17  O   UNL     1      43.387 -15.501   6.940  1.00  0.00    -0.194 OA
HETATM   18  N   UNL     1      43.607 -16.870   6.889  1.00  0.00    -0.106 NA
HETATM   19  C   UNL     1      43.556 -17.169   5.579  1.00  0.00     0.189 A 
HETATM   20  N   UNL     1      43.412 -16.052   4.772  1.00  0.00    -0.202 NA
BRANCH  19  21
HETATM   21  C   UNL     1      43.686 -18.514   5.036  1.00  0.00     0.016 A 
HETATM   22  C   UNL     1      43.666 -18.737   3.651  1.00  0.00     0.039 A 
HETATM   23  C   UNL     1      43.788 -20.033   3.149  1.00  0.00     0.035 A 
HETATM   24 CL   UNL     1      43.740 -20.292   1.450  1.00  0.00    -0.084 Cl
HETATM   25  C   UNL     1      43.942 -21.117   4.010  1.00  0.00     0.024 A 
HETATM   26  C   UNL     1      43.969 -20.906   5.387  1.00  0.00     0.003 A 
HETATM   27  C   UNL     1      43.837 -19.612   5.899  1.00  0.00     0.015 A 
ENDBRANCH  19  21
ENDBRANCH  15  16
ENDBRANCH   7  15
TORSDOF 3
ENDMDL
MODEL 3
REMARK VINA RESULT:      -8.0      1.704      2.784
REMARK  3 active torsions:
REMARK  status: ('A' for Active; 'I' for Inactive)
REMARK    1  A    between atoms: N_7  and  C_9 
REMARK    2  A    between atoms: C_9  and  C_10 
REMARK    3  A    between atoms: C_13  and  C_14 
ROOT
HETATM    1  C   UNL     1      39.210  -9.192  -4.461  1.00  0.00     0.269 C 
HETATM    2  N   UNL     1      40.129  -9.202  -3.263  1.00  0.00    -0.074 N 
HETATM    3  H   UNL     1      40.889  -8.576  -3.572  1.00  0.00     0.279 HD
HETATM    4  C   UNL     1      40.815 -10.506  -2.947  1.00  0.00     0.245 C 
HETATM    5  C   UNL     1      39.973 -11.512  -2.096  1.00  0.00     0.008 C 
HETATM    6  C   UNL     1      40.969 -12.619  -1.619  1.00  0.00     0.246 C 
HETATM    7  N   UNL     1      40.325 -13.861  -1.047  1.00  0.00    -0.063 N 
HETATM    8  H   UNL     1      41.080 -14.570  -1.050  1.00  0.00     0.280 HD
HETATM    9  C   UNL     1      39.258 -14.457  -1.921  1.00  0.00     0.235 C 
HETATM   10  C   UNL     1      38.228 -13.403  -2.281  1.00  0.00     0.029 C 
HETATM   11  C   UNL     1      38.869 -12.183  -2.951  1.00  0.00     0.014 C 
HETATM   12  C   UNL     1      39.365 -10.742  -0.896  1.00  0.00     0.014 C 
HETATM   13  C   UNL     1      38.651  -9.445  -1.286  1.00  0.00     0.029 C 
HETATM   14  C   UNL     1      39.556  -8.503  -2.058  1.00  0.00     0.234 C 
ENDROOT
BRANCH   7  15
HETATM   15  C   UNL     1      39.973 -13.845   0.451  1.00  0.00     0.323 C 
BRANCH  15  16
HETATM   16  C   UNL     1      41.063 -14.403   1.290  1.00  0.00     0.199 A 
HETATM   17  O   UNL     1      42.107 -13.585   1.580  1.00  0.00    -0.194 OA
HETATM   18  N   UNL     1      43.050 -14.377   2.222  1.00  0.00    -0.106 NA
HETATM   19  C   UNL     1      42.475 -15.589   2.295  1.00  0.00     0.189 A 
HETATM   20  N   UNL     1      41.251 -15.650   1.649  1.00  0.00    -0.202 NA
BRANCH  19  21
HETATM   21  C   UNL     1      43.077 -16.749   2.939  1.00  0.00     0.016 A 
HETATM   22  C   UNL     1      43.176 -17.976   2.267  1.00  0.00     0.039 A 
HETATM   23  C   UNL     1      43.753 -19.077   2.901  1.00  0.00     0.035 A 
HETATM   24 CL   UNL     1      43.846 -20.580   2.072  1.00  0.00    -0.084 Cl
HETATM   25  C   UNL     1      44.247 -18.971   4.199  1.00  0.00     0.024 A 
HETATM   26  C   UNL     1      44.160 -17.754   4.874  1.00  0.00     0.003 A 
HETATM   27  C   UNL     1      43.574 -16.649   4.249  1.00  0.00     0.015 A 
ENDBRANCH  19  21
ENDBRANCH  15  16
ENDBRANCH   7  15
TORSDOF 3
ENDMDL
MODEL 4
REMARK VINA RESULT:      -8.0      1.487      1.900
REMARK  3 active torsions:
REMARK  status: ('A' for Active; 'I' for Inactive)
REMARK    1  A    between atoms: N_7  and  C_9 
REMARK    2  A    between atoms: C_9  and  C_10 
REMARK    3  A    between atoms: C_13  and  C_14 
ROOT
HETATM    1  C   UNL     1      37.632 -11.291  -1.137  1.00  0.00     0.269 C 
HETATM    2  N   UNL     1      38.058 -12.628  -0.580  1.00  0.00    -0.074 N 
HETATM    3  H   UNL     1      37.162 -13.140  -0.545  1.00  0.00     0.279 HD
HETATM    4  C   UNL     1      38.559 -12.641   0.842  1.00  0.00     0.245 C 
HETATM    5  C   UNL     1      40.069 -12.277   1.018  1.00  0.00     0.008 C 
HETATM    6  C   UNL     1      40.442 -12.666   2.486  1.00  0.00     0.246 C 
HETATM    7  N   UNL     1      41.761 -12.119   2.982  1.00  0.00    -0.063 N 
HETATM    8  H   UNL     1      41.715 -12.226   4.011  1.00  0.00     0.280 HD
HETATM    9  C   UNL     1      41.928 -10.640   2.773  1.00  0.00     0.235 C 
HETATM   10  C   UNL     1      41.683 -10.287   1.319  1.00  0.00     0.029 C 
HETATM   11  C   UNL     1      40.305 -10.756   0.841  1.00  0.00     0.014 C 
HETATM   12  C   UNL     1      40.889 -13.096  -0.011  1.00  0.00     0.014 C 
HETATM   13  C   UNL     1      40.351 -13.014  -1.442  1.00  0.00     0.029 C 
HETATM   14  C   UNL     1      38.897 -13.439  -1.533  1.00  0.00     0.234 C 
ENDROOT
BRANCH   7  15
HETATM   15  C   UNL     1      43.023 -12.944   2.678  1.00  0.00     0.323 C 
BRANCH  15  16
HETATM   16  C   UNL     1      43.059 -14.218   3.437  1.00  0.00     0.199 A 
HETATM   17  O   UNL     1      42.983 -14.139   4.790  1.00  0.00    -0.194 OA
HETATM   18  N   UNL     1      43.201 -15.426   5.265  1.00  0.00    -0.106 NA
HETATM   19  C   UNL     1      43.350 -16.170   4.156  1.00  0.00     0.189 A 
HETATM   20  N   UNL     1      43.337 -15.420   2.991  1.00  0.00    -0.202 NA
BRANCH  19  21
HETATM   21  C   UNL     1      43.553 -17.613   4.154  1.00  0.00     0.016 A 
HETATM   22  C   UNL     1      43.529 -18.342   2.956  1.00  0.00     0.039 A 
HETATM   23  C   UNL     1      43.723 -19.724   2.974  1.00  0.00     0.035 A 
HETATM   24 CL   UNL     1      43.667 -20.607   1.500  1.00  0.00    -0.084 Cl
HETATM   25  C   UNL     1      43.953 -20.394   4.173  1.00  0.00     0.024 A 
HETATM   26  C   UNL     1      43.986 -19.678   5.369  1.00  0.00     0.003 A 
HETATM   27  C   UNL     1      43.783 -18.294   5.360  1.00  0.00     0.015 A 
ENDBRANCH  19  21
ENDBRANCH  15  16
ENDBRANCH   7  15
TORSDOF 3
ENDMDL
MODEL 5
REMARK VINA RESULT:      -7.8      6.737      8.709
REMARK  3 active torsions:
REMARK  status: ('A' for Active; 'I' for Inactive)
REMARK    1  A    between atoms: N_7  and  C_9 
REMARK    2  A    between atoms: C_9  and  C_10 
REMARK    3  A    between atoms: C_13  and  C_14 
ROOT
HETATM    1  C   UNL     1      39.964 -15.285   1.816  1.00  0.00     0.269 C 
HETATM    2  N   UNL     1      40.330 -15.558   3.254  1.00  0.00    -0.074 N 
HETATM    3  H   UNL     1      39.525 -16.119   3.577  1.00  0.00     0.279 HD
HETATM    4  C   UNL     1      40.362 -14.371   4.182  1.00  0.00     0.245 C 
HETATM    5  C   UNL     1      41.697 -13.556   4.175  1.00  0.00     0.008 C 
HETATM    6  C   UNL     1      41.631 -12.603   5.413  1.00  0.00     0.246 C 
HETATM    7  N   UNL     1      42.667 -11.502   5.433  1.00  0.00    -0.063 N 
HETATM    8  H   UNL     1      42.314 -10.827   6.135  1.00  0.00     0.280 HD
HETATM    9  C   UNL     1      42.738 -10.705   4.161  1.00  0.00     0.235 C 
HETATM   10  C   UNL     1      42.923 -11.631   2.974  1.00  0.00     0.029 C 
HETATM   11  C   UNL     1      41.819 -12.689   2.897  1.00  0.00     0.014 C 
HETATM   12  C   UNL     1      42.876 -14.556   4.291  1.00  0.00     0.014 C 
HETATM   13  C   UNL     1      42.805 -15.719   3.298  1.00  0.00     0.029 C 
HETATM   14  C   UNL     1      41.502 -16.491   3.411  1.00  0.00     0.234 C 
ENDROOT
BRANCH   7  15
HETATM   15  C   UNL     1      44.039 -11.838   6.043  1.00  0.00     0.323 C 
BRANCH  15  16
HETATM   16  C   UNL     1      44.287 -11.102   7.307  1.00  0.00     0.199 A 
HETATM   17  O   UNL     1      45.428 -11.392   7.982  1.00  0.00    -0.194 OA
HETATM   18  N   UNL     1      45.347 -10.708   9.188  1.00  0.00    -0.106 NA
HETATM   19  C   UNL     1      44.184 -10.039   9.116  1.00  0.00     0.189 A 
HETATM   20  N   UNL     1      43.461 -10.328   7.970  1.00  0.00    -0.202 NA
BRANCH  19  21
HETATM   21  C   UNL     1      43.689  -9.134  10.144  1.00  0.00     0.016 A 
HETATM   22  C   UNL     1      43.243  -7.845   9.817  1.00  0.00     0.039 A 
HETATM   23  C   UNL     1      42.775  -6.991  10.816  1.00  0.00     0.035 A 
HETATM   24 CL   UNL     1      42.253  -5.407  10.402  1.00  0.00    -0.084 Cl
HETATM   25  C   UNL     1      42.733  -7.408  12.145  1.00  0.00     0.024 A 
HETATM   26  C   UNL     1      43.168  -8.689  12.481  1.00  0.00     0.003 A 
HETATM   27  C   UNL     1      43.648  -9.547  11.486  1.00  0.00     0.015 A 
ENDBRANCH  19  21
ENDBRANCH  15  16
ENDBRANCH   7  15
TORSDOF 3
ENDMDL
MODEL 6
REMARK VINA RESULT:      -7.7      2.084      4.087
REMARK  3 active torsions:
REMARK  status: ('A' for Active; 'I' for Inactive)
REMARK    1  A    between atoms: N_7  and  C_9 
REMARK    2  A    between atoms: C_9  and  C_10 
REMARK    3  A    between atoms: C_13  and  C_14 
ROOT
HETATM    1  C   UNL     1      41.198  -8.005   4.387  1.00  0.00     0.269 C 
HETATM    2  N   UNL     1      41.376  -9.467   4.718  1.00  0.00    -0.074 N 
HETATM    3  H   UNL     1      42.084  -9.431   5.469  1.00  0.00     0.279 HD
HETATM    4  C   UNL     1      41.997 -10.332   3.651  1.00  0.00     0.245 C 
HETATM    5  C   UNL     1      41.004 -10.872   2.571  1.00  0.00     0.008 C 
HETATM    6  C   UNL     1      41.778 -11.980   1.784  1.00  0.00     0.246 C 
HETATM    7  N   UNL     1      41.129 -12.425   0.493  1.00  0.00    -0.063 N 
HETATM    8  H   UNL     1      41.880 -12.925  -0.016  1.00  0.00     0.280 HD
HETATM    9  C   UNL     1      40.753 -11.295  -0.424  1.00  0.00     0.235 C 
HETATM   10  C   UNL     1      39.900 -10.283   0.316  1.00  0.00     0.029 C 
HETATM   11  C   UNL     1      40.598  -9.758   1.574  1.00  0.00     0.014 C 
HETATM   12  C   UNL     1      39.766 -11.455   3.299  1.00  0.00     0.014 C 
HETATM   13  C   UNL     1      39.159 -10.515   4.344  1.00  0.00     0.029 C 
HETATM   14  C   UNL     1      40.176 -10.084   5.386  1.00  0.00     0.234 C 
ENDROOT
BRANCH   7  15
HETATM   15  C   UNL     1      40.072 -13.539   0.584  1.00  0.00     0.323 C 
BRANCH  15  16
HETATM   16  C   UNL     1      40.475 -14.621   1.517  1.00  0.00     0.199 A 
HETATM   17  O   UNL     1      39.723 -14.792   2.633  1.00  0.00    -0.194 OA
HETATM   18  N   UNL     1      40.390 -15.733   3.407  1.00  0.00    -0.106 NA
HETATM   19  C   UNL     1      41.462 -16.072   2.671  1.00  0.00     0.189 A 
HETATM   20  N   UNL     1      41.578 -15.331   1.506  1.00  0.00    -0.202 NA
BRANCH  19  21
HETATM   21  C   UNL     1      42.442 -17.078   3.058  1.00  0.00     0.016 A 
HETATM   22  C   UNL     1      42.680 -18.200   2.251  1.00  0.00     0.039 A 
HETATM   23  C   UNL     1      43.621 -19.155   2.640  1.00  0.00     0.035 A 
HETATM   24 CL   UNL     1      43.885 -20.537   1.651  1.00  0.00    -0.084 Cl
HETATM   25  C   UNL     1      44.341 -19.002   3.822  1.00  0.00     0.024 A 
HETATM   26  C   UNL     1      44.117 -17.887   4.628  1.00  0.00     0.003 A 
HETATM   27  C   UNL     1      43.169 -16.931   4.250  1.00  0.00     0.015 A 
ENDBRANCH  19  21
ENDBRANCH  15  16
ENDBRANCH   7  15
TORSDOF 3
ENDMDL
MODEL 7
REMARK VINA RESULT:      -7.5      6.370      9.297
REMARK  3 active torsions:
REMARK  status: ('A' for Active; 'I' for Inactive)
REMARK    1  A    between atoms: N_7  and  C_9 
REMARK    2  A    between atoms: C_9  and  C_10 
REMARK    3  A    between atoms: C_13  and  C_14 
ROOT
HETATM    1  C   UNL     1      43.502 -20.276   4.354  1.00  0.00     0.269 C 
HETATM    2  N   UNL     1      44.369 -19.143   3.860  1.00  0.00    -0.074 N 
HETATM    3  H   UNL     1      45.214 -19.645   3.540  1.00  0.00     0.279 HD
HETATM    4  C   UNL     1      44.874 -18.174   4.897  1.00  0.00     0.245 C 
HETATM    5  C   UNL     1      43.882 -17.024   5.272  1.00  0.00     0.008 C 
HETATM    6  C   UNL     1      44.713 -15.982   6.089  1.00  0.00     0.246 C 
HETATM    7  N   UNL     1      43.897 -14.942   6.823  1.00  0.00    -0.063 N 
HETATM    8  H   UNL     1      44.557 -14.532   7.509  1.00  0.00     0.280 HD
HETATM    9  C   UNL     1      42.795 -15.513   7.670  1.00  0.00     0.235 C 
HETATM   10  C   UNL     1      41.920 -16.431   6.838  1.00  0.00     0.029 C 
HETATM   11  C   UNL     1      42.732 -17.545   6.170  1.00  0.00     0.014 C 
HETATM   12  C   UNL     1      43.335 -16.409   3.959  1.00  0.00     0.014 C 
HETATM   13  C   UNL     1      42.804 -17.442   2.961  1.00  0.00     0.029 C 
HETATM   14  C   UNL     1      43.848 -18.487   2.609  1.00  0.00     0.234 C 
ENDROOT
BRANCH   7  15
HETATM   15  C   UNL     1      43.499 -13.679   6.040  1.00  0.00     0.323 C 
BRANCH  15  16
HETATM   16  C   UNL     1      43.938 -12.435   6.718  1.00  0.00     0.199 A 
HETATM   17  O   UNL     1      45.271 -12.179   6.749  1.00  0.00    -0.194 OA
HETATM   18  N   UNL     1      45.432 -11.069   7.567  1.00  0.00    -0.106 NA
HETATM   19  C   UNL     1      44.181 -10.733   7.925  1.00  0.00     0.189 A 
HETATM   20  N   UNL     1      43.225 -11.622   7.462  1.00  0.00    -0.202 NA
BRANCH  19  21
HETATM   21  C   UNL     1      43.842  -9.583   8.754  1.00  0.00     0.016 A 
HETATM   22  C   UNL     1      43.726  -9.708  10.145  1.00  0.00     0.039 A 
HETATM   23  C   UNL     1      43.398  -8.597  10.923  1.00  0.00     0.035 A 
HETATM   24 CL   UNL     1      43.237  -8.771  12.626  1.00  0.00    -0.084 Cl
HETATM   25  C   UNL     1      43.192  -7.352  10.332  1.00  0.00     0.024 A 
HETATM   26  C   UNL     1      43.312  -7.216   8.950  1.00  0.00     0.003 A 
HETATM   27  C   UNL     1      43.631  -8.326   8.164  1.00  0.00     0.015 A 
ENDBRANCH  19  21
ENDBRANCH  15  16
ENDBRANCH   7  15
TORSDOF 3
ENDMDL
MODEL 8
REMARK VINA RESULT:      -7.5      2.473      3.275
REMARK  3 active torsions:
REMARK  status: ('A' for Active; 'I' for Inactive)
REMARK    1  A    between atoms: N_7  and  C_9 
REMARK    2  A    between atoms: C_9  and  C_10 
REMARK    3  A    between atoms: C_13  and  C_14 
ROOT
HETATM    1  C   UNL     1      39.914  -8.151  -4.557  1.00  0.00     0.269 C 
HETATM    2  N   UNL     1      41.148  -8.933  -4.179  1.00  0.00    -0.074 N 
HETATM    3  H   UNL     1      41.674  -8.945  -5.068  1.00  0.00     0.279 HD
HETATM    4  C   UNL     1      40.949 -10.388  -3.836  1.00  0.00     0.245 C 
HETATM    5  C   UNL     1      40.525 -10.670  -2.358  1.00  0.00     0.008 C 
HETATM    6  C   UNL     1      40.695 -12.210  -2.143  1.00  0.00     0.246 C 
HETATM    7  N   UNL     1      40.050 -12.760  -0.892  1.00  0.00    -0.063 N 
HETATM    8  H   UNL     1      40.013 -13.784  -1.049  1.00  0.00     0.280 HD
HETATM    9  C   UNL     1      38.611 -12.364  -0.720  1.00  0.00     0.235 C 
HETATM   10  C   UNL     1      38.470 -10.856  -0.809  1.00  0.00     0.029 C 
HETATM   11  C   UNL     1      39.038 -10.306  -2.122  1.00  0.00     0.014 C 
HETATM   12  C   UNL     1      41.457  -9.861  -1.422  1.00  0.00     0.014 C 
HETATM   13  C   UNL     1      41.590  -8.383  -1.801  1.00  0.00     0.029 C 
HETATM   14  C   UNL     1      42.061  -8.199  -3.233  1.00  0.00     0.234 C 
ENDROOT
BRANCH   7  15
HETATM   15  C   UNL     1      40.875 -12.712   0.405  1.00  0.00     0.323 C 
BRANCH  15  16
HETATM   16  C   UNL     1      41.133 -14.065   0.958  1.00  0.00     0.199 A 
HETATM   17  O   UNL     1      40.129 -14.974   0.874  1.00  0.00    -0.194 OA
HETATM   18  N   UNL     1      40.550 -16.083   1.595  1.00  0.00    -0.106 NA
HETATM   19  C   UNL     1      41.785 -15.758   2.016  1.00  0.00     0.189 A 
HETATM   20  N   UNL     1      42.148 -14.462   1.688  1.00  0.00    -0.202 NA
BRANCH  19  21
HETATM   21  C   UNL     1      42.654 -16.643   2.780  1.00  0.00     0.016 A 
HETATM   22  C   UNL     1      43.192 -16.239   4.010  1.00  0.00     0.039 A 
HETATM   23  C   UNL     1      44.025 -17.098   4.727  1.00  0.00     0.035 A 
HETATM   24 CL   UNL     1      44.695 -16.578   6.223  1.00  0.00    -0.084 Cl
HETATM   25  C   UNL     1      44.324 -18.368   4.239  1.00  0.00     0.024 A 
HETATM   26  C   UNL     1      43.789 -18.783   3.021  1.00  0.00     0.003 A 
HETATM   27  C   UNL     1      42.961 -17.924   2.292  1.00  0.00     0.015 A 
ENDBRANCH  19  21
ENDBRANCH  15  16
ENDBRANCH   7  15
TORSDOF 3
ENDMDL
MODEL 9
REMARK VINA RESULT:      -7.5      6.876      9.403
REMARK  3 active torsions:
REMARK  status: ('A' for Active; 'I' for Inactive)
REMARK    1  A    between atoms: N_7  and  C_9 
REMARK    2  A    between atoms: C_9  and  C_10 
REMARK    3  A    between atoms: C_13  and  C_14 
ROOT
HETATM    1  C   UNL     1      42.025  -8.340  14.082  1.00  0.00     0.269 C 
HETATM    2  N   UNL     1      41.736  -9.631  13.355  1.00  0.00    -0.074 N 
HETATM    3  H   UNL     1      41.753 -10.318  14.126  1.00  0.00     0.279 HD
HETATM    4  C   UNL     1      42.788 -10.115  12.390  1.00  0.00     0.245 C 
HETATM    5  C   UNL     1      42.715  -9.491  10.958  1.00  0.00     0.008 C 
HETATM    6  C   UNL     1      43.659 -10.355  10.059  1.00  0.00     0.246 C 
HETATM    7  N   UNL     1      43.991  -9.754   8.712  1.00  0.00    -0.063 N 
HETATM    8  H   UNL     1      44.813 -10.293   8.384  1.00  0.00     0.280 HD
HETATM    9  C   UNL     1      44.485  -8.336   8.779  1.00  0.00     0.235 C 
HETATM   10  C   UNL     1      43.502  -7.477   9.551  1.00  0.00     0.029 C 
HETATM   11  C   UNL     1      43.238  -8.032  10.954  1.00  0.00     0.014 C 
HETATM   12  C   UNL     1      41.246  -9.563  10.471  1.00  0.00     0.014 C 
HETATM   13  C   UNL     1      40.229  -9.024  11.481  1.00  0.00     0.029 C 
HETATM   14  C   UNL     1      40.329  -9.723  12.825  1.00  0.00     0.234 C 
ENDROOT
BRANCH   7  15
HETATM   15  C   UNL     1      43.010 -10.025   7.559  1.00  0.00     0.323 C 
BRANCH  15  16
HETATM   16  C   UNL     1      43.146 -11.399   7.016  1.00  0.00     0.199 A 
HETATM   17  O   UNL     1      44.336 -12.026   7.198  1.00  0.00    -0.194 OA
HETATM   18  N   UNL     1      44.266 -13.206   6.469  1.00  0.00    -0.106 NA
HETATM   19  C   UNL     1      43.028 -13.202   5.946  1.00  0.00     0.189 A 
HETATM   20  N   UNL     1      42.326 -12.039   6.216  1.00  0.00    -0.202 NA
BRANCH  19  21
HETATM   21  C   UNL     1      42.475 -14.278   5.134  1.00  0.00     0.016 A 
HETATM   22  C   UNL     1      43.059 -14.630   3.909  1.00  0.00     0.039 A 
HETATM   23  C   UNL     1      42.514 -15.660   3.143  1.00  0.00     0.035 A 
HETATM   24 CL   UNL     1      43.229 -16.065   1.632  1.00  0.00    -0.084 Cl
HETATM   25  C   UNL     1      41.392 -16.358   3.586  1.00  0.00     0.024 A 
HETATM   26  C   UNL     1      40.807 -16.021   4.806  1.00  0.00     0.003 A 
HETATM   27  C   UNL     1      41.343 -14.983   5.574  1.00  0.00     0.015 A 
ENDBRANCH  19  21
ENDBRANCH  15  16
ENDBRANCH   7  15
TORSDOF 3
ENDMDL
MODEL 10
REMARK VINA RESULT:      -7.4      6.926      9.081
REMARK  3 active torsions:
REMARK  status: ('A' for Active; 'I' for Inactive)
REMARK    1  A    between atoms: N_7  and  C_9 
REMARK    2  A    between atoms: C_9  and  C_10 
REMARK    3  A    between atoms: C_13  and  C_14 
ROOT
HETATM    1  C   UNL     1      41.082  -5.618  12.322  1.00  0.00     0.269 C 
HETATM    2  N   UNL     1      40.846  -5.928  10.864  1.00  0.00    -0.074 N 
HETATM    3  H   UNL     1      39.883  -5.583  10.725  1.00  0.00     0.279 HD
HETATM    4  C   UNL     1      40.786  -7.386  10.483  1.00  0.00     0.245 C 
HETATM    5  C   UNL     1      42.172  -8.064  10.228  1.00  0.00     0.008 C 
HETATM    6  C   UNL     1      41.865  -9.436   9.543  1.00  0.00     0.246 C 
HETATM    7  N   UNL     1      43.027 -10.402   9.488  1.00  0.00    -0.063 N 
HETATM    8  H   UNL     1      42.593 -11.318   9.276  1.00  0.00     0.280 HD
HETATM    9  C   UNL     1      43.709 -10.616  10.810  1.00  0.00     0.235 C 
HETATM   10  C   UNL     1      44.112  -9.284  11.412  1.00  0.00     0.029 C 
HETATM   11  C   UNL     1      42.916  -8.338  11.559  1.00  0.00     0.014 C 
HETATM   12  C   UNL     1      43.001  -7.141   9.300  1.00  0.00     0.014 C 
HETATM   13  C   UNL     1      43.054  -5.681   9.760  1.00  0.00     0.029 C 
HETATM   14  C   UNL     1      41.668  -5.083   9.927  1.00  0.00     0.234 C 
ENDROOT
BRANCH   7  15
HETATM   15  C   UNL     1      43.992 -10.274   8.296  1.00  0.00     0.323 C 
BRANCH  15  16
HETATM   16  C   UNL     1      43.766 -11.328   7.276  1.00  0.00     0.199 A 
HETATM   17  O   UNL     1      43.117 -10.966   6.140  1.00  0.00    -0.194 OA
HETATM   18  N   UNL     1      42.887 -12.140   5.436  1.00  0.00    -0.106 NA
HETATM   19  C   UNL     1      43.452 -13.098   6.191  1.00  0.00     0.189 A 
HETATM   20  N   UNL     1      43.950 -12.621   7.393  1.00  0.00    -0.202 NA
BRANCH  19  21
HETATM   21  C   UNL     1      43.506 -14.508   5.828  1.00  0.00     0.016 A 
HETATM   22  C   UNL     1      42.868 -14.980   4.671  1.00  0.00     0.039 A 
HETATM   23  C   UNL     1      42.927 -16.334   4.341  1.00  0.00     0.035 A 
HETATM   24 CL   UNL     1      42.122 -16.899   2.931  1.00  0.00    -0.084 Cl
HETATM   25  C   UNL     1      43.627 -17.231   5.145  1.00  0.00     0.024 A 
HETATM   26  C   UNL     1      44.270 -16.772   6.294  1.00  0.00     0.003 A 
HETATM   27  C   UNL     1      44.206 -15.418   6.636  1.00  0.00     0.015 A 
ENDBRANCH  19  21
ENDBRANCH  15  16
ENDBRANCH   7  15
TORSDOF 3
ENDMDL
