MODEL 1
REMARK VINA RESULT:      -8.8      0.000      0.000
REMARK  7 active torsions:
REMARK  status: ('A' for Active; 'I' for Inactive)
REMARK    1  A    between atoms: C_7  and  C_8 
REMARK       I    between atoms: C_8  and  N_9 
REMARK    2  A    between atoms: N_9  and  C_10 
REMARK    3  A    between atoms: C_10  and  C_11 
REMARK    4  A    between atoms: C_11  and  O_12 
REMARK    5  A    between atoms: C_11  and  C_13 
REMARK    6  A    between atoms: C_15  and  O_16 
REMARK    7  A    between atoms: O_16  and  C_17 
ROOT
HETATM    1  C   UNL     1      42.938 -12.868   6.472  1.00  0.00     0.253 C 
HETATM    2  N   UNL     1      42.996 -13.971   7.283  1.00  0.00    -0.354 N 
HETATM    3  O   UNL     1      42.234 -12.793   5.471  1.00  0.00    -0.268 OA
HETATM    4  H   UNL     1      43.401 -13.905   8.208  1.00  0.00     0.162 HD
ENDROOT
BRANCH   2   5
HETATM    5  C   UNL     1      42.165 -15.143   7.044  1.00  0.00     0.159 C 
BRANCH   5   6
HETATM    6  C   UNL     1      42.986 -16.362   6.585  1.00  0.00     0.169 C 
BRANCH   6   7
HETATM    7  O   UNL     1      44.376 -16.127   6.844  1.00  0.00    -0.389 OA
HETATM    8  H   UNL     1      44.789 -15.944   5.981  1.00  0.00     0.210 HD
ENDBRANCH   6   7
BRANCH   6   9
HETATM    9  C   UNL     1      42.763 -16.710   5.124  1.00  0.00    -0.025 A 
HETATM   10  C   UNL     1      43.547 -17.710   4.520  1.00  0.00     0.046 A 
HETATM   11  C   UNL     1      43.340 -18.074   3.186  1.00  0.00     0.075 A 
HETATM   12  C   UNL     1      42.325 -17.451   2.458  1.00  0.00     0.037 A 
HETATM   13  C   UNL     1      41.538 -16.461   3.042  1.00  0.00     0.003 A 
HETATM   14  C   UNL     1      41.756 -16.091   4.368  1.00  0.00     0.010 A 
BRANCH  11  15
HETATM   15  O   UNL     1      44.027 -19.036   2.501  1.00  0.00    -0.290 OA
BRANCH  15  16
HETATM   16  C   UNL     1      43.311 -20.217   2.181  1.00  0.00     0.505 C 
HETATM   17  F   UNL     1      43.773 -20.720   1.010  1.00  0.00    -0.184 F 
HETATM   18  F   UNL     1      43.596 -21.136   3.139  1.00  0.00    -0.184 F 
ENDBRANCH  15  16
ENDBRANCH  11  15
ENDBRANCH   6   9
ENDBRANCH   5   6
ENDBRANCH   2   5
BRANCH   1  19
HETATM   19  C   UNL     1      43.758 -11.699   6.926  1.00  0.00     0.048 A 
HETATM   20  C   UNL     1      45.218 -11.808   6.950  1.00  0.00     0.022 A 
HETATM   21  C   UNL     1      45.999 -10.793   7.368  1.00  0.00     0.054 A 
HETATM   22  C   UNL     1      45.398  -9.583   7.803  1.00  0.00     0.157 A 
HETATM   23  N   UNL     1      44.012  -9.515   7.797  1.00  0.00    -0.291 N 
HETATM   24  N   UNL     1      45.893  -8.449   8.244  1.00  0.00    -0.130 NA
HETATM   25  C   UNL     1      43.717  -8.253   8.268  1.00  0.00     0.130 A 
HETATM   26  C   UNL     1      43.192 -10.560   7.374  1.00  0.00     0.117 A 
HETATM   27  C   UNL     1      42.349  -7.716   8.442  1.00  0.00     0.094 C 
HETATM   28  N   UNL     1      44.840  -7.615   8.535  1.00  0.00    -0.135 NA
ENDBRANCH   1  19
TORSDOF 7
ENDMDL
MODEL 2
REMARK VINA RESULT:      -8.6      5.617      8.590
REMARK  7 active torsions:
REMARK  status: ('A' for Active; 'I' for Inactive)
REMARK    1  A    between atoms: C_7  and  C_8 
REMARK       I    between atoms: C_8  and  N_9 
REMARK    2  A    between atoms: N_9  and  C_10 
REMARK    3  A    between atoms: C_10  and  C_11 
REMARK    4  A    between atoms: C_11  and  O_12 
REMARK    5  A    between atoms: C_11  and  C_13 
REMARK    6  A    between atoms: C_15  and  O_16 
REMARK    7  A    between atoms: O_16  and  C_17 
ROOT
HETATM    1  C   UNL     1      42.806 -15.148   2.671  1.00  0.00     0.253 C 
HETATM    2  N   UNL     1      41.614 -14.607   3.078  1.00  0.00    -0.354 N 
HETATM    3  O   UNL     1      43.549 -14.622   1.849  1.00  0.00    -0.268 OA
HETATM    4  H   UNL     1      41.155 -14.948   3.912  1.00  0.00     0.162 HD
ENDROOT
BRANCH   2   5
HETATM    5  C   UNL     1      41.156 -13.311   2.596  1.00  0.00     0.159 C 
BRANCH   5   6
HETATM    6  C   UNL     1      39.949 -13.430   1.647  1.00  0.00     0.169 C 
BRANCH   6   7
HETATM    7  O   UNL     1      39.421 -14.761   1.710  1.00  0.00    -0.389 OA
HETATM    8  H   UNL     1      40.149 -15.356   1.458  1.00  0.00     0.210 HD
ENDBRANCH   6   7
BRANCH   6   9
HETATM    9  C   UNL     1      40.282 -13.050   0.215  1.00  0.00    -0.025 A 
HETATM   10  C   UNL     1      39.834 -13.865  -0.842  1.00  0.00     0.046 A 
HETATM   11  C   UNL     1      40.097 -13.521  -2.171  1.00  0.00     0.075 A 
HETATM   12  C   UNL     1      40.790 -12.341  -2.447  1.00  0.00     0.037 A 
HETATM   13  C   UNL     1      41.237 -11.522  -1.413  1.00  0.00     0.003 A 
HETATM   14  C   UNL     1      40.985 -11.874  -0.088  1.00  0.00     0.010 A 
BRANCH  11  15
HETATM   15  O   UNL     1      39.703 -14.223  -3.275  1.00  0.00    -0.290 OA
BRANCH  15  16
HETATM   16  C   UNL     1      38.428 -14.838  -3.211  1.00  0.00     0.505 C 
HETATM   17  F   UNL     1      37.971 -15.057  -4.468  1.00  0.00    -0.184 F 
HETATM   18  F   UNL     1      38.593 -16.057  -2.639  1.00  0.00    -0.184 F 
ENDBRANCH  15  16
ENDBRANCH  11  15
ENDBRANCH   6   9
ENDBRANCH   5   6
ENDBRANCH   2   5
BRANCH   1  19
HETATM   19  C   UNL     1      43.193 -16.423   3.355  1.00  0.00     0.048 A 
HETATM   20  C   UNL     1      43.575 -16.397   4.769  1.00  0.00     0.022 A 
HETATM   21  C   UNL     1      43.949 -17.511   5.424  1.00  0.00     0.054 A 
HETATM   22  C   UNL     1      43.982 -18.751   4.731  1.00  0.00     0.157 A 
HETATM   23  N   UNL     1      43.643 -18.744   3.386  1.00  0.00    -0.291 N 
HETATM   24  N   UNL     1      44.289 -19.972   5.103  1.00  0.00    -0.130 NA
HETATM   25  C   UNL     1      43.770 -20.057   2.983  1.00  0.00     0.130 A 
HETATM   26  C   UNL     1      43.260 -17.597   2.694  1.00  0.00     0.117 A 
HETATM   27  C   UNL     1      43.513 -20.546   1.610  1.00  0.00     0.094 C 
HETATM   28  N   UNL     1      44.157 -20.792   4.007  1.00  0.00    -0.135 NA
ENDBRANCH   1  19
TORSDOF 7
ENDMDL
MODEL 3
REMARK VINA RESULT:      -8.4      1.751      2.373
REMARK  7 active torsions:
REMARK  status: ('A' for Active; 'I' for Inactive)
REMARK    1  A    between atoms: C_7  and  C_8 
REMARK       I    between atoms: C_8  and  N_9 
REMARK    2  A    between atoms: N_9  and  C_10 
REMARK    3  A    between atoms: C_10  and  C_11 
REMARK    4  A    between atoms: C_11  and  O_12 
REMARK    5  A    between atoms: C_11  and  C_13 
REMARK    6  A    between atoms: C_15  and  O_16 
REMARK    7  A    between atoms: O_16  and  C_17 
ROOT
HETATM    1  C   UNL     1      43.319 -12.900   6.329  1.00  0.00     0.253 C 
HETATM    2  N   UNL     1      42.635 -12.750   5.151  1.00  0.00    -0.354 N 
HETATM    3  O   UNL     1      43.475 -13.976   6.896  1.00  0.00    -0.268 OA
HETATM    4  H   UNL     1      42.730 -11.902   4.609  1.00  0.00     0.162 HD
ENDROOT
BRANCH   2   5
HETATM    5  C   UNL     1      42.077 -13.891   4.438  1.00  0.00     0.159 C 
BRANCH   5   6
HETATM    6  C   UNL     1      42.952 -14.325   3.247  1.00  0.00     0.169 C 
BRANCH   6   7
HETATM    7  O   UNL     1      42.349 -13.879   2.025  1.00  0.00    -0.389 OA
HETATM    8  H   UNL     1      41.751 -13.149   2.265  1.00  0.00     0.210 HD
ENDBRANCH   6   7
BRANCH   6   9
HETATM    9  C   UNL     1      43.201 -15.821   3.210  1.00  0.00    -0.025 A 
HETATM   10  C   UNL     1      43.605 -16.489   4.381  1.00  0.00     0.046 A 
HETATM   11  C   UNL     1      43.809 -17.872   4.383  1.00  0.00     0.075 A 
HETATM   12  C   UNL     1      43.583 -18.597   3.211  1.00  0.00     0.037 A 
HETATM   13  C   UNL     1      43.179 -17.952   2.044  1.00  0.00     0.003 A 
HETATM   14  C   UNL     1      42.990 -16.571   2.042  1.00  0.00     0.010 A 
BRANCH  11  15
HETATM   15  O   UNL     1      44.187 -18.626   5.457  1.00  0.00    -0.290 OA
BRANCH  15  16
HETATM   16  C   UNL     1      43.799 -19.989   5.440  1.00  0.00     0.505 C 
HETATM   17  F   UNL     1      44.905 -20.771   5.389  1.00  0.00    -0.184 F 
HETATM   18  F   UNL     1      43.190 -20.253   6.624  1.00  0.00    -0.184 F 
ENDBRANCH  15  16
ENDBRANCH  11  15
ENDBRANCH   6   9
ENDBRANCH   5   6
ENDBRANCH   2   5
BRANCH   1  19
HETATM   19  C   UNL     1      43.941 -11.649   6.869  1.00  0.00     0.048 A 
HETATM   20  C   UNL     1      45.393 -11.583   7.048  1.00  0.00     0.022 A 
HETATM   21  C   UNL     1      45.998 -10.489   7.546  1.00  0.00     0.054 A 
HETATM   22  C   UNL     1      45.214  -9.365   7.917  1.00  0.00     0.157 A 
HETATM   23  N   UNL     1      43.838  -9.462   7.764  1.00  0.00    -0.291 N 
HETATM   24  N   UNL     1      45.520  -8.186   8.409  1.00  0.00    -0.130 NA
HETATM   25  C   UNL     1      43.347  -8.250   8.202  1.00  0.00     0.130 A 
HETATM   26  C   UNL     1      43.198 -10.591   7.256  1.00  0.00     0.117 A 
HETATM   27  C   UNL     1      41.913  -7.883   8.231  1.00  0.00     0.094 C 
HETATM   28  N   UNL     1      44.350  -7.487   8.588  1.00  0.00    -0.135 NA
ENDBRANCH   1  19
TORSDOF 7
ENDMDL
MODEL 4
REMARK VINA RESULT:      -8.3      1.198      1.807
REMARK  7 active torsions:
REMARK  status: ('A' for Active; 'I' for Inactive)
REMARK    1  A    between atoms: C_7  and  C_8 
REMARK       I    between atoms: C_8  and  N_9 
REMARK    2  A    between atoms: N_9  and  C_10 
REMARK    3  A    between atoms: C_10  and  C_11 
REMARK    4  A    between atoms: C_11  and  O_12 
REMARK    5  A    between atoms: C_11  and  C_13 
REMARK    6  A    between atoms: C_15  and  O_16 
REMARK    7  A    between atoms: O_16  and  C_17 
ROOT
HETATM    1  C   UNL     1      43.216 -12.970   6.748  1.00  0.00     0.253 C 
HETATM    2  N   UNL     1      42.516 -12.904   5.571  1.00  0.00    -0.354 N 
HETATM    3  O   UNL     1      43.302 -13.982   7.434  1.00  0.00    -0.268 OA
HETATM    4  H   UNL     1      42.663 -12.134   4.931  1.00  0.00     0.162 HD
ENDROOT
BRANCH   2   5
HETATM    5  C   UNL     1      41.855 -14.071   5.006  1.00  0.00     0.159 C 
BRANCH   5   6
HETATM    6  C   UNL     1      42.685 -14.736   3.892  1.00  0.00     0.169 C 
BRANCH   6   7
HETATM    7  O   UNL     1      41.947 -14.708   2.664  1.00  0.00    -0.389 OA
HETATM    8  H   UNL     1      42.554 -14.359   1.987  1.00  0.00     0.210 HD
ENDBRANCH   6   7
BRANCH   6   9
HETATM    9  C   UNL     1      43.108 -16.153   4.233  1.00  0.00    -0.025 A 
HETATM   10  C   UNL     1      43.493 -17.031   3.203  1.00  0.00     0.046 A 
HETATM   11  C   UNL     1      43.919 -18.331   3.491  1.00  0.00     0.075 A 
HETATM   12  C   UNL     1      43.985 -18.748   4.822  1.00  0.00     0.037 A 
HETATM   13  C   UNL     1      43.609 -17.891   5.854  1.00  0.00     0.003 A 
HETATM   14  C   UNL     1      43.173 -16.600   5.562  1.00  0.00     0.010 A 
BRANCH  11  15
HETATM   15  O   UNL     1      44.328 -19.263   2.580  1.00  0.00    -0.290 OA
BRANCH  15  16
HETATM   16  C   UNL     1      43.519 -20.419   2.452  1.00  0.00     0.505 C 
HETATM   17  F   UNL     1      43.395 -20.739   1.141  1.00  0.00    -0.184 F 
HETATM   18  F   UNL     1      44.183 -21.446   3.042  1.00  0.00    -0.184 F 
ENDBRANCH  15  16
ENDBRANCH  11  15
ENDBRANCH   6   9
ENDBRANCH   5   6
ENDBRANCH   2   5
BRANCH   1  19
HETATM   19  C   UNL     1      43.945 -11.718   7.126  1.00  0.00     0.048 A 
HETATM   20  C   UNL     1      45.409 -11.698   7.097  1.00  0.00     0.022 A 
HETATM   21  C   UNL     1      46.112 -10.604   7.447  1.00  0.00     0.054 A 
HETATM   22  C   UNL     1      45.422  -9.434   7.862  1.00  0.00     0.157 A 
HETATM   23  N   UNL     1      44.036  -9.487   7.908  1.00  0.00    -0.291 N 
HETATM   24  N   UNL     1      45.830  -8.245   8.241  1.00  0.00    -0.130 NA
HETATM   25  C   UNL     1      43.648  -8.238   8.344  1.00  0.00     0.130 A 
HETATM   26  C   UNL     1      43.296 -10.615   7.555  1.00  0.00     0.117 A 
HETATM   27  C   UNL     1      42.245  -7.816   8.552  1.00  0.00     0.094 C 
HETATM   28  N   UNL     1      44.719  -7.494   8.544  1.00  0.00    -0.135 NA
ENDBRANCH   1  19
TORSDOF 7
ENDMDL
MODEL 5
REMARK VINA RESULT:      -8.2      2.322      2.786
REMARK  7 active torsions:
REMARK  status: ('A' for Active; 'I' for Inactive)
REMARK    1  A    between atoms: C_7  and  C_8 
REMARK       I    between atoms: C_8  and  N_9 
REMARK    2  A    between atoms: N_9  and  C_10 
REMARK    3  A    between atoms: C_10  and  C_11 
REMARK    4  A    between atoms: C_11  and  O_12 
REMARK    5  A    between atoms: C_11  and  C_13 
REMARK    6  A    between atoms: C_15  and  O_16 
REMARK    7  A    between atoms: O_16  and  C_17 
ROOT
HETATM    1  C   UNL     1      43.112 -13.016   6.492  1.00  0.00     0.253 C 
HETATM    2  N   UNL     1      43.144 -14.072   7.365  1.00  0.00    -0.354 N 
HETATM    3  O   UNL     1      42.448 -13.003   5.461  1.00  0.00    -0.268 OA
HETATM    4  H   UNL     1      43.511 -13.952   8.300  1.00  0.00     0.162 HD
ENDROOT
BRANCH   2   5
HETATM    5  C   UNL     1      42.331 -15.262   7.159  1.00  0.00     0.159 C 
BRANCH   5   6
HETATM    6  C   UNL     1      43.125 -16.412   6.511  1.00  0.00     0.169 C 
BRANCH   6   7
HETATM    7  O   UNL     1      44.529 -16.144   6.622  1.00  0.00    -0.389 OA
HETATM    8  H   UNL     1      44.758 -16.268   7.560  1.00  0.00     0.210 HD
ENDBRANCH   6   7
BRANCH   6   9
HETATM    9  C   UNL     1      42.737 -16.659   5.065  1.00  0.00    -0.025 A 
HETATM   10  C   UNL     1      41.492 -16.203   4.591  1.00  0.00     0.046 A 
HETATM   11  C   UNL     1      41.124 -16.387   3.255  1.00  0.00     0.075 A 
HETATM   12  C   UNL     1      42.017 -17.008   2.380  1.00  0.00     0.037 A 
HETATM   13  C   UNL     1      43.254 -17.463   2.832  1.00  0.00     0.003 A 
HETATM   14  C   UNL     1      43.612 -17.289   4.168  1.00  0.00     0.010 A 
BRANCH  11  15
HETATM   15  O   UNL     1      39.954 -15.977   2.682  1.00  0.00    -0.290 OA
BRANCH  15  16
HETATM   16  C   UNL     1      39.974 -14.716   2.037  1.00  0.00     0.505 C 
HETATM   17  F   UNL     1      41.125 -14.071   2.345  1.00  0.00    -0.184 F 
HETATM   18  F   UNL     1      40.002 -14.943   0.699  1.00  0.00    -0.184 F 
ENDBRANCH  15  16
ENDBRANCH  11  15
ENDBRANCH   6   9
ENDBRANCH   5   6
ENDBRANCH   2   5
BRANCH   1  19
HETATM   19  C   UNL     1      43.905 -11.818   6.912  1.00  0.00     0.048 A 
HETATM   20  C   UNL     1      45.366 -11.850   6.820  1.00  0.00     0.022 A 
HETATM   21  C   UNL     1      46.126 -10.806   7.203  1.00  0.00     0.054 A 
HETATM   22  C   UNL     1      45.500  -9.639   7.716  1.00  0.00     0.157 A 
HETATM   23  N   UNL     1      44.116  -9.644   7.819  1.00  0.00    -0.291 N 
HETATM   24  N   UNL     1      45.971  -8.491   8.147  1.00  0.00    -0.130 NA
HETATM   25  C   UNL     1      43.797  -8.409   8.345  1.00  0.00     0.130 A 
HETATM   26  C   UNL     1      43.319 -10.719   7.433  1.00  0.00     0.117 A 
HETATM   27  C   UNL     1      42.421  -7.949   8.639  1.00  0.00     0.094 C 
HETATM   28  N   UNL     1      44.903  -7.720   8.542  1.00  0.00    -0.135 NA
ENDBRANCH   1  19
TORSDOF 7
ENDMDL
MODEL 6
REMARK VINA RESULT:      -8.2      4.917      9.537
REMARK  7 active torsions:
REMARK  status: ('A' for Active; 'I' for Inactive)
REMARK    1  A    between atoms: C_7  and  C_8 
REMARK       I    between atoms: C_8  and  N_9 
REMARK    2  A    between atoms: N_9  and  C_10 
REMARK    3  A    between atoms: C_10  and  C_11 
REMARK    4  A    between atoms: C_11  and  O_12 
REMARK    5  A    between atoms: C_11  and  C_13 
REMARK    6  A    between atoms: C_15  and  O_16 
REMARK    7  A    between atoms: O_16  and  C_17 
ROOT
HETATM    1  C   UNL     1      43.538 -15.530   5.616  1.00  0.00     0.253 C 
HETATM    2  N   UNL     1      42.637 -14.521   5.393  1.00  0.00    -0.354 N 
HETATM    3  O   UNL     1      44.283 -15.576   6.589  1.00  0.00    -0.268 OA
HETATM    4  H   UNL     1      41.894 -14.640   4.717  1.00  0.00     0.162 HD
ENDROOT
BRANCH   2   5
HETATM    5  C   UNL     1      42.454 -13.433   6.342  1.00  0.00     0.159 C 
BRANCH   5   6
HETATM    6  C   UNL     1      42.829 -12.063   5.746  1.00  0.00     0.169 C 
BRANCH   6   7
HETATM    7  O   UNL     1      43.190 -12.225   4.368  1.00  0.00    -0.389 OA
HETATM    8  H   UNL     1      43.332 -11.329   4.015  1.00  0.00     0.210 HD
ENDBRANCH   6   7
BRANCH   6   9
HETATM    9  C   UNL     1      43.938 -11.366   6.514  1.00  0.00    -0.025 A 
HETATM   10  C   UNL     1      43.611 -10.504   7.576  1.00  0.00     0.046 A 
HETATM   11  C   UNL     1      44.613  -9.876   8.322  1.00  0.00     0.075 A 
HETATM   12  C   UNL     1      45.952 -10.132   8.020  1.00  0.00     0.037 A 
HETATM   13  C   UNL     1      46.292 -10.986   6.973  1.00  0.00     0.003 A 
HETATM   14  C   UNL     1      45.290 -11.600   6.223  1.00  0.00     0.010 A 
BRANCH  11  15
HETATM   15  O   UNL     1      44.418  -9.033   9.379  1.00  0.00    -0.290 OA
BRANCH  15  16
HETATM   16  C   UNL     1      43.875  -9.608  10.555  1.00  0.00     0.505 C 
HETATM   17  F   UNL     1      44.447 -10.818  10.769  1.00  0.00    -0.184 F 
HETATM   18  F   UNL     1      44.235  -8.817  11.598  1.00  0.00    -0.184 F 
ENDBRANCH  15  16
ENDBRANCH  11  15
ENDBRANCH   6   9
ENDBRANCH   5   6
ENDBRANCH   2   5
BRANCH   1  19
HETATM   19  C   UNL     1      43.514 -16.640   4.611  1.00  0.00     0.048 A 
HETATM   20  C   UNL     1      43.129 -16.353   3.228  1.00  0.00     0.022 A 
HETATM   21  C   UNL     1      43.074 -17.319   2.291  1.00  0.00     0.054 A 
HETATM   22  C   UNL     1      43.391 -18.656   2.647  1.00  0.00     0.157 A 
HETATM   23  N   UNL     1      43.725 -18.907   3.970  1.00  0.00    -0.291 N 
HETATM   24  N   UNL     1      43.433 -19.775   1.962  1.00  0.00    -0.130 NA
HETATM   25  C   UNL     1      43.971 -20.263   4.022  1.00  0.00     0.130 A 
HETATM   26  C   UNL     1      43.780 -17.918   4.951  1.00  0.00     0.117 A 
HETATM   27  C   UNL     1      44.365 -21.002   5.242  1.00  0.00     0.094 C 
HETATM   28  N   UNL     1      43.796 -20.784   2.823  1.00  0.00    -0.135 NA
ENDBRANCH   1  19
TORSDOF 7
ENDMDL
MODEL 7
REMARK VINA RESULT:      -8.1      4.916      7.041
REMARK  7 active torsions:
REMARK  status: ('A' for Active; 'I' for Inactive)
REMARK    1  A    between atoms: C_7  and  C_8 
REMARK       I    between atoms: C_8  and  N_9 
REMARK    2  A    between atoms: N_9  and  C_10 
REMARK    3  A    between atoms: C_10  and  C_11 
REMARK    4  A    between atoms: C_11  and  O_12 
REMARK    5  A    between atoms: C_11  and  C_13 
REMARK    6  A    between atoms: C_15  and  O_16 
REMARK    7  A    between atoms: O_16  and  C_17 
ROOT
HETATM    1  C   UNL     1      39.918 -13.807   2.202  1.00  0.00     0.253 C 
HETATM    2  N   UNL     1      40.691 -14.813   2.721  1.00  0.00    -0.354 N 
HETATM    3  O   UNL     1      39.197 -13.082   2.880  1.00  0.00    -0.268 OA
HETATM    4  H   UNL     1      41.434 -15.223   2.171  1.00  0.00     0.162 HD
ENDROOT
BRANCH   2   5
HETATM    5  C   UNL     1      40.759 -15.067   4.154  1.00  0.00     0.159 C 
BRANCH   5   6
HETATM    6  C   UNL     1      42.204 -15.056   4.685  1.00  0.00     0.169 C 
BRANCH   6   7
HETATM    7  O   UNL     1      43.030 -14.278   3.808  1.00  0.00    -0.389 OA
HETATM    8  H   UNL     1      43.922 -14.281   4.198  1.00  0.00     0.210 HD
ENDBRANCH   6   7
BRANCH   6   9
HETATM    9  C   UNL     1      42.779 -16.450   4.868  1.00  0.00    -0.025 A 
HETATM   10  C   UNL     1      43.257 -17.157   3.750  1.00  0.00     0.046 A 
HETATM   11  C   UNL     1      43.822 -18.428   3.895  1.00  0.00     0.075 A 
HETATM   12  C   UNL     1      43.933 -18.984   5.171  1.00  0.00     0.037 A 
HETATM   13  C   UNL     1      43.466 -18.296   6.288  1.00  0.00     0.003 A 
HETATM   14  C   UNL     1      42.892 -17.035   6.138  1.00  0.00     0.010 A 
BRANCH  11  15
HETATM   15  O   UNL     1      44.330 -19.200   2.889  1.00  0.00    -0.290 OA
BRANCH  15  16
HETATM   16  C   UNL     1      43.582 -20.349   2.535  1.00  0.00     0.505 C 
HETATM   17  F   UNL     1      43.660 -20.543   1.196  1.00  0.00    -0.184 F 
HETATM   18  F   UNL     1      44.180 -21.419   3.118  1.00  0.00    -0.184 F 
ENDBRANCH  15  16
ENDBRANCH  11  15
ENDBRANCH   6   9
ENDBRANCH   5   6
ENDBRANCH   2   5
BRANCH   1  19
HETATM   19  C   UNL     1      40.058 -13.592   0.727  1.00  0.00     0.048 A 
HETATM   20  C   UNL     1      39.677 -14.662  -0.198  1.00  0.00     0.022 A 
HETATM   21  C   UNL     1      39.801 -14.526  -1.531  1.00  0.00     0.054 A 
HETATM   22  C   UNL     1      40.321 -13.317  -2.064  1.00  0.00     0.157 A 
HETATM   23  N   UNL     1      40.701 -12.329  -1.167  1.00  0.00    -0.291 N 
HETATM   24  N   UNL     1      40.541 -12.905  -3.292  1.00  0.00    -0.130 NA
HETATM   25  C   UNL     1      41.165 -11.296  -1.953  1.00  0.00     0.130 A 
HETATM   26  C   UNL     1      40.584 -12.459   0.216  1.00  0.00     0.117 A 
HETATM   27  C   UNL     1      41.688 -10.012  -1.435  1.00  0.00     0.094 C 
HETATM   28  N   UNL     1      41.071 -11.638  -3.223  1.00  0.00    -0.135 NA
ENDBRANCH   1  19
TORSDOF 7
ENDMDL
MODEL 8
REMARK VINA RESULT:      -8.0      2.564      3.638
REMARK  7 active torsions:
REMARK  status: ('A' for Active; 'I' for Inactive)
REMARK    1  A    between atoms: C_7  and  C_8 
REMARK       I    between atoms: C_8  and  N_9 
REMARK    2  A    between atoms: N_9  and  C_10 
REMARK    3  A    between atoms: C_10  and  C_11 
REMARK    4  A    between atoms: C_11  and  O_12 
REMARK    5  A    between atoms: C_11  and  C_13 
REMARK    6  A    between atoms: C_15  and  O_16 
REMARK    7  A    between atoms: O_16  and  C_17 
ROOT
HETATM    1  C   UNL     1      41.574 -12.949   4.176  1.00  0.00     0.253 C 
HETATM    2  N   UNL     1      42.188 -13.779   3.275  1.00  0.00    -0.354 N 
HETATM    3  O   UNL     1      40.381 -12.666   4.139  1.00  0.00    -0.268 OA
HETATM    4  H   UNL     1      43.102 -14.165   3.475  1.00  0.00     0.162 HD
ENDROOT
BRANCH   2   5
HETATM    5  C   UNL     1      41.445 -14.447   2.216  1.00  0.00     0.159 C 
BRANCH   5   6
HETATM    6  C   UNL     1      40.961 -15.849   2.633  1.00  0.00     0.169 C 
BRANCH   6   7
HETATM    7  O   UNL     1      39.857 -15.724   3.538  1.00  0.00    -0.389 OA
HETATM    8  H   UNL     1      39.281 -15.028   3.174  1.00  0.00     0.210 HD
ENDBRANCH   6   7
BRANCH   6   9
HETATM    9  C   UNL     1      42.062 -16.699   3.241  1.00  0.00    -0.025 A 
HETATM   10  C   UNL     1      42.145 -16.833   4.639  1.00  0.00     0.046 A 
HETATM   11  C   UNL     1      43.127 -17.637   5.224  1.00  0.00     0.075 A 
HETATM   12  C   UNL     1      44.018 -18.333   4.404  1.00  0.00     0.037 A 
HETATM   13  C   UNL     1      43.948 -18.213   3.018  1.00  0.00     0.003 A 
HETATM   14  C   UNL     1      42.975 -17.400   2.438  1.00  0.00     0.010 A 
BRANCH  11  15
HETATM   15  O   UNL     1      43.296 -17.853   6.562  1.00  0.00    -0.290 OA
BRANCH  15  16
HETATM   16  C   UNL     1      43.949 -16.828   7.291  1.00  0.00     0.505 C 
HETATM   17  F   UNL     1      44.825 -16.188   6.479  1.00  0.00    -0.184 F 
HETATM   18  F   UNL     1      43.007 -15.917   7.642  1.00  0.00    -0.184 F 
ENDBRANCH  15  16
ENDBRANCH  11  15
ENDBRANCH   6   9
ENDBRANCH   5   6
ENDBRANCH   2   5
BRANCH   1  19
HETATM   19  C   UNL     1      42.452 -12.443   5.279  1.00  0.00     0.048 A 
HETATM   20  C   UNL     1      43.549 -13.280   5.770  1.00  0.00     0.022 A 
HETATM   21  C   UNL     1      44.355 -12.880   6.771  1.00  0.00     0.054 A 
HETATM   22  C   UNL     1      44.138 -11.615   7.378  1.00  0.00     0.157 A 
HETATM   23  N   UNL     1      43.075 -10.852   6.915  1.00  0.00    -0.291 N 
HETATM   24  N   UNL     1      44.753 -10.971   8.344  1.00  0.00    -0.130 NA
HETATM   25  C   UNL     1      43.103  -9.704   7.678  1.00  0.00     0.130 A 
HETATM   26  C   UNL     1      42.229 -11.257   5.883  1.00  0.00     0.117 A 
HETATM   27  C   UNL     1      42.148  -8.581   7.547  1.00  0.00     0.094 C 
HETATM   28  N   UNL     1      44.105  -9.774   8.533  1.00  0.00    -0.135 NA
ENDBRANCH   1  19
TORSDOF 7
ENDMDL
MODEL 9
REMARK VINA RESULT:      -8.0      5.070      7.617
REMARK  7 active torsions:
REMARK  status: ('A' for Active; 'I' for Inactive)
REMARK    1  A    between atoms: C_7  and  C_8 
REMARK       I    between atoms: C_8  and  N_9 
REMARK    2  A    between atoms: N_9  and  C_10 
REMARK    3  A    between atoms: C_10  and  C_11 
REMARK    4  A    between atoms: C_11  and  O_12 
REMARK    5  A    between atoms: C_11  and  C_13 
REMARK    6  A    between atoms: C_15  and  O_16 
REMARK    7  A    between atoms: O_16  and  C_17 
ROOT
HETATM    1  C   UNL     1      41.271 -14.250   1.381  1.00  0.00     0.253 C 
HETATM    2  N   UNL     1      41.659 -13.577   2.511  1.00  0.00    -0.354 N 
HETATM    3  O   UNL     1      41.694 -15.358   1.069  1.00  0.00    -0.268 OA
HETATM    4  H   UNL     1      41.121 -12.787   2.845  1.00  0.00     0.162 HD
ENDROOT
BRANCH   2   5
HETATM    5  C   UNL     1      42.578 -14.163   3.475  1.00  0.00     0.159 C 
BRANCH   5   6
HETATM    6  C   UNL     1      41.859 -15.046   4.512  1.00  0.00     0.169 C 
BRANCH   6   7
HETATM    7  O   UNL     1      41.721 -14.324   5.742  1.00  0.00    -0.389 OA
HETATM    8  H   UNL     1      41.585 -13.391   5.498  1.00  0.00     0.210 HD
ENDBRANCH   6   7
BRANCH   6   9
HETATM    9  C   UNL     1      42.555 -16.375   4.743  1.00  0.00    -0.025 A 
HETATM   10  C   UNL     1      43.078 -17.087   3.648  1.00  0.00     0.046 A 
HETATM   11  C   UNL     1      43.754 -18.296   3.836  1.00  0.00     0.075 A 
HETATM   12  C   UNL     1      43.931 -18.784   5.132  1.00  0.00     0.037 A 
HETATM   13  C   UNL     1      43.422 -18.091   6.228  1.00  0.00     0.003 A 
HETATM   14  C   UNL     1      42.737 -16.892   6.035  1.00  0.00     0.010 A 
BRANCH  11  15
HETATM   15  O   UNL     1      44.314 -19.064   2.855  1.00  0.00    -0.290 OA
BRANCH  15  16
HETATM   16  C   UNL     1      43.573 -20.199   2.442  1.00  0.00     0.505 C 
HETATM   17  F   UNL     1      42.366 -19.801   1.970  1.00  0.00    -0.184 F 
HETATM   18  F   UNL     1      44.234 -20.756   1.396  1.00  0.00    -0.184 F 
ENDBRANCH  15  16
ENDBRANCH  11  15
ENDBRANCH   6   9
ENDBRANCH   5   6
ENDBRANCH   2   5
BRANCH   1  19
HETATM   19  C   UNL     1      40.223 -13.565   0.559  1.00  0.00     0.048 A 
HETATM   20  C   UNL     1      39.643 -12.306   1.031  1.00  0.00     0.022 A 
HETATM   21  C   UNL     1      38.685 -11.661   0.339  1.00  0.00     0.054 A 
HETATM   22  C   UNL     1      38.215 -12.213  -0.881  1.00  0.00     0.157 A 
HETATM   23  N   UNL     1      38.760 -13.421  -1.293  1.00  0.00    -0.291 N 
HETATM   24  N   UNL     1      37.319 -11.814  -1.754  1.00  0.00    -0.130 NA
HETATM   25  C   UNL     1      38.120 -13.712  -2.480  1.00  0.00     0.130 A 
HETATM   26  C   UNL     1      39.747 -14.103  -0.583  1.00  0.00     0.117 A 
HETATM   27  C   UNL     1      38.372 -14.918  -3.300  1.00  0.00     0.094 C 
HETATM   28  N   UNL     1      37.258 -12.753  -2.757  1.00  0.00    -0.135 NA
ENDBRANCH   1  19
TORSDOF 7
ENDMDL
MODEL 10
REMARK VINA RESULT:      -7.9      3.891      7.819
REMARK  7 active torsions:
REMARK  status: ('A' for Active; 'I' for Inactive)
REMARK    1  A    between atoms: C_7  and  C_8 
REMARK       I    between atoms: C_8  and  N_9 
REMARK    2  A    between atoms: N_9  and  C_10 
REMARK    3  A    between atoms: C_10  and  C_11 
REMARK    4  A    between atoms: C_11  and  O_12 
REMARK    5  A    between atoms: C_11  and  C_13 
REMARK    6  A    between atoms: C_15  and  O_16 
REMARK    7  A    between atoms: O_16  and  C_17 
ROOT
HETATM    1  C   UNL     1      43.205 -15.825   5.777  1.00  0.00     0.253 C 
HETATM    2  N   UNL     1      43.384 -14.543   5.326  1.00  0.00    -0.354 N 
HETATM    3  O   UNL     1      42.927 -16.107   6.938  1.00  0.00    -0.268 OA
HETATM    4  H   UNL     1      43.380 -14.344   4.334  1.00  0.00     0.162 HD
ENDROOT
BRANCH   2   5
HETATM    5  C   UNL     1      43.199 -13.390   6.197  1.00  0.00     0.159 C 
BRANCH   5   6
HETATM    6  C   UNL     1      41.927 -12.593   5.853  1.00  0.00     0.169 C 
BRANCH   6   7
HETATM    7  O   UNL     1      40.786 -13.240   6.434  1.00  0.00    -0.389 OA
HETATM    8  H   UNL     1      40.577 -12.747   7.248  1.00  0.00     0.210 HD
ENDBRANCH   6   7
BRANCH   6   9
HETATM    9  C   UNL     1      41.733 -12.401   4.360  1.00  0.00    -0.025 A 
HETATM   10  C   UNL     1      40.807 -13.204   3.670  1.00  0.00     0.046 A 
HETATM   11  C   UNL     1      40.584 -13.024   2.301  1.00  0.00     0.075 A 
HETATM   12  C   UNL     1      41.274 -12.018   1.623  1.00  0.00     0.037 A 
HETATM   13  C   UNL     1      42.192 -11.212   2.292  1.00  0.00     0.003 A 
HETATM   14  C   UNL     1      42.421 -11.402   3.654  1.00  0.00     0.010 A 
BRANCH  11  15
HETATM   15  O   UNL     1      39.704 -13.732   1.532  1.00  0.00    -0.290 OA
BRANCH  15  16
HETATM   16  C   UNL     1      40.146 -14.995   1.065  1.00  0.00     0.505 C 
HETATM   17  F   UNL     1      41.486 -14.955   0.861  1.00  0.00    -0.184 F 
HETATM   18  F   UNL     1      39.931 -15.893   2.060  1.00  0.00    -0.184 F 
ENDBRANCH  15  16
ENDBRANCH  11  15
ENDBRANCH   6   9
ENDBRANCH   5   6
ENDBRANCH   2   5
BRANCH   1  19
HETATM   19  C   UNL     1      43.306 -16.889   4.729  1.00  0.00     0.048 A 
HETATM   20  C   UNL     1      43.014 -16.558   3.333  1.00  0.00     0.022 A 
HETATM   21  C   UNL     1      43.072 -17.483   2.356  1.00  0.00     0.054 A 
HETATM   22  C   UNL     1      43.420 -18.820   2.681  1.00  0.00     0.157 A 
HETATM   23  N   UNL     1      43.665 -19.115   4.015  1.00  0.00    -0.291 N 
HETATM   24  N   UNL     1      43.563 -19.906   1.956  1.00  0.00    -0.130 NA
HETATM   25  C   UNL     1      43.966 -20.461   4.030  1.00  0.00     0.130 A 
HETATM   26  C   UNL     1      43.602 -18.169   5.037  1.00  0.00     0.117 A 
HETATM   27  C   UNL     1      44.298 -21.236   5.246  1.00  0.00     0.094 C 
HETATM   28  N   UNL     1      43.904 -20.935   2.801  1.00  0.00    -0.135 NA
ENDBRANCH   1  19
TORSDOF 7
ENDMDL
