MODEL 1
REMARK VINA RESULT:      -9.0      0.000      0.000
REMARK  7 active torsions:
REMARK  status: ('A' for Active; 'I' for Inactive)
REMARK    1  A    between atoms: O_2  and  C_3 
REMARK    2  A    between atoms: C_6  and  C_7 
REMARK    3  A    between atoms: C_11  and  C_12 
REMARK       I    between atoms: C_12  and  N_13 
REMARK    4  A    between atoms: N_13  and  N_14 
REMARK       I    between atoms: N_14  and  C_15 
REMARK    5  A    between atoms: C_15  and  C_16 
REMARK    6  A    between atoms: C_16  and  C_17 
REMARK    7  A    between atoms: C_17  and  C_18 
ROOT
HETATM    1  C   UNL     1      42.730 -11.780   6.630  1.00  0.00     0.288 C 
HETATM    2  N   UNL     1      43.544 -11.959   7.726  1.00  0.00    -0.262 N 
HETATM    3  O   UNL     1      42.029 -10.778   6.498  1.00  0.00    -0.264 OA
HETATM    4  H   UNL     1      44.121 -12.782   7.880  1.00  0.00     0.190 HD
ENDROOT
BRANCH   1   5
HETATM    5  C   UNL     1      42.768 -12.833   5.654  1.00  0.00     0.121 A 
HETATM    6  N   UNL     1      42.651 -12.581   4.316  1.00  0.00    -0.272 N 
HETATM    7  N   UNL     1      42.764 -13.668   3.539  1.00  0.00    -0.174 NA
HETATM    8  H   UNL     1      42.511 -11.677   3.876  1.00  0.00     0.189 HD
HETATM    9  C   UNL     1      42.944 -14.684   4.399  1.00  0.00     0.089 A 
HETATM   10  C   UNL     1      42.937 -14.201   5.739  1.00  0.00     0.071 A 
BRANCH   9  11
HETATM   11  C   UNL     1      43.150 -16.059   3.938  1.00  0.00    -0.005 A 
HETATM   12  C   UNL     1      42.700 -16.457   2.671  1.00  0.00     0.016 A 
HETATM   13  C   UNL     1      42.934 -17.753   2.195  1.00  0.00     0.037 A 
HETATM   14  C   UNL     1      43.620 -18.675   2.984  1.00  0.00     0.068 A 
HETATM   15  C   UNL     1      44.047 -18.295   4.258  1.00  0.00     0.037 A 
HETATM   16  C   UNL     1      43.818 -16.999   4.733  1.00  0.00     0.016 A 
BRANCH  14  17
HETATM   17  O   UNL     1      43.926 -19.961   2.636  1.00  0.00    -0.356 OA
HETATM   18  C   UNL     1      43.896 -20.928   3.679  1.00  0.00     0.210 C 
ENDBRANCH  14  17
ENDBRANCH   9  11
ENDBRANCH   1   5
BRANCH   2  19
HETATM   19  N   UNL     1      43.601 -10.964   8.706  1.00  0.00    -0.267 N 
HETATM   20  C   UNL     1      44.841 -10.498   9.080  1.00  0.00     0.236 C 
HETATM   21  O   UNL     1      45.886 -10.963   8.627  1.00  0.00    -0.272 OA
HETATM   22  H   UNL     1      42.717 -10.544   8.990  1.00  0.00     0.190 HD
BRANCH  20  23
HETATM   23  C   UNL     1      44.818  -9.359  10.072  1.00  0.00     0.109 C 
BRANCH  23  24
HETATM   24  C   UNL     1      43.430  -8.728  10.170  1.00  0.00     0.048 C 
BRANCH  24  25
HETATM   25  C   UNL     1      42.777  -8.783  11.535  1.00  0.00    -0.056 A 
HETATM   26  C   UNL     1      41.658  -9.615  11.714  1.00  0.00     0.031 A 
HETATM   27  C   UNL     1      41.048  -9.730  12.964  1.00  0.00     0.034 A 
HETATM   28 CL   UNL     1      39.678 -10.754  13.155  1.00  0.00    -0.084 Cl
HETATM   29  C   UNL     1      41.544  -9.029  14.058  1.00  0.00     0.024 A 
HETATM   30  C   UNL     1      42.660  -8.211  13.900  1.00  0.00     0.002 A 
HETATM   31  C   UNL     1      43.277  -8.095  12.650  1.00  0.00     0.007 A 
ENDBRANCH  24  25
ENDBRANCH  23  24
ENDBRANCH  20  23
ENDBRANCH   2  19
TORSDOF 7
ENDMDL
MODEL 2
REMARK VINA RESULT:      -8.0      3.137     11.013
REMARK  7 active torsions:
REMARK  status: ('A' for Active; 'I' for Inactive)
REMARK    1  A    between atoms: O_2  and  C_3 
REMARK    2  A    between atoms: C_6  and  C_7 
REMARK    3  A    between atoms: C_11  and  C_12 
REMARK       I    between atoms: C_12  and  N_13 
REMARK    4  A    between atoms: N_13  and  N_14 
REMARK       I    between atoms: N_14  and  C_15 
REMARK    5  A    between atoms: C_15  and  C_16 
REMARK    6  A    between atoms: C_16  and  C_17 
REMARK    7  A    between atoms: C_17  and  C_18 
ROOT
HETATM    1  C   UNL     1      42.733 -10.058   7.702  1.00  0.00     0.288 C 
HETATM    2  N   UNL     1      42.999 -11.301   7.173  1.00  0.00    -0.262 N 
HETATM    3  O   UNL     1      42.402  -9.107   6.994  1.00  0.00    -0.264 OA
HETATM    4  H   UNL     1      43.296 -12.104   7.723  1.00  0.00     0.190 HD
ENDROOT
BRANCH   1   5
HETATM    5  C   UNL     1      42.856  -9.955   9.129  1.00  0.00     0.121 A 
HETATM    6  N   UNL     1      43.648 -10.806   9.848  1.00  0.00    -0.272 N 
HETATM    7  N   UNL     1      43.694 -10.538  11.161  1.00  0.00    -0.174 NA
HETATM    8  H   UNL     1      44.195 -11.581   9.486  1.00  0.00     0.189 HD
HETATM    9  C   UNL     1      42.887  -9.477  11.320  1.00  0.00     0.089 A 
HETATM   10  C   UNL     1      42.329  -9.091  10.068  1.00  0.00     0.071 A 
BRANCH   9  11
HETATM   11  C   UNL     1      42.692  -8.843  12.627  1.00  0.00    -0.005 A 
HETATM   12  C   UNL     1      43.453  -7.723  12.992  1.00  0.00     0.016 A 
HETATM   13  C   UNL     1      43.244  -7.075  14.215  1.00  0.00     0.037 A 
HETATM   14  C   UNL     1      42.271  -7.541  15.097  1.00  0.00     0.068 A 
HETATM   15  C   UNL     1      41.528  -8.673  14.754  1.00  0.00     0.037 A 
HETATM   16  C   UNL     1      41.732  -9.319  13.529  1.00  0.00     0.016 A 
BRANCH  14  17
HETATM   17  O   UNL     1      41.957  -6.995  16.311  1.00  0.00    -0.356 OA
HETATM   18  C   UNL     1      40.792  -7.497  16.953  1.00  0.00     0.210 C 
ENDBRANCH  14  17
ENDBRANCH   9  11
ENDBRANCH   1   5
BRANCH   2  19
HETATM   19  N   UNL     1      42.865 -11.502   5.797  1.00  0.00    -0.267 N 
HETATM   20  C   UNL     1      41.881 -12.362   5.364  1.00  0.00     0.236 C 
HETATM   21  O   UNL     1      41.166 -12.992   6.142  1.00  0.00    -0.272 OA
HETATM   22  H   UNL     1      43.412 -10.899   5.186  1.00  0.00     0.190 HD
BRANCH  20  23
HETATM   23  C   UNL     1      41.733 -12.454   3.864  1.00  0.00     0.109 C 
BRANCH  23  24
HETATM   24  C   UNL     1      43.019 -12.946   3.202  1.00  0.00     0.048 C 
BRANCH  24  25
HETATM   25  C   UNL     1      43.127 -14.444   3.005  1.00  0.00    -0.056 A 
HETATM   26  C   UNL     1      43.153 -15.273   4.140  1.00  0.00     0.031 A 
HETATM   27  C   UNL     1      43.210 -16.661   4.007  1.00  0.00     0.034 A 
HETATM   28 CL   UNL     1      43.242 -17.653   5.413  1.00  0.00    -0.084 Cl
HETATM   29  C   UNL     1      43.233 -17.249   2.746  1.00  0.00     0.024 A 
HETATM   30  C   UNL     1      43.194 -16.441   1.612  1.00  0.00     0.002 A 
HETATM   31  C   UNL     1      43.133 -15.049   1.740  1.00  0.00     0.007 A 
ENDBRANCH  24  25
ENDBRANCH  23  24
ENDBRANCH  20  23
ENDBRANCH   2  19
TORSDOF 7
ENDMDL
MODEL 3
REMARK VINA RESULT:      -8.0      2.184      2.786
REMARK  7 active torsions:
REMARK  status: ('A' for Active; 'I' for Inactive)
REMARK    1  A    between atoms: O_2  and  C_3 
REMARK    2  A    between atoms: C_6  and  C_7 
REMARK    3  A    between atoms: C_11  and  C_12 
REMARK       I    between atoms: C_12  and  N_13 
REMARK    4  A    between atoms: N_13  and  N_14 
REMARK       I    between atoms: N_14  and  C_15 
REMARK    5  A    between atoms: C_15  and  C_16 
REMARK    6  A    between atoms: C_16  and  C_17 
REMARK    7  A    between atoms: C_17  and  C_18 
ROOT
HETATM    1  C   UNL     1      41.821 -10.930   5.585  1.00  0.00     0.288 C 
HETATM    2  N   UNL     1      41.188 -11.219   6.773  1.00  0.00    -0.262 N 
HETATM    3  O   UNL     1      42.036  -9.772   5.227  1.00  0.00    -0.264 OA
HETATM    4  H   UNL     1      40.974 -12.161   7.092  1.00  0.00     0.190 HD
ENDROOT
BRANCH   1   5
HETATM    5  C   UNL     1      42.221 -12.068   4.805  1.00  0.00     0.121 A 
HETATM    6  N   UNL     1      42.792 -11.933   3.571  1.00  0.00    -0.272 N 
HETATM    7  N   UNL     1      43.156 -13.091   3.003  1.00  0.00    -0.174 NA
HETATM    8  H   UNL     1      42.972 -11.065   3.075  1.00  0.00     0.189 HD
HETATM    9  C   UNL     1      42.796 -14.033   3.889  1.00  0.00     0.089 A 
HETATM   10  C   UNL     1      42.191 -13.430   5.029  1.00  0.00     0.071 A 
BRANCH   9  11
HETATM   11  C   UNL     1      43.060 -15.455   3.656  1.00  0.00    -0.005 A 
HETATM   12  C   UNL     1      42.915 -16.002   2.373  1.00  0.00     0.016 A 
HETATM   13  C   UNL     1      43.213 -17.347   2.123  1.00  0.00     0.037 A 
HETATM   14  C   UNL     1      43.658 -18.169   3.157  1.00  0.00     0.068 A 
HETATM   15  C   UNL     1      43.778 -17.640   4.443  1.00  0.00     0.037 A 
HETATM   16  C   UNL     1      43.486 -16.294   4.693  1.00  0.00     0.016 A 
BRANCH  14  17
HETATM   17  O   UNL     1      43.995 -19.490   3.046  1.00  0.00    -0.356 OA
HETATM   18  C   UNL     1      43.297 -20.246   2.064  1.00  0.00     0.210 C 
ENDBRANCH  14  17
ENDBRANCH   9  11
ENDBRANCH   1   5
BRANCH   2  19
HETATM   19  N   UNL     1      40.801 -10.172   7.614  1.00  0.00    -0.267 N 
HETATM   20  C   UNL     1      39.490 -10.136   8.034  1.00  0.00     0.236 C 
HETATM   21  O   UNL     1      38.651 -10.949   7.653  1.00  0.00    -0.272 OA
HETATM   22  H   UNL     1      41.540  -9.573   7.977  1.00  0.00     0.190 HD
BRANCH  20  23
HETATM   23  C   UNL     1      39.170  -9.033   9.016  1.00  0.00     0.109 C 
BRANCH  23  24
HETATM   24  C   UNL     1      40.439  -8.407   9.592  1.00  0.00     0.048 C 
BRANCH  24  25
HETATM   25  C   UNL     1      40.767  -8.782  11.022  1.00  0.00    -0.056 A 
HETATM   26  C   UNL     1      41.761  -8.052  11.699  1.00  0.00     0.031 A 
HETATM   27  C   UNL     1      42.068  -8.335  13.031  1.00  0.00     0.034 A 
HETATM   28 CL   UNL     1      43.290  -7.429  13.836  1.00  0.00    -0.084 Cl
HETATM   29  C   UNL     1      41.390  -9.339  13.714  1.00  0.00     0.024 A 
HETATM   30  C   UNL     1      40.394 -10.060  13.061  1.00  0.00     0.002 A 
HETATM   31  C   UNL     1      40.079  -9.779  11.727  1.00  0.00     0.007 A 
ENDBRANCH  24  25
ENDBRANCH  23  24
ENDBRANCH  20  23
ENDBRANCH   2  19
TORSDOF 7
ENDMDL
MODEL 4
REMARK VINA RESULT:      -7.8      2.762      3.526
REMARK  7 active torsions:
REMARK  status: ('A' for Active; 'I' for Inactive)
REMARK    1  A    between atoms: O_2  and  C_3 
REMARK    2  A    between atoms: C_6  and  C_7 
REMARK    3  A    between atoms: C_11  and  C_12 
REMARK       I    between atoms: C_12  and  N_13 
REMARK    4  A    between atoms: N_13  and  N_14 
REMARK       I    between atoms: N_14  and  C_15 
REMARK    5  A    between atoms: C_15  and  C_16 
REMARK    6  A    between atoms: C_16  and  C_17 
REMARK    7  A    between atoms: C_17  and  C_18 
ROOT
HETATM    1  C   UNL     1      39.807 -11.486   5.644  1.00  0.00     0.288 C 
HETATM    2  N   UNL     1      40.379 -11.334   6.887  1.00  0.00    -0.262 N 
HETATM    3  O   UNL     1      39.062 -10.633   5.162  1.00  0.00    -0.264 OA
HETATM    4  H   UNL     1      40.981 -12.026   7.327  1.00  0.00     0.190 HD
ENDROOT
BRANCH   1   5
HETATM    5  C   UNL     1      40.149 -12.696   4.951  1.00  0.00     0.121 A 
HETATM    6  N   UNL     1      39.430 -13.141   3.877  1.00  0.00    -0.272 N 
HETATM    7  N   UNL     1      39.916 -14.254   3.311  1.00  0.00    -0.174 NA
HETATM    8  H   UNL     1      38.602 -12.709   3.477  1.00  0.00     0.189 HD
HETATM    9  C   UNL     1      40.991 -14.571   4.051  1.00  0.00     0.089 A 
HETATM   10  C   UNL     1      41.162 -13.623   5.100  1.00  0.00     0.071 A 
BRANCH   9  11
HETATM   11  C   UNL     1      41.838 -15.723   3.731  1.00  0.00    -0.005 A 
HETATM   12  C   UNL     1      42.913 -16.065   4.565  1.00  0.00     0.016 A 
HETATM   13  C   UNL     1      43.700 -17.193   4.302  1.00  0.00     0.037 A 
HETATM   14  C   UNL     1      43.426 -17.995   3.196  1.00  0.00     0.068 A 
HETATM   15  C   UNL     1      42.375 -17.645   2.345  1.00  0.00     0.037 A 
HETATM   16  C   UNL     1      41.584 -16.522   2.610  1.00  0.00     0.016 A 
BRANCH  14  17
HETATM   17  O   UNL     1      44.104 -19.126   2.834  1.00  0.00    -0.356 OA
HETATM   18  C   UNL     1      43.370 -20.105   2.109  1.00  0.00     0.210 C 
ENDBRANCH  14  17
ENDBRANCH   9  11
ENDBRANCH   1   5
BRANCH   2  19
HETATM   19  N   UNL     1      40.132 -10.168   7.616  1.00  0.00    -0.267 N 
HETATM   20  C   UNL     1      39.149 -10.206   8.579  1.00  0.00     0.236 C 
HETATM   21  O   UNL     1      38.454 -11.202   8.774  1.00  0.00    -0.272 OA
HETATM   22  H   UNL     1      40.784  -9.396   7.489  1.00  0.00     0.190 HD
BRANCH  20  23
HETATM   23  C   UNL     1      39.006  -8.939   9.390  1.00  0.00     0.109 C 
BRANCH  23  24
HETATM   24  C   UNL     1      39.565  -9.109  10.801  1.00  0.00     0.048 C 
BRANCH  24  25
HETATM   25  C   UNL     1      41.074  -9.044  10.922  1.00  0.00    -0.056 A 
HETATM   26  C   UNL     1      41.780  -8.162  10.085  1.00  0.00     0.031 A 
HETATM   27  C   UNL     1      43.166  -8.039  10.189  1.00  0.00     0.034 A 
HETATM   28 CL   UNL     1      44.007  -6.954   9.150  1.00  0.00    -0.084 Cl
HETATM   29  C   UNL     1      43.872  -8.780  11.131  1.00  0.00     0.024 A 
HETATM   30  C   UNL     1      43.184  -9.646  11.977  1.00  0.00     0.002 A 
HETATM   31  C   UNL     1      41.795  -9.772  11.879  1.00  0.00     0.007 A 
ENDBRANCH  24  25
ENDBRANCH  23  24
ENDBRANCH  20  23
ENDBRANCH   2  19
TORSDOF 7
ENDMDL
MODEL 5
REMARK VINA RESULT:      -7.7      7.753     10.476
REMARK  7 active torsions:
REMARK  status: ('A' for Active; 'I' for Inactive)
REMARK    1  A    between atoms: O_2  and  C_3 
REMARK    2  A    between atoms: C_6  and  C_7 
REMARK    3  A    between atoms: C_11  and  C_12 
REMARK       I    between atoms: C_12  and  N_13 
REMARK    4  A    between atoms: N_13  and  N_14 
REMARK       I    between atoms: N_14  and  C_15 
REMARK    5  A    between atoms: C_15  and  C_16 
REMARK    6  A    between atoms: C_16  and  C_17 
REMARK    7  A    between atoms: C_17  and  C_18 
ROOT
HETATM    1  C   UNL     1      40.165 -13.359  -0.116  1.00  0.00     0.288 C 
HETATM    2  N   UNL     1      38.853 -13.360  -0.533  1.00  0.00    -0.262 N 
HETATM    3  O   UNL     1      40.989 -12.564  -0.564  1.00  0.00    -0.264 OA
HETATM    4  H   UNL     1      38.149 -14.015  -0.201  1.00  0.00     0.190 HD
ENDROOT
BRANCH   1   5
HETATM    5  C   UNL     1      40.496 -14.336   0.883  1.00  0.00     0.121 A 
HETATM    6  N   UNL     1      39.563 -14.818   1.758  1.00  0.00    -0.272 N 
HETATM    7  N   UNL     1      40.023 -15.765   2.588  1.00  0.00    -0.174 NA
HETATM    8  H   UNL     1      38.587 -14.545   1.820  1.00  0.00     0.189 HD
HETATM    9  C   UNL     1      41.318 -15.903   2.262  1.00  0.00     0.089 A 
HETATM   10  C   UNL     1      41.657 -15.011   1.205  1.00  0.00     0.071 A 
BRANCH   9  11
HETATM   11  C   UNL     1      42.182 -16.884   2.925  1.00  0.00    -0.005 A 
HETATM   12  C   UNL     1      42.711 -17.964   2.203  1.00  0.00     0.016 A 
HETATM   13  C   UNL     1      43.578 -18.881   2.808  1.00  0.00     0.037 A 
HETATM   14  C   UNL     1      43.928 -18.735   4.149  1.00  0.00     0.068 A 
HETATM   15  C   UNL     1      43.383 -17.679   4.882  1.00  0.00     0.037 A 
HETATM   16  C   UNL     1      42.520 -16.758   4.278  1.00  0.00     0.016 A 
BRANCH  14  17
HETATM   17  O   UNL     1      44.771 -19.548   4.854  1.00  0.00    -0.356 OA
HETATM   18  C   UNL     1      44.249 -20.805   5.265  1.00  0.00     0.210 C 
ENDBRANCH  14  17
ENDBRANCH   9  11
ENDBRANCH   1   5
BRANCH   2  19
HETATM   19  N   UNL     1      38.434 -12.416  -1.474  1.00  0.00    -0.267 N 
HETATM   20  C   UNL     1      37.801 -11.284  -1.012  1.00  0.00     0.236 C 
HETATM   21  O   UNL     1      37.547 -11.108   0.179  1.00  0.00    -0.272 OA
HETATM   22  H   UNL     1      38.739 -12.554  -2.435  1.00  0.00     0.190 HD
BRANCH  20  23
HETATM   23  C   UNL     1      37.464 -10.266  -2.077  1.00  0.00     0.109 C 
BRANCH  23  24
HETATM   24  C   UNL     1      38.291 -10.483  -3.342  1.00  0.00     0.048 C 
BRANCH  24  25
HETATM   25  C   UNL     1      39.441  -9.519  -3.549  1.00  0.00    -0.056 A 
HETATM   26  C   UNL     1      40.435  -9.433  -2.559  1.00  0.00     0.031 A 
HETATM   27  C   UNL     1      41.534  -8.589  -2.724  1.00  0.00     0.034 A 
HETATM   28 CL   UNL     1      42.737  -8.501  -1.495  1.00  0.00    -0.084 Cl
HETATM   29  C   UNL     1      41.669  -7.823  -3.878  1.00  0.00     0.024 A 
HETATM   30  C   UNL     1      40.699  -7.908  -4.874  1.00  0.00     0.002 A 
HETATM   31  C   UNL     1      39.597  -8.755  -4.714  1.00  0.00     0.007 A 
ENDBRANCH  24  25
ENDBRANCH  23  24
ENDBRANCH  20  23
ENDBRANCH   2  19
TORSDOF 7
ENDMDL
MODEL 6
REMARK VINA RESULT:      -7.7      2.030      2.681
REMARK  7 active torsions:
REMARK  status: ('A' for Active; 'I' for Inactive)
REMARK    1  A    between atoms: O_2  and  C_3 
REMARK    2  A    between atoms: C_6  and  C_7 
REMARK    3  A    between atoms: C_11  and  C_12 
REMARK       I    between atoms: C_12  and  N_13 
REMARK    4  A    between atoms: N_13  and  N_14 
REMARK       I    between atoms: N_14  and  C_15 
REMARK    5  A    between atoms: C_15  and  C_16 
REMARK    6  A    between atoms: C_16  and  C_17 
REMARK    7  A    between atoms: C_17  and  C_18 
ROOT
HETATM    1  C   UNL     1      41.626 -11.147   5.463  1.00  0.00     0.288 C 
HETATM    2  N   UNL     1      40.984 -11.330   6.667  1.00  0.00    -0.262 N 
HETATM    3  O   UNL     1      41.994 -10.035   5.085  1.00  0.00    -0.264 OA
HETATM    4  H   UNL     1      40.647 -12.228   7.004  1.00  0.00     0.190 HD
ENDROOT
BRANCH   1   5
HETATM    5  C   UNL     1      41.846 -12.339   4.693  1.00  0.00     0.121 A 
HETATM    6  N   UNL     1      41.726 -12.351   3.331  1.00  0.00    -0.272 N 
HETATM    7  N   UNL     1      42.020 -13.529   2.763  1.00  0.00    -0.174 NA
HETATM    8  H   UNL     1      41.462 -11.571   2.736  1.00  0.00     0.189 HD
HETATM    9  C   UNL     1      42.328 -14.335   3.791  1.00  0.00     0.089 A 
HETATM   10  C   UNL     1      42.216 -13.627   5.022  1.00  0.00     0.071 A 
BRANCH   9  11
HETATM   11  C   UNL     1      42.750 -15.723   3.585  1.00  0.00    -0.005 A 
HETATM   12  C   UNL     1      42.724 -16.289   2.302  1.00  0.00     0.016 A 
HETATM   13  C   UNL     1      43.171 -17.597   2.080  1.00  0.00     0.037 A 
HETATM   14  C   UNL     1      43.648 -18.363   3.142  1.00  0.00     0.068 A 
HETATM   15  C   UNL     1      43.651 -17.817   4.428  1.00  0.00     0.037 A 
HETATM   16  C   UNL     1      43.209 -16.508   4.650  1.00  0.00     0.016 A 
BRANCH  14  17
HETATM   17  O   UNL     1      44.125 -19.642   3.061  1.00  0.00    -0.356 OA
HETATM   18  C   UNL     1      43.642 -20.436   1.984  1.00  0.00     0.210 C 
ENDBRANCH  14  17
ENDBRANCH   9  11
ENDBRANCH   1   5
BRANCH   2  19
HETATM   19  N   UNL     1      40.765 -10.229   7.500  1.00  0.00    -0.267 N 
HETATM   20  C   UNL     1      39.513 -10.079   8.052  1.00  0.00     0.236 C 
HETATM   21  O   UNL     1      38.581 -10.839   7.793  1.00  0.00    -0.272 OA
HETATM   22  H   UNL     1      41.580  -9.676   7.760  1.00  0.00     0.190 HD
BRANCH  20  23
HETATM   23  C   UNL     1      39.379  -8.923   9.016  1.00  0.00     0.109 C 
BRANCH  23  24
HETATM   24  C   UNL     1      40.644  -8.067   9.045  1.00  0.00     0.048 C 
BRANCH  24  25
HETATM   25  C   UNL     1      41.486  -8.180  10.299  1.00  0.00    -0.056 A 
HETATM   26  C   UNL     1      42.078  -9.419  10.603  1.00  0.00     0.031 A 
HETATM   27  C   UNL     1      42.896  -9.561  11.726  1.00  0.00     0.034 A 
HETATM   28 CL   UNL     1      43.607 -11.088  12.077  1.00  0.00    -0.084 Cl
HETATM   29  C   UNL     1      43.146  -8.475  12.559  1.00  0.00     0.024 A 
HETATM   30  C   UNL     1      42.577  -7.239  12.262  1.00  0.00     0.002 A 
HETATM   31  C   UNL     1      41.760  -7.090  11.136  1.00  0.00     0.007 A 
ENDBRANCH  24  25
ENDBRANCH  23  24
ENDBRANCH  20  23
ENDBRANCH   2  19
TORSDOF 7
ENDMDL
MODEL 7
REMARK VINA RESULT:      -7.6      7.987     11.106
REMARK  7 active torsions:
REMARK  status: ('A' for Active; 'I' for Inactive)
REMARK    1  A    between atoms: O_2  and  C_3 
REMARK    2  A    between atoms: C_6  and  C_7 
REMARK    3  A    between atoms: C_11  and  C_12 
REMARK       I    between atoms: C_12  and  N_13 
REMARK    4  A    between atoms: N_13  and  N_14 
REMARK       I    between atoms: N_14  and  C_15 
REMARK    5  A    between atoms: C_15  and  C_16 
REMARK    6  A    between atoms: C_16  and  C_17 
REMARK    7  A    between atoms: C_17  and  C_18 
ROOT
HETATM    1  C   UNL     1      40.076 -13.417  -0.400  1.00  0.00     0.288 C 
HETATM    2  N   UNL     1      38.778 -13.503  -0.851  1.00  0.00    -0.262 N 
HETATM    3  O   UNL     1      40.884 -12.628  -0.889  1.00  0.00    -0.264 OA
HETATM    4  H   UNL     1      38.089 -14.156  -0.487  1.00  0.00     0.190 HD
ENDROOT
BRANCH   1   5
HETATM    5  C   UNL     1      40.412 -14.298   0.683  1.00  0.00     0.121 A 
HETATM    6  N   UNL     1      39.504 -14.635   1.648  1.00  0.00    -0.272 N 
HETATM    7  N   UNL     1      39.962 -15.511   2.553  1.00  0.00    -0.174 NA
HETATM    8  H   UNL     1      38.546 -14.307   1.724  1.00  0.00     0.189 HD
HETATM    9  C   UNL     1      41.231 -15.749   2.185  1.00  0.00     0.089 A 
HETATM   10  C   UNL     1      41.556 -14.994   1.022  1.00  0.00     0.071 A 
BRANCH   9  11
HETATM   11  C   UNL     1      42.081 -16.698   2.909  1.00  0.00    -0.005 A 
HETATM   12  C   UNL     1      42.643 -17.798   2.244  1.00  0.00     0.016 A 
HETATM   13  C   UNL     1      43.498 -18.684   2.908  1.00  0.00     0.037 A 
HETATM   14  C   UNL     1      43.803 -18.487   4.254  1.00  0.00     0.068 A 
HETATM   15  C   UNL     1      43.225 -17.411   4.931  1.00  0.00     0.037 A 
HETATM   16  C   UNL     1      42.374 -16.520   4.267  1.00  0.00     0.016 A 
BRANCH  14  17
HETATM   17  O   UNL     1      44.630 -19.266   5.015  1.00  0.00    -0.356 OA
HETATM   18  C   UNL     1      44.415 -20.671   4.955  1.00  0.00     0.210 C 
ENDBRANCH  14  17
ENDBRANCH   9  11
ENDBRANCH   1   5
BRANCH   2  19
HETATM   19  N   UNL     1      38.353 -12.653  -1.876  1.00  0.00    -0.267 N 
HETATM   20  C   UNL     1      37.654 -11.520  -1.525  1.00  0.00     0.236 C 
HETATM   21  O   UNL     1      37.349 -11.267  -0.361  1.00  0.00    -0.272 OA
HETATM   22  H   UNL     1      38.700 -12.849  -2.813  1.00  0.00     0.190 HD
BRANCH  20  23
HETATM   23  C   UNL     1      37.312 -10.603  -2.676  1.00  0.00     0.109 C 
BRANCH  23  24
HETATM   24  C   UNL     1      36.270  -9.561  -2.275  1.00  0.00     0.048 C 
BRANCH  24  25
HETATM   25  C   UNL     1      34.827  -9.940  -2.536  1.00  0.00    -0.056 A 
HETATM   26  C   UNL     1      33.816  -9.280  -1.816  1.00  0.00     0.031 A 
HETATM   27  C   UNL     1      32.470  -9.566  -2.053  1.00  0.00     0.034 A 
HETATM   28 CL   UNL     1      31.252  -8.745  -1.157  1.00  0.00    -0.084 Cl
HETATM   29  C   UNL     1      32.107 -10.505  -3.013  1.00  0.00     0.024 A 
HETATM   30  C   UNL     1      33.097 -11.157  -3.744  1.00  0.00     0.002 A 
HETATM   31  C   UNL     1      34.447 -10.871  -3.513  1.00  0.00     0.007 A 
ENDBRANCH  24  25
ENDBRANCH  23  24
ENDBRANCH  20  23
ENDBRANCH   2  19
TORSDOF 7
ENDMDL
MODEL 8
REMARK VINA RESULT:      -7.5      2.071      2.875
REMARK  7 active torsions:
REMARK  status: ('A' for Active; 'I' for Inactive)
REMARK    1  A    between atoms: O_2  and  C_3 
REMARK    2  A    between atoms: C_6  and  C_7 
REMARK    3  A    between atoms: C_11  and  C_12 
REMARK       I    between atoms: C_12  and  N_13 
REMARK    4  A    between atoms: N_13  and  N_14 
REMARK       I    between atoms: N_14  and  C_15 
REMARK    5  A    between atoms: C_15  and  C_16 
REMARK    6  A    between atoms: C_16  and  C_17 
REMARK    7  A    between atoms: C_17  and  C_18 
ROOT
HETATM    1  C   UNL     1      42.417 -11.213   4.149  1.00  0.00     0.288 C 
HETATM    2  N   UNL     1      42.533 -11.013   5.507  1.00  0.00    -0.262 N 
HETATM    3  O   UNL     1      42.202 -10.285   3.371  1.00  0.00    -0.264 OA
HETATM    4  H   UNL     1      42.689 -11.757   6.182  1.00  0.00     0.190 HD
ENDROOT
BRANCH   1   5
HETATM    5  C   UNL     1      42.577 -12.570   3.710  1.00  0.00     0.121 A 
HETATM    6  N   UNL     1      42.482 -12.918   2.391  1.00  0.00    -0.272 N 
HETATM    7  N   UNL     1      42.713 -14.216   2.145  1.00  0.00    -0.174 NA
HETATM    8  H   UNL     1      42.276 -12.301   1.611  1.00  0.00     0.189 HD
HETATM    9  C   UNL     1      42.953 -14.753   3.352  1.00  0.00     0.089 A 
HETATM   10  C   UNL     1      42.863 -13.753   4.362  1.00  0.00     0.071 A 
BRANCH   9  11
HETATM   11  C   UNL     1      43.293 -16.169   3.514  1.00  0.00    -0.005 A 
HETATM   12  C   UNL     1      43.651 -16.673   4.773  1.00  0.00     0.016 A 
HETATM   13  C   UNL     1      43.929 -18.033   4.955  1.00  0.00     0.037 A 
HETATM   14  C   UNL     1      43.856 -18.912   3.876  1.00  0.00     0.068 A 
HETATM   15  C   UNL     1      43.527 -18.414   2.613  1.00  0.00     0.037 A 
HETATM   16  C   UNL     1      43.244 -17.056   2.431  1.00  0.00     0.016 A 
BRANCH  14  17
HETATM   17  O   UNL     1      44.087 -20.259   3.919  1.00  0.00    -0.356 OA
HETATM   18  C   UNL     1      44.448 -20.804   5.182  1.00  0.00     0.210 C 
ENDBRANCH  14  17
ENDBRANCH   9  11
ENDBRANCH   1   5
BRANCH   2  19
HETATM   19  N   UNL     1      42.431  -9.717   6.018  1.00  0.00    -0.267 N 
HETATM   20  C   UNL     1      41.436  -9.463   6.936  1.00  0.00     0.236 C 
HETATM   21  O   UNL     1      40.612 -10.313   7.269  1.00  0.00    -0.272 OA
HETATM   22  H   UNL     1      43.181  -9.068   5.787  1.00  0.00     0.190 HD
BRANCH  20  23
HETATM   23  C   UNL     1      41.448  -8.067   7.515  1.00  0.00     0.109 C 
BRANCH  23  24
HETATM   24  C   UNL     1      42.841  -7.674   8.002  1.00  0.00     0.048 C 
BRANCH  24  25
HETATM   25  C   UNL     1      43.429  -8.550   9.089  1.00  0.00    -0.056 A 
HETATM   26  C   UNL     1      42.632  -8.868  10.203  1.00  0.00     0.031 A 
HETATM   27  C   UNL     1      43.117  -9.705  11.210  1.00  0.00     0.034 A 
HETATM   28 CL   UNL     1      42.122 -10.078  12.563  1.00  0.00    -0.084 Cl
HETATM   29  C   UNL     1      44.396 -10.245  11.123  1.00  0.00     0.024 A 
HETATM   30  C   UNL     1      45.192  -9.949  10.019  1.00  0.00     0.002 A 
HETATM   31  C   UNL     1      44.710  -9.114   9.006  1.00  0.00     0.007 A 
ENDBRANCH  24  25
ENDBRANCH  23  24
ENDBRANCH  20  23
ENDBRANCH   2  19
TORSDOF 7
ENDMDL
MODEL 9
REMARK VINA RESULT:      -7.5     18.225     20.667
REMARK  7 active torsions:
REMARK  status: ('A' for Active; 'I' for Inactive)
REMARK    1  A    between atoms: O_2  and  C_3 
REMARK    2  A    between atoms: C_6  and  C_7 
REMARK    3  A    between atoms: C_11  and  C_12 
REMARK       I    between atoms: C_12  and  N_13 
REMARK    4  A    between atoms: N_13  and  N_14 
REMARK       I    between atoms: N_14  and  C_15 
REMARK    5  A    between atoms: C_15  and  C_16 
REMARK    6  A    between atoms: C_16  and  C_17 
REMARK    7  A    between atoms: C_17  and  C_18 
ROOT
HETATM    1  C   UNL     1      42.259 -29.776   2.596  1.00  0.00     0.288 C 
HETATM    2  N   UNL     1      43.569 -29.464   2.885  1.00  0.00    -0.262 N 
HETATM    3  O   UNL     1      41.733 -29.452   1.532  1.00  0.00    -0.264 OA
HETATM    4  H   UNL     1      44.032 -29.696   3.760  1.00  0.00     0.190 HD
ENDROOT
BRANCH   1   5
HETATM    5  C   UNL     1      41.561 -30.511   3.613  1.00  0.00     0.121 A 
HETATM    6  N   UNL     1      41.803 -30.311   4.944  1.00  0.00    -0.272 N 
HETATM    7  N   UNL     1      41.028 -31.037   5.760  1.00  0.00    -0.174 NA
HETATM    8  H   UNL     1      42.480 -29.672   5.350  1.00  0.00     0.189 HD
HETATM    9  C   UNL     1      40.253 -31.762   4.938  1.00  0.00     0.089 A 
HETATM   10  C   UNL     1      40.569 -31.471   3.580  1.00  0.00     0.071 A 
BRANCH   9  11
HETATM   11  C   UNL     1      39.224 -32.673   5.448  1.00  0.00    -0.005 A 
HETATM   12  C   UNL     1      39.177 -32.997   6.811  1.00  0.00     0.016 A 
HETATM   13  C   UNL     1      38.171 -33.825   7.323  1.00  0.00     0.037 A 
HETATM   14  C   UNL     1      37.195 -34.346   6.475  1.00  0.00     0.068 A 
HETATM   15  C   UNL     1      37.250 -34.051   5.111  1.00  0.00     0.037 A 
HETATM   16  C   UNL     1      38.253 -33.219   4.599  1.00  0.00     0.016 A 
BRANCH  14  17
HETATM   17  O   UNL     1      36.154 -35.151   6.846  1.00  0.00    -0.356 OA
HETATM   18  C   UNL     1      35.411 -34.747   7.990  1.00  0.00     0.210 C 
ENDBRANCH  14  17
ENDBRANCH   9  11
ENDBRANCH   1   5
BRANCH   2  19
HETATM   19  N   UNL     1      44.336 -28.785   1.935  1.00  0.00    -0.267 N 
HETATM   20  C   UNL     1      45.516 -29.364   1.525  1.00  0.00     0.236 C 
HETATM   21  O   UNL     1      45.937 -30.415   2.005  1.00  0.00    -0.272 OA
HETATM   22  H   UNL     1      43.914 -27.967   1.499  1.00  0.00     0.190 HD
BRANCH  20  23
HETATM   23  C   UNL     1      46.241 -28.620   0.428  1.00  0.00     0.109 C 
BRANCH  23  24
HETATM   24  C   UNL     1      45.264 -27.948  -0.535  1.00  0.00     0.048 C 
BRANCH  24  25
HETATM   25  C   UNL     1      45.056 -28.655  -1.859  1.00  0.00    -0.056 A 
HETATM   26  C   UNL     1      44.648 -30.000  -1.848  1.00  0.00     0.031 A 
HETATM   27  C   UNL     1      44.405 -30.680  -3.042  1.00  0.00     0.034 A 
HETATM   28 CL   UNL     1      43.908 -32.328  -3.001  1.00  0.00    -0.084 Cl
HETATM   29  C   UNL     1      44.552 -30.034  -4.266  1.00  0.00     0.024 A 
HETATM   30  C   UNL     1      44.942 -28.697  -4.291  1.00  0.00     0.002 A 
HETATM   31  C   UNL     1      45.184 -28.010  -3.097  1.00  0.00     0.007 A 
ENDBRANCH  24  25
ENDBRANCH  23  24
ENDBRANCH  20  23
ENDBRANCH   2  19
TORSDOF 7
ENDMDL
MODEL 10
REMARK VINA RESULT:      -7.4      8.138     11.884
REMARK  7 active torsions:
REMARK  status: ('A' for Active; 'I' for Inactive)
REMARK    1  A    between atoms: O_2  and  C_3 
REMARK    2  A    between atoms: C_6  and  C_7 
REMARK    3  A    between atoms: C_11  and  C_12 
REMARK       I    between atoms: C_12  and  N_13 
REMARK    4  A    between atoms: N_13  and  N_14 
REMARK       I    between atoms: N_14  and  C_15 
REMARK    5  A    between atoms: C_15  and  C_16 
REMARK    6  A    between atoms: C_16  and  C_17 
REMARK    7  A    between atoms: C_17  and  C_18 
ROOT
HETATM    1  C   UNL     1      40.012 -13.629  -1.186  1.00  0.00     0.288 C 
HETATM    2  N   UNL     1      41.086 -13.536  -0.329  1.00  0.00    -0.262 N 
HETATM    3  O   UNL     1      39.297 -14.629  -1.226  1.00  0.00    -0.264 OA
HETATM    4  H   UNL     1      41.711 -12.736  -0.281  1.00  0.00     0.190 HD
ENDROOT
BRANCH   1   5
HETATM    5  C   UNL     1      39.780 -12.478  -2.012  1.00  0.00     0.121 A 
HETATM    6  N   UNL     1      38.566 -12.238  -2.592  1.00  0.00    -0.272 N 
HETATM    7  N   UNL     1      38.503 -11.092  -3.285  1.00  0.00    -0.174 NA
HETATM    8  H   UNL     1      37.736 -12.820  -2.531  1.00  0.00     0.189 HD
HETATM    9  C   UNL     1      39.731 -10.560  -3.175  1.00  0.00     0.089 A 
HETATM   10  C   UNL     1      40.567 -11.409  -2.395  1.00  0.00     0.071 A 
BRANCH   9  11
HETATM   11  C   UNL     1      40.069  -9.265  -3.772  1.00  0.00    -0.005 A 
HETATM   12  C   UNL     1      41.404  -8.838  -3.830  1.00  0.00     0.016 A 
HETATM   13  C   UNL     1      41.749  -7.627  -4.442  1.00  0.00     0.037 A 
HETATM   14  C   UNL     1      40.761  -6.821  -5.004  1.00  0.00     0.068 A 
HETATM   15  C   UNL     1      39.427  -7.225  -4.926  1.00  0.00     0.037 A 
HETATM   16  C   UNL     1      39.081  -8.438  -4.319  1.00  0.00     0.016 A 
BRANCH  14  17
HETATM   17  O   UNL     1      40.962  -5.627  -5.641  1.00  0.00    -0.356 OA
HETATM   18  C   UNL     1      42.307  -5.298  -5.967  1.00  0.00     0.210 C 
ENDBRANCH  14  17
ENDBRANCH   9  11
ENDBRANCH   1   5
BRANCH   2  19
HETATM   19  N   UNL     1      41.360 -14.595   0.541  1.00  0.00    -0.267 N 
HETATM   20  C   UNL     1      41.097 -14.412   1.881  1.00  0.00     0.236 C 
HETATM   21  O   UNL     1      40.689 -13.344   2.334  1.00  0.00    -0.272 OA
HETATM   22  H   UNL     1      41.611 -15.487   0.119  1.00  0.00     0.190 HD
BRANCH  20  23
HETATM   23  C   UNL     1      41.328 -15.631   2.744  1.00  0.00     0.109 C 
BRANCH  23  24
HETATM   24  C   UNL     1      42.791 -15.751   3.166  1.00  0.00     0.048 C 
BRANCH  24  25
HETATM   25  C   UNL     1      43.260 -17.147   3.523  1.00  0.00    -0.056 A 
HETATM   26  C   UNL     1      43.239 -18.140   2.527  1.00  0.00     0.031 A 
HETATM   27  C   UNL     1      43.700 -19.429   2.799  1.00  0.00     0.034 A 
HETATM   28 CL   UNL     1      43.663 -20.627   1.563  1.00  0.00    -0.084 Cl
HETATM   29  C   UNL     1      44.195 -19.751   4.058  1.00  0.00     0.024 A 
HETATM   30  C   UNL     1      44.234 -18.774   5.050  1.00  0.00     0.002 A 
HETATM   31  C   UNL     1      43.777 -17.480   4.782  1.00  0.00     0.007 A 
ENDBRANCH  24  25
ENDBRANCH  23  24
ENDBRANCH  20  23
ENDBRANCH   2  19
TORSDOF 7
ENDMDL
