MODEL 1
REMARK VINA RESULT:      -9.8      0.000      0.000
REMARK  2 active torsions:
REMARK  status: ('A' for Active; 'I' for Inactive)
REMARK    1  A    between atoms: C_4  and  C_5 
REMARK       I    between atoms: N_12  and  C_13 
REMARK    2  A    between atoms: C_13  and  C_14 
ROOT
HETATM    1  C   UNL     1      43.613 -17.471   5.533  1.00  0.00     0.070 A 
HETATM    2  N   UNL     1      43.833 -17.667   6.876  1.00  0.00    -0.277 N 
HETATM    3  H   UNL     1      44.063 -18.537   7.342  1.00  0.00     0.189 HD
HETATM    4  N   UNL     1      43.742 -16.549   7.621  1.00  0.00    -0.178 NA
HETATM    5  C   UNL     1      43.451 -15.608   6.722  1.00  0.00     0.066 A 
HETATM    6  C   UNL     1      43.361 -16.117   5.408  1.00  0.00     0.015 A 
HETATM    7  C   UNL     1      43.042 -15.286   4.216  1.00  0.00     0.169 C 
HETATM    8  N   UNL     1      42.702 -13.908   4.623  1.00  0.00    -0.343 N 
HETATM    9  C   UNL     1      41.787 -13.099   3.954  1.00  0.00     0.254 C 
HETATM   10  O   UNL     1      41.437 -11.991   4.351  1.00  0.00    -0.267 OA
HETATM   11  C   UNL     1      43.429 -13.343   5.776  1.00  0.00     0.132 C 
HETATM   12  C   UNL     1      43.231 -14.178   7.052  1.00  0.00     0.081 C 
ENDROOT
BRANCH   9  13
HETATM   13  C   UNL     1      41.179 -13.588   2.697  1.00  0.00     0.035 A 
HETATM   14  C   UNL     1      41.327 -12.866   1.506  1.00  0.00     0.056 A 
HETATM   15  C   UNL     1      40.744 -13.395   0.375  1.00  0.00     0.106 A 
HETATM   16  C   UNL     1      40.021 -14.566   0.406  1.00  0.00     0.105 A 
HETATM   17  O   UNL     1      40.803 -12.855  -0.873  1.00  0.00    -0.323 OA
HETATM   18  O   UNL     1      39.536 -14.907  -0.817  1.00  0.00    -0.323 OA
HETATM   19  C   UNL     1      39.831 -15.276   1.574  1.00  0.00     0.041 A 
HETATM   20  C   UNL     1      40.041 -13.824  -1.624  1.00  0.00     0.352 A 
HETATM   21  C   UNL     1      40.418 -14.774   2.738  1.00  0.00     0.020 A 
ENDBRANCH   9  13
BRANCH   1  22
HETATM   22  C   UNL     1      43.675 -18.546   4.549  1.00  0.00    -0.007 A 
HETATM   23  C   UNL     1      43.958 -19.860   4.944  1.00  0.00     0.014 A 
HETATM   24  C   UNL     1      44.010 -20.888   4.000  1.00  0.00     0.001 A 
HETATM   25  C   UNL     1      43.781 -20.612   2.654  1.00  0.00     0.000 A 
HETATM   26  C   UNL     1      43.501 -19.308   2.250  1.00  0.00     0.001 A 
HETATM   27  C   UNL     1      43.448 -18.280   3.193  1.00  0.00     0.014 A 
ENDBRANCH   1  22
TORSDOF 2
ENDMDL
MODEL 2
REMARK VINA RESULT:      -9.2      2.703      6.048
REMARK  2 active torsions:
REMARK  status: ('A' for Active; 'I' for Inactive)
REMARK    1  A    between atoms: C_4  and  C_5 
REMARK       I    between atoms: N_12  and  C_13 
REMARK    2  A    between atoms: C_13  and  C_14 
ROOT
HETATM    1  C   UNL     1      41.782 -13.579   3.567  1.00  0.00     0.070 A 
HETATM    2  N   UNL     1      42.027 -12.242   3.766  1.00  0.00    -0.277 N 
HETATM    3  H   UNL     1      41.795 -11.474   3.147  1.00  0.00     0.189 HD
HETATM    4  N   UNL     1      42.629 -11.956   4.937  1.00  0.00    -0.178 NA
HETATM    5  C   UNL     1      42.775 -13.154   5.503  1.00  0.00     0.066 A 
HETATM    6  C   UNL     1      42.266 -14.202   4.703  1.00  0.00     0.015 A 
HETATM    7  C   UNL     1      42.306 -15.637   5.093  1.00  0.00     0.169 C 
HETATM    8  N   UNL     1      43.069 -15.812   6.345  1.00  0.00    -0.343 N 
HETATM    9  C   UNL     1      43.833 -16.936   6.644  1.00  0.00     0.254 C 
HETATM   10  O   UNL     1      44.541 -17.035   7.643  1.00  0.00    -0.267 OA
HETATM   11  C   UNL     1      42.955 -14.748   7.361  1.00  0.00     0.132 C 
HETATM   12  C   UNL     1      43.412 -13.382   6.823  1.00  0.00     0.081 C 
ENDROOT
BRANCH   9  13
HETATM   13  C   UNL     1      43.817 -18.085   5.711  1.00  0.00     0.035 A 
HETATM   14  C   UNL     1      43.867 -17.880   4.327  1.00  0.00     0.056 A 
HETATM   15  C   UNL     1      43.863 -19.001   3.525  1.00  0.00     0.106 A 
HETATM   16  C   UNL     1      43.785 -20.272   4.050  1.00  0.00     0.105 A 
HETATM   17  O   UNL     1      43.934 -19.004   2.167  1.00  0.00    -0.323 OA
HETATM   18  O   UNL     1      43.799 -21.231   3.085  1.00  0.00    -0.323 OA
HETATM   19  C   UNL     1      43.700 -20.498   5.408  1.00  0.00     0.041 A 
HETATM   20  C   UNL     1      43.900 -20.422   1.896  1.00  0.00     0.352 A 
HETATM   21  C   UNL     1      43.712 -19.384   6.251  1.00  0.00     0.020 A 
ENDBRANCH   9  13
BRANCH   1  22
HETATM   22  C   UNL     1      41.129 -14.102   2.373  1.00  0.00    -0.007 A 
HETATM   23  C   UNL     1      41.162 -13.385   1.170  1.00  0.00     0.014 A 
HETATM   24  C   UNL     1      40.542 -13.893   0.025  1.00  0.00     0.001 A 
HETATM   25  C   UNL     1      39.883 -15.120   0.074  1.00  0.00     0.000 A 
HETATM   26  C   UNL     1      39.842 -15.839   1.266  1.00  0.00     0.001 A 
HETATM   27  C   UNL     1      40.463 -15.333   2.410  1.00  0.00     0.014 A 
ENDBRANCH   1  22
TORSDOF 2
ENDMDL
MODEL 3
REMARK VINA RESULT:      -9.1      2.400      3.686
REMARK  2 active torsions:
REMARK  status: ('A' for Active; 'I' for Inactive)
REMARK    1  A    between atoms: C_4  and  C_5 
REMARK       I    between atoms: N_12  and  C_13 
REMARK    2  A    between atoms: C_13  and  C_14 
ROOT
HETATM    1  C   UNL     1      40.967 -14.799   4.736  1.00  0.00     0.070 A 
HETATM    2  N   UNL     1      40.447 -14.915   6.004  1.00  0.00    -0.277 N 
HETATM    3  H   UNL     1      40.530 -15.705   6.634  1.00  0.00     0.189 HD
HETATM    4  N   UNL     1      39.774 -13.829   6.429  1.00  0.00    -0.178 NA
HETATM    5  C   UNL     1      39.865 -12.992   5.395  1.00  0.00     0.066 A 
HETATM    6  C   UNL     1      40.596 -13.535   4.316  1.00  0.00     0.015 A 
HETATM    7  C   UNL     1      40.843 -12.816   3.037  1.00  0.00     0.169 C 
HETATM    8  N   UNL     1      40.106 -11.537   3.011  1.00  0.00    -0.343 N 
HETATM    9  C   UNL     1      39.583 -10.960   1.858  1.00  0.00     0.254 C 
HETATM   10  O   UNL     1      38.889  -9.947   1.856  1.00  0.00    -0.267 OA
HETATM   11  C   UNL     1      39.975 -10.805   4.286  1.00  0.00     0.132 C 
HETATM   12  C   UNL     1      39.259 -11.638   5.362  1.00  0.00     0.081 C 
ENDROOT
BRANCH   9  13
HETATM   13  C   UNL     1      39.855 -11.594   0.549  1.00  0.00     0.035 A 
HETATM   14  C   UNL     1      39.071 -12.664   0.099  1.00  0.00     0.056 A 
HETATM   15  C   UNL     1      39.379 -13.191  -1.137  1.00  0.00     0.106 A 
HETATM   16  C   UNL     1      40.426 -12.714  -1.893  1.00  0.00     0.105 A 
HETATM   17  O   UNL     1      38.717 -14.208  -1.751  1.00  0.00    -0.323 OA
HETATM   18  O   UNL     1      40.552 -13.372  -3.076  1.00  0.00    -0.323 OA
HETATM   19  C   UNL     1      41.234 -11.685  -1.455  1.00  0.00     0.041 A 
HETATM   20  C   UNL     1      39.462 -14.313  -2.983  1.00  0.00     0.352 A 
HETATM   21  C   UNL     1      40.944 -11.119  -0.211  1.00  0.00     0.020 A 
ENDBRANCH   9  13
BRANCH   1  22
HETATM   22  C   UNL     1      41.740 -15.853   4.090  1.00  0.00    -0.007 A 
HETATM   23  C   UNL     1      42.881 -16.382   4.708  1.00  0.00     0.014 A 
HETATM   24  C   UNL     1      43.615 -17.397   4.089  1.00  0.00     0.001 A 
HETATM   25  C   UNL     1      43.215 -17.891   2.849  1.00  0.00     0.000 A 
HETATM   26  C   UNL     1      42.083 -17.371   2.226  1.00  0.00     0.001 A 
HETATM   27  C   UNL     1      41.349 -16.357   2.844  1.00  0.00     0.014 A 
ENDBRANCH   1  22
TORSDOF 2
ENDMDL
MODEL 4
REMARK VINA RESULT:      -9.0      1.404      2.054
REMARK  2 active torsions:
REMARK  status: ('A' for Active; 'I' for Inactive)
REMARK    1  A    between atoms: C_4  and  C_5 
REMARK       I    between atoms: N_12  and  C_13 
REMARK    2  A    between atoms: C_13  and  C_14 
ROOT
HETATM    1  C   UNL     1      43.385 -15.774   4.778  1.00  0.00     0.070 A 
HETATM    2  N   UNL     1      43.590 -15.637   6.130  1.00  0.00    -0.277 N 
HETATM    3  H   UNL     1      43.823 -16.366   6.795  1.00  0.00     0.189 HD
HETATM    4  N   UNL     1      43.483 -14.373   6.583  1.00  0.00    -0.178 NA
HETATM    5  C   UNL     1      43.194 -13.680   5.481  1.00  0.00     0.066 A 
HETATM    6  C   UNL     1      43.123 -14.492   4.328  1.00  0.00     0.015 A 
HETATM    7  C   UNL     1      42.811 -13.976   2.968  1.00  0.00     0.169 C 
HETATM    8  N   UNL     1      42.455 -12.545   3.027  1.00  0.00    -0.343 N 
HETATM    9  C   UNL     1      41.542 -11.931   2.174  1.00  0.00     0.254 C 
HETATM   10  O   UNL     1      41.178 -10.764   2.289  1.00  0.00    -0.267 OA
HETATM   11  C   UNL     1      43.165 -11.711   4.016  1.00  0.00     0.132 C 
HETATM   12  C   UNL     1      42.959 -12.216   5.454  1.00  0.00     0.081 C 
ENDROOT
BRANCH   9  13
HETATM   13  C   UNL     1      40.952 -12.715   1.067  1.00  0.00     0.035 A 
HETATM   14  C   UNL     1      40.871 -12.176  -0.224  1.00  0.00     0.056 A 
HETATM   15  C   UNL     1      40.322 -12.975  -1.204  1.00  0.00     0.106 A 
HETATM   16  C   UNL     1      39.845 -14.237  -0.934  1.00  0.00     0.105 A 
HETATM   17  O   UNL     1      40.185 -12.638  -2.515  1.00  0.00    -0.323 OA
HETATM   18  O   UNL     1      39.350 -14.851  -2.042  1.00  0.00    -0.323 OA
HETATM   19  C   UNL     1      39.882 -14.776   0.336  1.00  0.00     0.041 A 
HETATM   20  C   UNL     1      39.574 -13.835  -3.041  1.00  0.00     0.352 A 
HETATM   21  C   UNL     1      40.442 -13.998   1.352  1.00  0.00     0.020 A 
ENDBRANCH   9  13
BRANCH   1  22
HETATM   22  C   UNL     1      43.467 -17.053   4.083  1.00  0.00    -0.007 A 
HETATM   23  C   UNL     1      42.807 -17.245   2.863  1.00  0.00     0.014 A 
HETATM   24  C   UNL     1      42.893 -18.471   2.196  1.00  0.00     0.001 A 
HETATM   25  C   UNL     1      43.640 -19.512   2.744  1.00  0.00     0.000 A 
HETATM   26  C   UNL     1      44.298 -19.331   3.957  1.00  0.00     0.001 A 
HETATM   27  C   UNL     1      44.213 -18.107   4.624  1.00  0.00     0.014 A 
ENDBRANCH   1  22
TORSDOF 2
ENDMDL
MODEL 5
REMARK VINA RESULT:      -9.0      3.071      5.902
REMARK  2 active torsions:
REMARK  status: ('A' for Active; 'I' for Inactive)
REMARK    1  A    between atoms: C_4  and  C_5 
REMARK       I    between atoms: N_12  and  C_13 
REMARK    2  A    between atoms: C_13  and  C_14 
ROOT
HETATM    1  C   UNL     1      41.435 -15.932   2.910  1.00  0.00     0.070 A 
HETATM    2  N   UNL     1      40.738 -16.306   1.786  1.00  0.00    -0.277 N 
HETATM    3  H   UNL     1      40.803 -17.183   1.283  1.00  0.00     0.189 HD
HETATM    4  N   UNL     1      39.863 -15.382   1.343  1.00  0.00    -0.178 NA
HETATM    5  C   UNL     1      40.011 -14.383   2.214  1.00  0.00     0.066 A 
HETATM    6  C   UNL     1      40.970 -14.665   3.212  1.00  0.00     0.015 A 
HETATM    7  C   UNL     1      41.334 -13.721   4.302  1.00  0.00     0.169 C 
HETATM    8  N   UNL     1      40.664 -12.420   4.106  1.00  0.00    -0.343 N 
HETATM    9  C   UNL     1      41.211 -11.196   4.478  1.00  0.00     0.254 C 
HETATM   10  O   UNL     1      40.692 -10.112   4.226  1.00  0.00    -0.267 OA
HETATM   11  C   UNL     1      39.303 -12.440   3.536  1.00  0.00     0.132 C 
HETATM   12  C   UNL     1      39.265 -13.102   2.149  1.00  0.00     0.081 C 
ENDROOT
BRANCH   9  13
HETATM   13  C   UNL     1      42.497 -11.174   5.208  1.00  0.00     0.035 A 
HETATM   14  C   UNL     1      42.542 -10.827   6.564  1.00  0.00     0.056 A 
HETATM   15  C   UNL     1      43.776 -10.845   7.177  1.00  0.00     0.106 A 
HETATM   16  C   UNL     1      44.927 -11.160   6.490  1.00  0.00     0.105 A 
HETATM   17  O   UNL     1      44.014 -10.566   8.487  1.00  0.00    -0.323 OA
HETATM   18  O   UNL     1      46.031 -11.120   7.283  1.00  0.00    -0.323 OA
HETATM   19  C   UNL     1      44.913 -11.471   5.146  1.00  0.00     0.041 A 
HETATM   20  C   UNL     1      45.445 -10.750   8.548  1.00  0.00     0.352 A 
HETATM   21  C   UNL     1      43.677 -11.474   4.495  1.00  0.00     0.020 A 
ENDBRANCH   9  13
BRANCH   1  22
HETATM   22  C   UNL     1      42.422 -16.788   3.559  1.00  0.00    -0.007 A 
HETATM   23  C   UNL     1      42.580 -16.766   4.951  1.00  0.00     0.014 A 
HETATM   24  C   UNL     1      43.521 -17.593   5.569  1.00  0.00     0.001 A 
HETATM   25  C   UNL     1      44.312 -18.446   4.803  1.00  0.00     0.000 A 
HETATM   26  C   UNL     1      44.164 -18.474   3.418  1.00  0.00     0.001 A 
HETATM   27  C   UNL     1      43.223 -17.649   2.799  1.00  0.00     0.014 A 
ENDBRANCH   1  22
TORSDOF 2
ENDMDL
MODEL 6
REMARK VINA RESULT:      -8.7      2.810      6.435
REMARK  2 active torsions:
REMARK  status: ('A' for Active; 'I' for Inactive)
REMARK    1  A    between atoms: C_4  and  C_5 
REMARK       I    between atoms: N_12  and  C_13 
REMARK    2  A    between atoms: C_13  and  C_14 
ROOT
HETATM    1  C   UNL     1      41.760 -12.397   2.262  1.00  0.00     0.070 A 
HETATM    2  N   UNL     1      42.026 -11.052   2.374  1.00  0.00    -0.277 N 
HETATM    3  H   UNL     1      41.813 -10.324   1.702  1.00  0.00     0.189 HD
HETATM    4  N   UNL     1      42.619 -10.698   3.530  1.00  0.00    -0.178 NA
HETATM    5  C   UNL     1      42.738 -11.858   4.177  1.00  0.00     0.066 A 
HETATM    6  C   UNL     1      42.221 -12.949   3.443  1.00  0.00     0.015 A 
HETATM    7  C   UNL     1      42.234 -14.355   3.929  1.00  0.00     0.169 C 
HETATM    8  N   UNL     1      42.979 -14.458   5.199  1.00  0.00    -0.343 N 
HETATM    9  C   UNL     1      43.721 -15.571   5.582  1.00  0.00     0.254 C 
HETATM   10  O   UNL     1      44.416 -15.614   6.594  1.00  0.00    -0.267 OA
HETATM   11  C   UNL     1      42.872 -13.326   6.140  1.00  0.00     0.132 C 
HETATM   12  C   UNL     1      43.357 -12.006   5.517  1.00  0.00     0.081 C 
ENDROOT
BRANCH   9  13
HETATM   13  C   UNL     1      43.697 -16.779   4.729  1.00  0.00     0.035 A 
HETATM   14  C   UNL     1      43.984 -18.039   5.269  1.00  0.00     0.056 A 
HETATM   15  C   UNL     1      43.927 -19.118   4.413  1.00  0.00     0.106 A 
HETATM   16  C   UNL     1      43.630 -18.973   3.077  1.00  0.00     0.105 A 
HETATM   17  O   UNL     1      44.146 -20.416   4.758  1.00  0.00    -0.323 OA
HETATM   18  O   UNL     1      43.624 -20.162   2.416  1.00  0.00    -0.323 OA
HETATM   19  C   UNL     1      43.378 -17.739   2.514  1.00  0.00     0.041 A 
HETATM   20  C   UNL     1      43.944 -21.072   3.488  1.00  0.00     0.352 A 
HETATM   21  C   UNL     1      43.417 -16.624   3.355  1.00  0.00     0.020 A 
ENDBRANCH   9  13
BRANCH   1  22
HETATM   22  C   UNL     1      41.112 -12.988   1.098  1.00  0.00    -0.007 A 
HETATM   23  C   UNL     1      40.972 -12.257  -0.089  1.00  0.00     0.014 A 
HETATM   24  C   UNL     1      40.357 -12.830  -1.205  1.00  0.00     0.001 A 
HETATM   25  C   UNL     1      39.877 -14.137  -1.145  1.00  0.00     0.000 A 
HETATM   26  C   UNL     1      40.010 -14.872   0.031  1.00  0.00     0.001 A 
HETATM   27  C   UNL     1      40.625 -14.300   1.147  1.00  0.00     0.014 A 
ENDBRANCH   1  22
TORSDOF 2
ENDMDL
MODEL 7
REMARK VINA RESULT:      -8.3     14.089     16.105
REMARK  2 active torsions:
REMARK  status: ('A' for Active; 'I' for Inactive)
REMARK    1  A    between atoms: C_4  and  C_5 
REMARK       I    between atoms: N_12  and  C_13 
REMARK    2  A    between atoms: C_13  and  C_14 
ROOT
HETATM    1  C   UNL     1      49.149 -30.794   1.174  1.00  0.00     0.070 A 
HETATM    2  N   UNL     1      49.444 -31.289   2.422  1.00  0.00    -0.277 N 
HETATM    3  H   UNL     1      50.294 -31.757   2.715  1.00  0.00     0.189 HD
HETATM    4  N   UNL     1      48.477 -31.092   3.340  1.00  0.00    -0.178 NA
HETATM    5  C   UNL     1      47.532 -30.453   2.651  1.00  0.00     0.066 A 
HETATM    6  C   UNL     1      47.890 -30.236   1.302  1.00  0.00     0.015 A 
HETATM    7  C   UNL     1      47.016 -29.552   0.312  1.00  0.00     0.169 C 
HETATM    8  N   UNL     1      45.691 -29.268   0.899  1.00  0.00    -0.343 N 
HETATM    9  C   UNL     1      44.502 -29.260   0.177  1.00  0.00     0.254 C 
HETATM   10  O   UNL     1      43.394 -29.119   0.687  1.00  0.00    -0.267 OA
HETATM   11  C   UNL     1      45.648 -28.912   2.331  1.00  0.00     0.132 C 
HETATM   12  C   UNL     1      46.232 -30.021   3.222  1.00  0.00     0.081 C 
ENDROOT
BRANCH   9  13
HETATM   13  C   UNL     1      44.550 -29.444  -1.291  1.00  0.00     0.035 A 
HETATM   14  C   UNL     1      44.308 -30.701  -1.860  1.00  0.00     0.056 A 
HETATM   15  C   UNL     1      44.357 -30.787  -3.234  1.00  0.00     0.106 A 
HETATM   16  C   UNL     1      44.659 -29.700  -4.023  1.00  0.00     0.105 A 
HETATM   17  O   UNL     1      44.123 -31.910  -3.966  1.00  0.00    -0.323 OA
HETATM   18  O   UNL     1      44.651 -30.005  -5.349  1.00  0.00    -0.323 OA
HETATM   19  C   UNL     1      44.936 -28.461  -3.484  1.00  0.00     0.041 A 
HETATM   20  C   UNL     1      44.304 -31.404  -5.306  1.00  0.00     0.352 A 
HETATM   21  C   UNL     1      44.884 -28.334  -2.094  1.00  0.00     0.020 A 
ENDBRANCH   9  13
BRANCH   1  22
HETATM   22  C   UNL     1      50.061 -30.890   0.041  1.00  0.00    -0.007 A 
HETATM   23  C   UNL     1      49.829 -30.152  -1.126  1.00  0.00     0.014 A 
HETATM   24  C   UNL     1      50.710 -30.241  -2.208  1.00  0.00     0.001 A 
HETATM   25  C   UNL     1      51.828 -31.069  -2.131  1.00  0.00     0.000 A 
HETATM   26  C   UNL     1      52.067 -31.809  -0.976  1.00  0.00     0.001 A 
HETATM   27  C   UNL     1      51.187 -31.720   0.106  1.00  0.00     0.014 A 
ENDBRANCH   1  22
TORSDOF 2
ENDMDL
MODEL 8
REMARK VINA RESULT:      -8.2      2.680      5.782
REMARK  2 active torsions:
REMARK  status: ('A' for Active; 'I' for Inactive)
REMARK    1  A    between atoms: C_4  and  C_5 
REMARK       I    between atoms: N_12  and  C_13 
REMARK    2  A    between atoms: C_13  and  C_14 
ROOT
HETATM    1  C   UNL     1      42.045 -11.744   6.423  1.00  0.00     0.070 A 
HETATM    2  N   UNL     1      43.013 -11.400   7.336  1.00  0.00    -0.277 N 
HETATM    3  H   UNL     1      43.076 -10.545   7.876  1.00  0.00     0.189 HD
HETATM    4  N   UNL     1      43.958 -12.342   7.523  1.00  0.00    -0.178 NA
HETATM    5  C   UNL     1      43.580 -13.318   6.697  1.00  0.00     0.066 A 
HETATM    6  C   UNL     1      42.398 -13.008   5.989  1.00  0.00     0.015 A 
HETATM    7  C   UNL     1      41.762 -13.918   4.999  1.00  0.00     0.169 C 
HETATM    8  N   UNL     1      42.609 -15.104   4.767  1.00  0.00    -0.343 N 
HETATM    9  C   UNL     1      42.695 -15.777   3.551  1.00  0.00     0.254 C 
HETATM   10  O   UNL     1      43.473 -16.704   3.337  1.00  0.00    -0.267 OA
HETATM   11  C   UNL     1      43.359 -15.636   5.921  1.00  0.00     0.132 C 
HETATM   12  C   UNL     1      44.317 -14.594   6.520  1.00  0.00     0.081 C 
ENDROOT
BRANCH   9  13
HETATM   13  C   UNL     1      41.819 -15.361   2.435  1.00  0.00     0.035 A 
HETATM   14  C   UNL     1      42.045 -14.153   1.763  1.00  0.00     0.056 A 
HETATM   15  C   UNL     1      41.193 -13.843   0.725  1.00  0.00     0.106 A 
HETATM   16  C   UNL     1      40.145 -14.662   0.372  1.00  0.00     0.105 A 
HETATM   17  O   UNL     1      41.271 -12.733  -0.059  1.00  0.00    -0.323 OA
HETATM   18  O   UNL     1      39.434 -14.170  -0.678  1.00  0.00    -0.323 OA
HETATM   19  C   UNL     1      39.881 -15.839   1.041  1.00  0.00     0.041 A 
HETATM   20  C   UNL     1      40.157 -12.952  -0.950  1.00  0.00     0.352 A 
HETATM   21  C   UNL     1      40.731 -16.191   2.092  1.00  0.00     0.020 A 
ENDBRANCH   9  13
BRANCH   1  22
HETATM   22  C   UNL     1      40.925 -10.874   6.082  1.00  0.00    -0.007 A 
HETATM   23  C   UNL     1      41.144  -9.645   5.445  1.00  0.00     0.014 A 
HETATM   24  C   UNL     1      40.068  -8.818   5.114  1.00  0.00     0.001 A 
HETATM   25  C   UNL     1      38.766  -9.210   5.416  1.00  0.00     0.000 A 
HETATM   26  C   UNL     1      38.537 -10.429   6.051  1.00  0.00     0.001 A 
HETATM   27  C   UNL     1      39.612 -11.257   6.383  1.00  0.00     0.014 A 
ENDBRANCH   1  22
TORSDOF 2
ENDMDL
MODEL 9
REMARK VINA RESULT:      -8.1     15.068     17.763
REMARK  2 active torsions:
REMARK  status: ('A' for Active; 'I' for Inactive)
REMARK    1  A    between atoms: C_4  and  C_5 
REMARK       I    between atoms: N_12  and  C_13 
REMARK    2  A    between atoms: C_13  and  C_14 
ROOT
HETATM    1  C   UNL     1      46.247 -28.975   0.117  1.00  0.00     0.070 A 
HETATM    2  N   UNL     1      45.873 -28.091   1.101  1.00  0.00    -0.277 N 
HETATM    3  H   UNL     1      45.148 -27.384   1.050  1.00  0.00     0.189 HD
HETATM    4  N   UNL     1      46.554 -28.223   2.255  1.00  0.00    -0.178 NA
HETATM    5  C   UNL     1      47.396 -29.224   1.996  1.00  0.00     0.066 A 
HETATM    6  C   UNL     1      47.252 -29.736   0.687  1.00  0.00     0.015 A 
HETATM    7  C   UNL     1      48.070 -30.849   0.137  1.00  0.00     0.169 C 
HETATM    8  N   UNL     1      49.127 -31.236   1.092  1.00  0.00    -0.343 N 
HETATM    9  C   UNL     1      50.381 -31.712   0.720  1.00  0.00     0.254 C 
HETATM   10  O   UNL     1      51.289 -31.940   1.515  1.00  0.00    -0.267 OA
HETATM   11  C   UNL     1      48.799 -31.167   2.530  1.00  0.00     0.132 C 
HETATM   12  C   UNL     1      48.391 -29.749   2.963  1.00  0.00     0.081 C 
ENDROOT
BRANCH   9  13
HETATM   13  C   UNL     1      50.664 -31.950  -0.712  1.00  0.00     0.035 A 
HETATM   14  C   UNL     1      50.272 -33.147  -1.326  1.00  0.00     0.056 A 
HETATM   15  C   UNL     1      50.558 -33.287  -2.667  1.00  0.00     0.106 A 
HETATM   16  C   UNL     1      51.225 -32.314  -3.377  1.00  0.00     0.105 A 
HETATM   17  O   UNL     1      50.233 -34.360  -3.438  1.00  0.00    -0.323 OA
HETATM   18  O   UNL     1      51.401 -32.654  -4.681  1.00  0.00    -0.323 OA
HETATM   19  C   UNL     1      51.653 -31.143  -2.785  1.00  0.00     0.041 A 
HETATM   20  C   UNL     1      50.764 -33.948  -4.715  1.00  0.00     0.352 A 
HETATM   21  C   UNL     1      51.369 -30.962  -1.430  1.00  0.00     0.020 A 
ENDBRANCH   9  13
BRANCH   1  22
HETATM   22  C   UNL     1      45.629 -29.010  -1.203  1.00  0.00    -0.007 A 
HETATM   23  C   UNL     1      45.963 -28.057  -2.173  1.00  0.00     0.014 A 
HETATM   24  C   UNL     1      45.373 -28.098  -3.439  1.00  0.00     0.001 A 
HETATM   25  C   UNL     1      44.445 -29.090  -3.745  1.00  0.00     0.000 A 
HETATM   26  C   UNL     1      44.104 -30.042  -2.787  1.00  0.00     0.001 A 
HETATM   27  C   UNL     1      44.693 -30.002  -1.522  1.00  0.00     0.014 A 
ENDBRANCH   1  22
TORSDOF 2
ENDMDL
MODEL 10
REMARK VINA RESULT:      -8.0     14.487     16.086
REMARK  2 active torsions:
REMARK  status: ('A' for Active; 'I' for Inactive)
REMARK    1  A    between atoms: C_4  and  C_5 
REMARK       I    between atoms: N_12  and  C_13 
REMARK    2  A    between atoms: C_13  and  C_14 
ROOT
HETATM    1  C   UNL     1      47.787 -29.551  -1.445  1.00  0.00     0.070 A 
HETATM    2  N   UNL     1      49.122 -29.738  -1.714  1.00  0.00    -0.277 N 
HETATM    3  H   UNL     1      49.567 -29.782  -2.623  1.00  0.00     0.189 HD
HETATM    4  N   UNL     1      49.898 -29.850  -0.618  1.00  0.00    -0.178 NA
HETATM    5  C   UNL     1      49.026 -29.734   0.383  1.00  0.00     0.066 A 
HETATM    6  C   UNL     1      47.700 -29.544  -0.065  1.00  0.00     0.015 A 
HETATM    7  C   UNL     1      46.531 -29.393   0.843  1.00  0.00     0.169 C 
HETATM    8  N   UNL     1      46.934 -29.610   2.247  1.00  0.00    -0.343 N 
HETATM    9  C   UNL     1      46.111 -30.170   3.219  1.00  0.00     0.254 C 
HETATM   10  O   UNL     1      46.483 -30.436   4.358  1.00  0.00    -0.267 OA
HETATM   11  C   UNL     1      48.277 -29.143   2.645  1.00  0.00     0.132 C 
HETATM   12  C   UNL     1      49.390 -29.808   1.820  1.00  0.00     0.081 C 
ENDROOT
BRANCH   9  13
HETATM   13  C   UNL     1      44.706 -30.483   2.877  1.00  0.00     0.035 A 
HETATM   14  C   UNL     1      44.300 -31.808   2.674  1.00  0.00     0.056 A 
HETATM   15  C   UNL     1      42.972 -32.019   2.373  1.00  0.00     0.106 A 
HETATM   16  C   UNL     1      42.078 -30.979   2.248  1.00  0.00     0.105 A 
HETATM   17  O   UNL     1      42.388 -33.231   2.170  1.00  0.00    -0.323 OA
HETATM   18  O   UNL     1      40.823 -31.409   1.951  1.00  0.00    -0.323 OA
HETATM   19  C   UNL     1      42.462 -29.664   2.409  1.00  0.00     0.041 A 
HETATM   20  C   UNL     1      41.024 -32.836   1.910  1.00  0.00     0.352 A 
HETATM   21  C   UNL     1      43.799 -29.414   2.725  1.00  0.00     0.020 A 
ENDBRANCH   9  13
BRANCH   1  22
HETATM   22  C   UNL     1      46.777 -29.394  -2.485  1.00  0.00    -0.007 A 
HETATM   23  C   UNL     1      46.442 -30.467  -3.321  1.00  0.00     0.014 A 
HETATM   24  C   UNL     1      45.469 -30.315  -4.313  1.00  0.00     0.001 A 
HETATM   25  C   UNL     1      44.825 -29.091  -4.477  1.00  0.00     0.000 A 
HETATM   26  C   UNL     1      45.152 -28.017  -3.653  1.00  0.00     0.001 A 
HETATM   27  C   UNL     1      46.124 -28.168  -2.661  1.00  0.00     0.014 A 
ENDBRANCH   1  22
TORSDOF 2
ENDMDL
