MODEL 1
REMARK VINA RESULT:      -8.7      0.000      0.000
REMARK  5 active torsions:
REMARK  status: ('A' for Active; 'I' for Inactive)
REMARK    1  A    between atoms: O_2  and  C_3 
REMARK    2  A    between atoms: C_4  and  C_5 
REMARK    3  A    between atoms: C_9  and  S_10 
REMARK    4  A    between atoms: S_10  and  C_11 
REMARK    5  A    between atoms: C_11  and  C_12 
REMARK       I    between atoms: C_12  and  N_13 
ROOT
HETATM    1  C   UNL     1      42.066 -15.682   3.122  1.00  0.00     0.185 A 
HETATM    2  N   UNL     1      40.732 -15.618   3.268  1.00  0.00    -0.152 NA
HETATM    3  N   UNL     1      40.460 -14.398   2.783  1.00  0.00    -0.253 N 
HETATM    4  H   UNL     1      39.495 -14.097   2.735  1.00  0.00     0.191 HD
HETATM    5  C   UNL     1      41.589 -13.760   2.378  1.00  0.00     0.185 A 
HETATM    6  N   UNL     1      42.618 -14.550   2.554  1.00  0.00    -0.201 NA
ENDROOT
BRANCH   5   7
HETATM    7  S   UNL     1      41.621 -12.202   1.637  1.00  0.00    -0.081 SA
BRANCH   7   8
HETATM    8  C   UNL     1      41.427 -11.063   3.029  1.00  0.00     0.185 C 
BRANCH   8   9
HETATM    9  C   UNL     1      42.666 -11.083   3.918  1.00  0.00     0.234 C 
HETATM   10  N   UNL     1      42.515 -10.874   5.298  1.00  0.00    -0.317 N 
HETATM   11  C   UNL     1      43.645 -10.819   6.205  1.00  0.00     0.043 A 
HETATM   12  C   UNL     1      41.205 -10.710   5.948  1.00  0.00     0.132 C 
HETATM   13  C   UNL     1      43.492 -10.236   7.485  1.00  0.00    -0.031 A 
HETATM   14  C   UNL     1      44.910 -11.330   5.874  1.00  0.00     0.030 A 
HETATM   15  C   UNL     1      44.583 -10.175   8.376  1.00  0.00     0.009 A 
HETATM   16  C   UNL     1      42.178  -9.677   7.967  1.00  0.00     0.042 C 
HETATM   17  C   UNL     1      45.827 -10.677   8.012  1.00  0.00     0.001 A 
HETATM   18  C   UNL     1      45.988 -11.258   6.763  1.00  0.00     0.002 A 
HETATM   19  C   UNL     1      41.190  -9.479   6.834  1.00  0.00     0.025 C 
HETATM   20  O   UNL     1      43.749 -11.219   3.338  1.00  0.00    -0.272 OA
ENDBRANCH   8   9
ENDBRANCH   7   8
ENDBRANCH   5   7
BRANCH   1  21
HETATM   21  C   UNL     1      42.861 -16.876   3.386  1.00  0.00     0.048 A 
HETATM   22  C   UNL     1      43.627 -17.039   4.553  1.00  0.00     0.082 A 
HETATM   23  C   UNL     1      44.341 -18.226   4.767  1.00  0.00     0.039 A 
HETATM   24  C   UNL     1      44.271 -19.266   3.837  1.00  0.00     0.026 A 
HETATM   25  C   UNL     1      43.511 -19.107   2.681  1.00  0.00     0.035 A 
HETATM   26  C   UNL     1      42.817 -17.922   2.448  1.00  0.00     0.042 A 
HETATM   27 CL   UNL     1      43.430 -20.388   1.535  1.00  0.00    -0.084 Cl
BRANCH  22  28
HETATM   28  O   UNL     1      43.756 -15.986   5.425  1.00  0.00    -0.355 OA
HETATM   29  C   UNL     1      44.340 -16.360   6.672  1.00  0.00     0.210 C 
ENDBRANCH  22  28
ENDBRANCH   1  21
TORSDOF 5
ENDMDL
MODEL 2
REMARK VINA RESULT:      -8.5      2.211      3.352
REMARK  5 active torsions:
REMARK  status: ('A' for Active; 'I' for Inactive)
REMARK    1  A    between atoms: O_2  and  C_3 
REMARK    2  A    between atoms: C_4  and  C_5 
REMARK    3  A    between atoms: C_9  and  S_10 
REMARK    4  A    between atoms: S_10  and  C_11 
REMARK    5  A    between atoms: C_11  and  C_12 
REMARK       I    between atoms: C_12  and  N_13 
ROOT
HETATM    1  C   UNL     1      41.335 -15.997   2.479  1.00  0.00     0.185 A 
HETATM    2  N   UNL     1      40.114 -15.880   3.028  1.00  0.00    -0.152 NA
HETATM    3  N   UNL     1      39.484 -15.102   2.135  1.00  0.00    -0.253 N 
HETATM    4  H   UNL     1      38.508 -14.883   2.284  1.00  0.00     0.191 HD
HETATM    5  C   UNL     1      40.303 -14.761   1.106  1.00  0.00     0.185 A 
HETATM    6  N   UNL     1      41.471 -15.328   1.278  1.00  0.00    -0.201 NA
ENDROOT
BRANCH   5   7
HETATM    7  S   UNL     1      39.821 -13.827  -0.262  1.00  0.00    -0.081 SA
BRANCH   7   8
HETATM    8  C   UNL     1      40.288 -12.139   0.188  1.00  0.00     0.185 C 
BRANCH   8   9
HETATM    9  C   UNL     1      39.834 -11.814   1.606  1.00  0.00     0.234 C 
HETATM   10  N   UNL     1      40.800 -11.487   2.571  1.00  0.00    -0.317 N 
HETATM   11  C   UNL     1      40.460 -11.222   3.955  1.00  0.00     0.043 A 
HETATM   12  C   UNL     1      42.235 -11.368   2.264  1.00  0.00     0.132 C 
HETATM   13  C   UNL     1      41.464 -11.278   4.950  1.00  0.00    -0.031 A 
HETATM   14  C   UNL     1      39.158 -10.898   4.369  1.00  0.00     0.030 A 
HETATM   15  C   UNL     1      41.146 -11.024   6.300  1.00  0.00     0.009 A 
HETATM   16  C   UNL     1      42.904 -11.589   4.629  1.00  0.00     0.042 C 
HETATM   17  C   UNL     1      39.844 -10.721   6.679  1.00  0.00     0.001 A 
HETATM   18  C   UNL     1      38.852 -10.655   5.712  1.00  0.00     0.002 A 
HETATM   19  C   UNL     1      43.067 -12.176   3.241  1.00  0.00     0.025 C 
HETATM   20  O   UNL     1      38.624 -11.928   1.829  1.00  0.00    -0.272 OA
ENDBRANCH   8   9
ENDBRANCH   7   8
ENDBRANCH   5   7
BRANCH   1  21
HETATM   21  C   UNL     1      42.386 -16.864   3.001  1.00  0.00     0.048 A 
HETATM   22  C   UNL     1      43.097 -16.575   4.178  1.00  0.00     0.082 A 
HETATM   23  C   UNL     1      44.071 -17.467   4.648  1.00  0.00     0.039 A 
HETATM   24  C   UNL     1      44.319 -18.660   3.968  1.00  0.00     0.026 A 
HETATM   25  C   UNL     1      43.615 -18.949   2.802  1.00  0.00     0.035 A 
HETATM   26  C   UNL     1      42.662 -18.059   2.313  1.00  0.00     0.042 A 
HETATM   27 CL   UNL     1      43.926 -20.419   1.963  1.00  0.00    -0.084 Cl
BRANCH  22  28
HETATM   28  O   UNL     1      42.906 -15.367   4.800  1.00  0.00    -0.355 OA
HETATM   29  C   UNL     1      43.559 -15.279   6.065  1.00  0.00     0.210 C 
ENDBRANCH  22  28
ENDBRANCH   1  21
TORSDOF 5
ENDMDL
MODEL 3
REMARK VINA RESULT:      -8.5      1.451      1.918
REMARK  5 active torsions:
REMARK  status: ('A' for Active; 'I' for Inactive)
REMARK    1  A    between atoms: O_2  and  C_3 
REMARK    2  A    between atoms: C_4  and  C_5 
REMARK    3  A    between atoms: C_9  and  S_10 
REMARK    4  A    between atoms: S_10  and  C_11 
REMARK    5  A    between atoms: C_11  and  C_12 
REMARK       I    between atoms: C_12  and  N_13 
ROOT
HETATM    1  C   UNL     1      41.342 -15.867   2.564  1.00  0.00     0.185 A 
HETATM    2  N   UNL     1      40.065 -15.929   2.977  1.00  0.00    -0.152 NA
HETATM    3  N   UNL     1      39.484 -14.988   2.219  1.00  0.00    -0.253 N 
HETATM    4  H   UNL     1      38.485 -14.848   2.297  1.00  0.00     0.191 HD
HETATM    5  C   UNL     1      40.383 -14.383   1.399  1.00  0.00     0.185 A 
HETATM    6  N   UNL     1      41.561 -14.929   1.573  1.00  0.00    -0.201 NA
ENDROOT
BRANCH   5   7
HETATM    7  S   UNL     1      39.988 -13.174   0.234  1.00  0.00    -0.081 SA
BRANCH   7   8
HETATM    8  C   UNL     1      39.924 -11.650   1.206  1.00  0.00     0.185 C 
BRANCH   8   9
HETATM    9  C   UNL     1      41.132 -11.550   2.131  1.00  0.00     0.234 C 
HETATM   10  N   UNL     1      40.939 -11.660   3.517  1.00  0.00    -0.317 N 
HETATM   11  C   UNL     1      42.023 -11.518   4.468  1.00  0.00     0.043 A 
HETATM   12  C   UNL     1      39.629 -11.945   4.126  1.00  0.00     0.132 C 
HETATM   13  C   UNL     1      41.737 -11.254   5.828  1.00  0.00    -0.031 A 
HETATM   14  C   UNL     1      43.374 -11.637   4.104  1.00  0.00     0.030 A 
HETATM   15  C   UNL     1      42.782 -11.112   6.763  1.00  0.00     0.009 A 
HETATM   16  C   UNL     1      40.327 -11.131   6.348  1.00  0.00     0.042 C 
HETATM   17  C   UNL     1      44.109 -11.221   6.368  1.00  0.00     0.001 A 
HETATM   18  C   UNL     1      44.404 -11.487   5.039  1.00  0.00     0.002 A 
HETATM   19  C   UNL     1      39.318 -10.953   5.231  1.00  0.00     0.025 C 
HETATM   20  O   UNL     1      42.215 -11.306   1.586  1.00  0.00    -0.272 OA
ENDBRANCH   8   9
ENDBRANCH   7   8
ENDBRANCH   5   7
BRANCH   1  21
HETATM   21  C   UNL     1      42.386 -16.790   2.994  1.00  0.00     0.048 A 
HETATM   22  C   UNL     1      43.194 -16.556   4.120  1.00  0.00     0.082 A 
HETATM   23  C   UNL     1      44.157 -17.501   4.503  1.00  0.00     0.039 A 
HETATM   24  C   UNL     1      44.298 -18.691   3.789  1.00  0.00     0.026 A 
HETATM   25  C   UNL     1      43.497 -18.926   2.674  1.00  0.00     0.035 A 
HETATM   26  C   UNL     1      42.554 -17.983   2.270  1.00  0.00     0.042 A 
HETATM   27 CL   UNL     1      43.677 -20.392   1.792  1.00  0.00    -0.084 Cl
BRANCH  22  28
HETATM   28  O   UNL     1      43.107 -15.352   4.773  1.00  0.00    -0.355 OA
HETATM   29  C   UNL     1      43.433 -15.441   6.158  1.00  0.00     0.210 C 
ENDBRANCH  22  28
ENDBRANCH   1  21
TORSDOF 5
ENDMDL
MODEL 4
REMARK VINA RESULT:      -8.5      1.570      2.529
REMARK  5 active torsions:
REMARK  status: ('A' for Active; 'I' for Inactive)
REMARK    1  A    between atoms: O_2  and  C_3 
REMARK    2  A    between atoms: C_4  and  C_5 
REMARK    3  A    between atoms: C_9  and  S_10 
REMARK    4  A    between atoms: S_10  and  C_11 
REMARK    5  A    between atoms: C_11  and  C_12 
REMARK       I    between atoms: C_12  and  N_13 
ROOT
HETATM    1  C   UNL     1      42.744 -15.878   3.737  1.00  0.00     0.185 A 
HETATM    2  N   UNL     1      43.270 -14.879   3.010  1.00  0.00    -0.152 NA
HETATM    3  N   UNL     1      42.524 -13.834   3.397  1.00  0.00    -0.253 N 
HETATM    4  H   UNL     1      42.738 -12.918   3.025  1.00  0.00     0.191 HD
HETATM    5  C   UNL     1      41.585 -14.202   4.307  1.00  0.00     0.185 A 
HETATM    6  N   UNL     1      41.710 -15.481   4.563  1.00  0.00    -0.201 NA
ENDROOT
BRANCH   5   7
HETATM    7  S   UNL     1      40.491 -13.116   5.080  1.00  0.00    -0.081 SA
BRANCH   7   8
HETATM    8  C   UNL     1      41.238 -11.492   4.808  1.00  0.00     0.185 C 
BRANCH   8   9
HETATM    9  C   UNL     1      41.573 -10.823   6.137  1.00  0.00     0.234 C 
HETATM   10  N   UNL     1      42.919 -10.708   6.520  1.00  0.00    -0.317 N 
HETATM   11  C   UNL     1      43.320 -10.139   7.792  1.00  0.00     0.043 A 
HETATM   12  C   UNL     1      44.038 -11.134   5.664  1.00  0.00     0.132 C 
HETATM   13  C   UNL     1      44.618 -10.387   8.296  1.00  0.00    -0.031 A 
HETATM   14  C   UNL     1      42.471  -9.331   8.565  1.00  0.00     0.030 A 
HETATM   15  C   UNL     1      45.021  -9.842   9.531  1.00  0.00     0.009 A 
HETATM   16  C   UNL     1      45.631 -11.216   7.547  1.00  0.00     0.042 C 
HETATM   17  C   UNL     1      44.151  -9.059  10.280  1.00  0.00     0.001 A 
HETATM   18  C   UNL     1      42.878  -8.801   9.794  1.00  0.00     0.002 A 
HETATM   19  C   UNL     1      44.997 -12.024   6.431  1.00  0.00     0.025 C 
HETATM   20  O   UNL     1      40.609 -10.481   6.831  1.00  0.00    -0.272 OA
ENDBRANCH   8   9
ENDBRANCH   7   8
ENDBRANCH   5   7
BRANCH   1  21
HETATM   21  C   UNL     1      43.289 -17.230   3.783  1.00  0.00     0.048 A 
HETATM   22  C   UNL     1      43.972 -17.738   4.902  1.00  0.00     0.082 A 
HETATM   23  C   UNL     1      44.441 -19.060   4.900  1.00  0.00     0.039 A 
HETATM   24  C   UNL     1      44.206 -19.888   3.801  1.00  0.00     0.026 A 
HETATM   25  C   UNL     1      43.528 -19.387   2.692  1.00  0.00     0.035 A 
HETATM   26  C   UNL     1      43.079 -18.068   2.675  1.00  0.00     0.042 A 
HETATM   27 CL   UNL     1      43.244 -20.408   1.337  1.00  0.00    -0.084 Cl
BRANCH  22  28
HETATM   28  O   UNL     1      44.270 -16.899   5.947  1.00  0.00    -0.355 OA
HETATM   29  C   UNL     1      43.556 -17.216   7.140  1.00  0.00     0.210 C 
ENDBRANCH  22  28
ENDBRANCH   1  21
TORSDOF 5
ENDMDL
MODEL 5
REMARK VINA RESULT:      -8.4      3.624      6.412
REMARK  5 active torsions:
REMARK  status: ('A' for Active; 'I' for Inactive)
REMARK    1  A    between atoms: O_2  and  C_3 
REMARK    2  A    between atoms: C_4  and  C_5 
REMARK    3  A    between atoms: C_9  and  S_10 
REMARK    4  A    between atoms: S_10  and  C_11 
REMARK    5  A    between atoms: C_11  and  C_12 
REMARK       I    between atoms: C_12  and  N_13 
ROOT
HETATM    1  C   UNL     1      41.625 -15.899   3.600  1.00  0.00     0.185 A 
HETATM    2  N   UNL     1      40.324 -16.080   3.323  1.00  0.00    -0.152 NA
HETATM    3  N   UNL     1      39.894 -14.818   3.178  1.00  0.00    -0.253 N 
HETATM    4  H   UNL     1      38.930 -14.658   2.918  1.00  0.00     0.191 HD
HETATM    5  C   UNL     1      40.899 -13.925   3.374  1.00  0.00     0.185 A 
HETATM    6  N   UNL     1      42.011 -14.572   3.618  1.00  0.00    -0.201 NA
ENDROOT
BRANCH   5   7
HETATM    7  S   UNL     1      40.738 -12.216   3.202  1.00  0.00    -0.081 SA
BRANCH   7   8
HETATM    8  C   UNL     1      41.513 -11.873   1.604  1.00  0.00     0.185 C 
BRANCH   8   9
HETATM    9  C   UNL     1      40.905 -12.746   0.512  1.00  0.00     0.234 C 
HETATM   10  N   UNL     1      39.881 -12.218  -0.290  1.00  0.00    -0.317 N 
HETATM   11  C   UNL     1      39.210 -12.999  -1.310  1.00  0.00     0.043 A 
HETATM   12  C   UNL     1      39.409 -10.828  -0.180  1.00  0.00     0.132 C 
HETATM   13  C   UNL     1      37.960 -12.572  -1.815  1.00  0.00    -0.031 A 
HETATM   14  C   UNL     1      39.751 -14.181  -1.840  1.00  0.00     0.030 A 
HETATM   15  C   UNL     1      37.296 -13.323  -2.806  1.00  0.00     0.009 A 
HETATM   16  C   UNL     1      37.288 -11.306  -1.346  1.00  0.00     0.042 C 
HETATM   17  C   UNL     1      37.851 -14.497  -3.300  1.00  0.00     0.001 A 
HETATM   18  C   UNL     1      39.080 -14.923  -2.819  1.00  0.00     0.002 A 
HETATM   19  C   UNL     1      37.898 -10.776  -0.063  1.00  0.00     0.025 C 
HETATM   20  O   UNL     1      41.322 -13.908   0.451  1.00  0.00    -0.272 OA
ENDBRANCH   8   9
ENDBRANCH   7   8
ENDBRANCH   5   7
BRANCH   1  21
HETATM   21  C   UNL     1      42.594 -16.983   3.723  1.00  0.00     0.048 A 
HETATM   22  C   UNL     1      43.424 -17.139   4.846  1.00  0.00     0.082 A 
HETATM   23  C   UNL     1      44.309 -18.224   4.922  1.00  0.00     0.039 A 
HETATM   24  C   UNL     1      44.349 -19.171   3.898  1.00  0.00     0.026 A 
HETATM   25  C   UNL     1      43.526 -19.020   2.785  1.00  0.00     0.035 A 
HETATM   26  C   UNL     1      42.660 -17.933   2.689  1.00  0.00     0.042 A 
HETATM   27 CL   UNL     1      43.581 -20.187   1.522  1.00  0.00    -0.084 Cl
BRANCH  22  28
HETATM   28  O   UNL     1      43.439 -16.164   5.813  1.00  0.00    -0.355 OA
HETATM   29  C   UNL     1      43.033 -16.641   7.095  1.00  0.00     0.210 C 
ENDBRANCH  22  28
ENDBRANCH   1  21
TORSDOF 5
ENDMDL
MODEL 6
REMARK VINA RESULT:      -8.3      4.282      9.203
REMARK  5 active torsions:
REMARK  status: ('A' for Active; 'I' for Inactive)
REMARK    1  A    between atoms: O_2  and  C_3 
REMARK    2  A    between atoms: C_4  and  C_5 
REMARK    3  A    between atoms: C_9  and  S_10 
REMARK    4  A    between atoms: S_10  and  C_11 
REMARK    5  A    between atoms: C_11  and  C_12 
REMARK       I    between atoms: C_12  and  N_13 
ROOT
HETATM    1  C   UNL     1      44.398  -9.887   9.091  1.00  0.00     0.185 A 
HETATM    2  N   UNL     1      45.729 -10.020   8.968  1.00  0.00    -0.152 NA
HETATM    3  N   UNL     1      45.827 -10.838   7.909  1.00  0.00    -0.253 N 
HETATM    4  H   UNL     1      46.746 -11.078   7.563  1.00  0.00     0.191 HD
HETATM    5  C   UNL     1      44.603 -11.186   7.434  1.00  0.00     0.185 A 
HETATM    6  N   UNL     1      43.678 -10.585   8.140  1.00  0.00    -0.201 NA
ENDROOT
BRANCH   5   7
HETATM    7  S   UNL     1      44.336 -12.169   6.042  1.00  0.00    -0.081 SA
BRANCH   7   8
HETATM    8  C   UNL     1      43.103 -13.370   6.597  1.00  0.00     0.185 C 
BRANCH   8   9
HETATM    9  C   UNL     1      43.437 -14.764   6.078  1.00  0.00     0.234 C 
HETATM   10  N   UNL     1      43.117 -15.090   4.750  1.00  0.00    -0.317 N 
HETATM   11  C   UNL     1      43.347 -16.410   4.196  1.00  0.00     0.043 A 
HETATM   12  C   UNL     1      42.540 -14.124   3.802  1.00  0.00     0.132 C 
HETATM   13  C   UNL     1      42.676 -16.803   3.014  1.00  0.00    -0.031 A 
HETATM   14  C   UNL     1      44.225 -17.337   4.780  1.00  0.00     0.030 A 
HETATM   15  C   UNL     1      42.889 -18.084   2.465  1.00  0.00     0.009 A 
HETATM   16  C   UNL     1      41.729 -15.889   2.279  1.00  0.00     0.042 C 
HETATM   17  C   UNL     1      43.754 -18.984   3.076  1.00  0.00     0.001 A 
HETATM   18  C   UNL     1      44.424 -18.608   4.230  1.00  0.00     0.002 A 
HETATM   19  C   UNL     1      41.312 -14.700   3.122  1.00  0.00     0.025 C 
HETATM   20  O   UNL     1      43.917 -15.550   6.903  1.00  0.00    -0.272 OA
ENDBRANCH   8   9
ENDBRANCH   7   8
ENDBRANCH   5   7
BRANCH   1  21
HETATM   21  C   UNL     1      43.751  -8.980  10.032  1.00  0.00     0.048 A 
HETATM   22  C   UNL     1      43.322  -7.689   9.675  1.00  0.00     0.082 A 
HETATM   23  C   UNL     1      42.672  -6.878  10.616  1.00  0.00     0.039 A 
HETATM   24  C   UNL     1      42.420  -7.357  11.903  1.00  0.00     0.026 A 
HETATM   25  C   UNL     1      42.843  -8.635  12.258  1.00  0.00     0.035 A 
HETATM   26  C   UNL     1      43.510  -9.441  11.338  1.00  0.00     0.042 A 
HETATM   27 CL   UNL     1      42.535  -9.221  13.847  1.00  0.00    -0.084 Cl
BRANCH  22  28
HETATM   28  O   UNL     1      43.640  -7.194   8.435  1.00  0.00    -0.355 OA
HETATM   29  C   UNL     1      42.498  -6.964   7.613  1.00  0.00     0.210 C 
ENDBRANCH  22  28
ENDBRANCH   1  21
TORSDOF 5
ENDMDL
MODEL 7
REMARK VINA RESULT:      -8.3      4.510      9.341
REMARK  5 active torsions:
REMARK  status: ('A' for Active; 'I' for Inactive)
REMARK    1  A    between atoms: O_2  and  C_3 
REMARK    2  A    between atoms: C_4  and  C_5 
REMARK    3  A    between atoms: C_9  and  S_10 
REMARK    4  A    between atoms: S_10  and  C_11 
REMARK    5  A    between atoms: C_11  and  C_12 
REMARK       I    between atoms: C_12  and  N_13 
ROOT
HETATM    1  C   UNL     1      44.537  -9.388   9.326  1.00  0.00     0.185 A 
HETATM    2  N   UNL     1      45.879  -9.439   9.309  1.00  0.00    -0.152 NA
HETATM    3  N   UNL     1      46.111 -10.254   8.269  1.00  0.00    -0.253 N 
HETATM    4  H   UNL     1      47.068 -10.438   7.999  1.00  0.00     0.191 HD
HETATM    5  C   UNL     1      44.952 -10.678   7.701  1.00  0.00     0.185 A 
HETATM    6  N   UNL     1      43.939 -10.132   8.327  1.00  0.00    -0.201 NA
ENDROOT
BRANCH   5   7
HETATM    7  S   UNL     1      44.858 -11.680   6.300  1.00  0.00    -0.081 SA
BRANCH   7   8
HETATM    8  C   UNL     1      43.176 -12.344   6.363  1.00  0.00     0.185 C 
BRANCH   8   9
HETATM    9  C   UNL     1      42.932 -13.302   5.202  1.00  0.00     0.234 C 
HETATM   10  N   UNL     1      43.128 -14.678   5.404  1.00  0.00    -0.317 N 
HETATM   11  C   UNL     1      42.974 -15.650   4.340  1.00  0.00     0.043 A 
HETATM   12  C   UNL     1      43.488 -15.256   6.709  1.00  0.00     0.132 C 
HETATM   13  C   UNL     1      43.542 -16.939   4.477  1.00  0.00    -0.031 A 
HETATM   14  C   UNL     1      42.271 -15.376   3.156  1.00  0.00     0.030 A 
HETATM   15  C   UNL     1      43.401 -17.893   3.449  1.00  0.00     0.009 A 
HETATM   16  C   UNL     1      44.297 -17.363   5.711  1.00  0.00     0.042 C 
HETATM   17  C   UNL     1      42.712 -17.585   2.282  1.00  0.00     0.001 A 
HETATM   18  C   UNL     1      42.144 -16.328   2.139  1.00  0.00     0.002 A 
HETATM   19  C   UNL     1      44.682 -16.182   6.580  1.00  0.00     0.025 C 
HETATM   20  O   UNL     1      42.635 -12.782   4.121  1.00  0.00    -0.272 OA
ENDBRANCH   8   9
ENDBRANCH   7   8
ENDBRANCH   5   7
BRANCH   1  21
HETATM   21  C   UNL     1      43.763  -8.519  10.205  1.00  0.00     0.048 A 
HETATM   22  C   UNL     1      43.153  -7.333   9.760  1.00  0.00     0.082 A 
HETATM   23  C   UNL     1      42.390  -6.559  10.646  1.00  0.00     0.039 A 
HETATM   24  C   UNL     1      42.206  -6.976  11.966  1.00  0.00     0.026 A 
HETATM   25  C   UNL     1      42.808  -8.151  12.408  1.00  0.00     0.035 A 
HETATM   26  C   UNL     1      43.587  -8.915  11.542  1.00  0.00     0.042 A 
HETATM   27 CL   UNL     1      42.583  -8.661  14.036  1.00  0.00    -0.084 Cl
BRANCH  22  28
HETATM   28  O   UNL     1      43.401  -6.886   8.486  1.00  0.00    -0.355 OA
HETATM   29  C   UNL     1      42.217  -6.737   7.705  1.00  0.00     0.210 C 
ENDBRANCH  22  28
ENDBRANCH   1  21
TORSDOF 5
ENDMDL
MODEL 8
REMARK VINA RESULT:      -8.3      3.527      7.415
REMARK  5 active torsions:
REMARK  status: ('A' for Active; 'I' for Inactive)
REMARK    1  A    between atoms: O_2  and  C_3 
REMARK    2  A    between atoms: C_4  and  C_5 
REMARK    3  A    between atoms: C_9  and  S_10 
REMARK    4  A    between atoms: S_10  and  C_11 
REMARK    5  A    between atoms: C_11  and  C_12 
REMARK       I    between atoms: C_12  and  N_13 
ROOT
HETATM    1  C   UNL     1      39.979 -12.392   2.555  1.00  0.00     0.185 A 
HETATM    2  N   UNL     1      41.044 -11.647   2.892  1.00  0.00    -0.152 NA
HETATM    3  N   UNL     1      41.315 -12.096   4.127  1.00  0.00    -0.253 N 
HETATM    4  H   UNL     1      42.118 -11.723   4.615  1.00  0.00     0.191 HD
HETATM    5  C   UNL     1      40.437 -13.059   4.510  1.00  0.00     0.185 A 
HETATM    6  N   UNL     1      39.595 -13.289   3.533  1.00  0.00    -0.201 NA
ENDROOT
BRANCH   5   7
HETATM    7  S   UNL     1      40.515 -13.916   6.005  1.00  0.00    -0.081 SA
BRANCH   7   8
HETATM    8  C   UNL     1      42.288 -14.152   6.270  1.00  0.00     0.185 C 
BRANCH   8   9
HETATM    9  C   UNL     1      42.680 -15.607   6.036  1.00  0.00     0.234 C 
HETATM   10  N   UNL     1      43.057 -16.010   4.746  1.00  0.00    -0.317 N 
HETATM   11  C   UNL     1      43.388 -17.385   4.425  1.00  0.00     0.043 A 
HETATM   12  C   UNL     1      43.169 -15.077   3.612  1.00  0.00     0.132 C 
HETATM   13  C   UNL     1      43.384 -17.814   3.077  1.00  0.00    -0.031 A 
HETATM   14  C   UNL     1      43.724 -18.333   5.404  1.00  0.00     0.030 A 
HETATM   15  C   UNL     1      43.702 -19.148   2.752  1.00  0.00     0.009 A 
HETATM   16  C   UNL     1      43.066 -16.884   1.934  1.00  0.00     0.042 C 
HETATM   17  C   UNL     1      44.016 -20.067   3.746  1.00  0.00     0.001 A 
HETATM   18  C   UNL     1      44.031 -19.657   5.071  1.00  0.00     0.002 A 
HETATM   19  C   UNL     1      42.413 -15.599   2.405  1.00  0.00     0.025 C 
HETATM   20  O   UNL     1      42.570 -16.362   7.009  1.00  0.00    -0.272 OA
ENDBRANCH   8   9
ENDBRANCH   7   8
ENDBRANCH   5   7
BRANCH   1  21
HETATM   21  C   UNL     1      39.361 -12.385   1.233  1.00  0.00     0.048 A 
HETATM   22  C   UNL     1      38.271 -11.561   0.906  1.00  0.00     0.082 A 
HETATM   23  C   UNL     1      37.745 -11.572  -0.393  1.00  0.00     0.039 A 
HETATM   24  C   UNL     1      38.318 -12.379  -1.377  1.00  0.00     0.026 A 
HETATM   25  C   UNL     1      39.400 -13.195  -1.056  1.00  0.00     0.035 A 
HETATM   26  C   UNL     1      39.915 -13.209   0.238  1.00  0.00     0.042 A 
HETATM   27 CL   UNL     1      40.103 -14.192  -2.270  1.00  0.00    -0.084 Cl
BRANCH  22  28
HETATM   28  O   UNL     1      37.660 -10.829   1.894  1.00  0.00    -0.355 OA
HETATM   29  C   UNL     1      37.547  -9.443   1.576  1.00  0.00     0.210 C 
ENDBRANCH  22  28
ENDBRANCH   1  21
TORSDOF 5
ENDMDL
MODEL 9
REMARK VINA RESULT:      -8.3      3.798      6.832
REMARK  5 active torsions:
REMARK  status: ('A' for Active; 'I' for Inactive)
REMARK    1  A    between atoms: O_2  and  C_3 
REMARK    2  A    between atoms: C_4  and  C_5 
REMARK    3  A    between atoms: C_9  and  S_10 
REMARK    4  A    between atoms: S_10  and  C_11 
REMARK    5  A    between atoms: C_11  and  C_12 
REMARK       I    between atoms: C_12  and  N_13 
ROOT
HETATM    1  C   UNL     1      39.625 -12.354   1.476  1.00  0.00     0.185 A 
HETATM    2  N   UNL     1      40.493 -11.346   1.663  1.00  0.00    -0.152 NA
HETATM    3  N   UNL     1      40.632 -11.346   2.997  1.00  0.00    -0.253 N 
HETATM    4  H   UNL     1      41.280 -10.694   3.419  1.00  0.00     0.191 HD
HETATM    5  C   UNL     1      39.867 -12.307   3.577  1.00  0.00     0.185 A 
HETATM    6  N   UNL     1      39.237 -12.978   2.646  1.00  0.00    -0.201 NA
ENDROOT
BRANCH   5   7
HETATM    7  S   UNL     1      39.841 -12.650   5.268  1.00  0.00    -0.081 SA
BRANCH   7   8
HETATM    8  C   UNL     1      41.576 -12.971   5.665  1.00  0.00     0.185 C 
BRANCH   8   9
HETATM    9  C   UNL     1      42.121 -14.115   4.816  1.00  0.00     0.234 C 
HETATM   10  N   UNL     1      42.329 -15.367   5.415  1.00  0.00    -0.317 N 
HETATM   11  C   UNL     1      42.898 -16.490   4.695  1.00  0.00     0.043 A 
HETATM   12  C   UNL     1      41.976 -15.658   6.814  1.00  0.00     0.132 C 
HETATM   13  C   UNL     1      43.438 -17.584   5.411  1.00  0.00    -0.031 A 
HETATM   14  C   UNL     1      42.935 -16.553   3.293  1.00  0.00     0.030 A 
HETATM   15  C   UNL     1      43.996 -18.681   4.723  1.00  0.00     0.009 A 
HETATM   16  C   UNL     1      43.433 -17.647   6.917  1.00  0.00     0.042 C 
HETATM   17  C   UNL     1      44.032 -18.706   3.334  1.00  0.00     0.001 A 
HETATM   18  C   UNL     1      43.498 -17.643   2.620  1.00  0.00     0.002 A 
HETATM   19  C   UNL     1      43.140 -16.298   7.545  1.00  0.00     0.025 C 
HETATM   20  O   UNL     1      42.410 -13.834   3.647  1.00  0.00    -0.272 OA
ENDBRANCH   8   9
ENDBRANCH   7   8
ENDBRANCH   5   7
BRANCH   1  21
HETATM   21  C   UNL     1      39.231 -12.860   0.166  1.00  0.00     0.048 A 
HETATM   22  C   UNL     1      39.652 -14.108  -0.327  1.00  0.00     0.082 A 
HETATM   23  C   UNL     1      39.209 -14.555  -1.579  1.00  0.00     0.039 A 
HETATM   24  C   UNL     1      38.323 -13.781  -2.330  1.00  0.00     0.026 A 
HETATM   25  C   UNL     1      37.903 -12.546  -1.843  1.00  0.00     0.035 A 
HETATM   26  C   UNL     1      38.356 -12.081  -0.610  1.00  0.00     0.042 A 
HETATM   27 CL   UNL     1      36.814 -11.591  -2.772  1.00  0.00    -0.084 Cl
BRANCH  22  28
HETATM   28  O   UNL     1      40.583 -14.830   0.378  1.00  0.00    -0.355 OA
HETATM   29  C   UNL     1      40.016 -15.920   1.102  1.00  0.00     0.210 C 
ENDBRANCH  22  28
ENDBRANCH   1  21
TORSDOF 5
ENDMDL
MODEL 10
REMARK VINA RESULT:      -8.2      4.766      8.419
REMARK  5 active torsions:
REMARK  status: ('A' for Active; 'I' for Inactive)
REMARK    1  A    between atoms: O_2  and  C_3 
REMARK    2  A    between atoms: C_4  and  C_5 
REMARK    3  A    between atoms: C_9  and  S_10 
REMARK    4  A    between atoms: S_10  and  C_11 
REMARK    5  A    between atoms: C_11  and  C_12 
REMARK       I    between atoms: C_12  and  N_13 
ROOT
HETATM    1  C   UNL     1      39.765 -13.027  -0.526  1.00  0.00     0.185 A 
HETATM    2  N   UNL     1      39.832 -14.346  -0.772  1.00  0.00    -0.152 NA
HETATM    3  N   UNL     1      40.255 -14.826   0.407  1.00  0.00    -0.253 N 
HETATM    4  H   UNL     1      40.355 -15.826   0.519  1.00  0.00     0.191 HD
HETATM    5  C   UNL     1      40.443 -13.829   1.311  1.00  0.00     0.185 A 
HETATM    6  N   UNL     1      40.121 -12.683   0.764  1.00  0.00    -0.201 NA
ENDROOT
BRANCH   5   7
HETATM    7  S   UNL     1      40.916 -14.071   2.952  1.00  0.00    -0.081 SA
BRANCH   7   8
HETATM    8  C   UNL     1      42.689 -14.409   2.841  1.00  0.00     0.185 C 
BRANCH   8   9
HETATM    9  C   UNL     1      42.939 -15.884   2.548  1.00  0.00     0.234 C 
HETATM   10  N   UNL     1      43.033 -16.784   3.621  1.00  0.00    -0.317 N 
HETATM   11  C   UNL     1      43.326 -18.191   3.434  1.00  0.00     0.043 A 
HETATM   12  C   UNL     1      42.825 -16.387   5.024  1.00  0.00     0.132 C 
HETATM   13  C   UNL     1      43.785 -18.966   4.525  1.00  0.00    -0.031 A 
HETATM   14  C   UNL     1      43.171 -18.842   2.200  1.00  0.00     0.030 A 
HETATM   15  C   UNL     1      44.076 -20.335   4.357  1.00  0.00     0.009 A 
HETATM   16  C   UNL     1      43.967 -18.389   5.907  1.00  0.00     0.042 C 
HETATM   17  C   UNL     1      43.926 -20.946   3.118  1.00  0.00     0.001 A 
HETATM   18  C   UNL     1      43.469 -20.200   2.042  1.00  0.00     0.002 A 
HETATM   19  C   UNL     1      43.965 -16.873   5.898  1.00  0.00     0.025 C 
HETATM   20  O   UNL     1      43.113 -16.180   1.360  1.00  0.00    -0.272 OA
ENDBRANCH   8   9
ENDBRANCH   7   8
ENDBRANCH   5   7
BRANCH   1  21
HETATM   21  C   UNL     1      39.228 -12.047  -1.463  1.00  0.00     0.048 A 
HETATM   22  C   UNL     1      40.010 -11.026  -2.030  1.00  0.00     0.082 A 
HETATM   23  C   UNL     1      39.444 -10.137  -2.954  1.00  0.00     0.039 A 
HETATM   24  C   UNL     1      38.109 -10.277  -3.339  1.00  0.00     0.026 A 
HETATM   25  C   UNL     1      37.333 -11.289  -2.779  1.00  0.00     0.035 A 
HETATM   26  C   UNL     1      37.879 -12.163  -1.843  1.00  0.00     0.042 A 
HETATM   27 CL   UNL     1      35.687 -11.457  -3.252  1.00  0.00    -0.084 Cl
BRANCH  22  28
HETATM   28  O   UNL     1      41.298 -10.843  -1.591  1.00  0.00    -0.355 OA
HETATM   29  C   UNL     1      41.717  -9.480  -1.638  1.00  0.00     0.210 C 
ENDBRANCH  22  28
ENDBRANCH   1  21
TORSDOF 5
ENDMDL
