MODEL 1
REMARK VINA RESULT:      -8.7      0.000      0.000
REMARK  6 active torsions:
REMARK  status: ('A' for Active; 'I' for Inactive)
REMARK    1  A    between atoms: C_2  and  C_3 
REMARK    2  A    between atoms: C_5  and  S_6 
REMARK    3  A    between atoms: S_6  and  C_7 
REMARK    4  A    between atoms: C_7  and  C_8 
REMARK       I    between atoms: C_8  and  N_9 
REMARK    5  A    between atoms: N_9  and  C_10 
REMARK    6  A    between atoms: C_13  and  C_14 
ROOT
HETATM    1  C   UNL     1      44.504 -11.657   7.221  1.00  0.00     0.233 C 
HETATM    2  N   UNL     1      43.503 -12.589   7.343  1.00  0.00    -0.305 N 
HETATM    3  O   UNL     1      45.166 -11.441   6.206  1.00  0.00    -0.272 OA
HETATM    4  H   UNL     1      43.035 -12.699   8.232  1.00  0.00     0.171 HD
ENDROOT
BRANCH   1   5
HETATM    5  C   UNL     1      44.774 -10.822   8.469  1.00  0.00     0.184 C 
BRANCH   5   6
HETATM    6  S   UNL     1      44.236  -9.079   8.334  1.00  0.00    -0.100 SA
BRANCH   6   7
HETATM    7  C   UNL     1      42.494  -9.258   8.610  1.00  0.00     0.109 A 
HETATM    8  N   UNL     1      41.694  -9.392   7.531  1.00  0.00    -0.226 NA
HETATM    9  C   UNL     1      40.370  -9.524   7.709  1.00  0.00     0.128 A 
HETATM   10  N   UNL     1      39.742  -9.529   8.885  1.00  0.00    -0.225 NA
HETATM   11  C   UNL     1      40.568  -9.400   9.935  1.00  0.00     0.113 A 
HETATM   12  C   UNL     1      41.948  -9.263   9.908  1.00  0.00     0.042 A 
HETATM   13  S   UNL     1      39.920  -9.395  11.503  1.00  0.00    -0.074 SA
HETATM   14  C   UNL     1      42.475  -9.156  11.267  1.00  0.00    -0.033 A 
HETATM   15  C   UNL     1      41.459  -9.211  12.214  1.00  0.00    -0.012 A 
HETATM   16  C   UNL     1      43.923  -9.004  11.621  1.00  0.00     0.050 C 
HETATM   17  C   UNL     1      41.567  -9.134  13.704  1.00  0.00     0.057 C 
BRANCH   9  18
HETATM   18  C   UNL     1      39.520  -9.640   6.473  1.00  0.00     0.076 C 
HETATM   19  C   UNL     1      38.674 -10.902   6.503  1.00  0.00     0.013 C 
ENDBRANCH   9  18
ENDBRANCH   6   7
ENDBRANCH   5   6
ENDBRANCH   1   5
BRANCH   2  20
HETATM   20  C   UNL     1      43.113 -13.406   6.323  1.00  0.00     0.173 A 
HETATM   21  S   UNL     1      41.803 -12.807   5.412  1.00  0.00    -0.061 SA
HETATM   22  C   UNL     1      41.873 -14.214   4.428  1.00  0.00     0.085 A 
HETATM   23  C   UNL     1      42.897 -15.042   4.854  1.00  0.00     0.076 A 
HETATM   24  N   UNL     1      43.596 -14.561   5.954  1.00  0.00    -0.223 NA
BRANCH  23  25
HETATM   25  C   UNL     1      43.253 -16.326   4.251  1.00  0.00    -0.007 A 
HETATM   26  C   UNL     1      44.018 -17.291   4.926  1.00  0.00     0.017 A 
HETATM   27  C   UNL     1      44.330 -18.510   4.312  1.00  0.00     0.043 A 
HETATM   28  C   UNL     1      43.878 -18.768   3.024  1.00  0.00     0.116 A 
HETATM   29  F   UNL     1      44.178 -19.935   2.441  1.00  0.00    -0.206 F 
HETATM   30  C   UNL     1      43.116 -17.834   2.337  1.00  0.00     0.043 A 
HETATM   31  C   UNL     1      42.803 -16.618   2.951  1.00  0.00     0.017 A 
ENDBRANCH  23  25
ENDBRANCH   2  20
TORSDOF 6
ENDMDL
MODEL 2
REMARK VINA RESULT:      -8.6      4.991      7.568
REMARK  6 active torsions:
REMARK  status: ('A' for Active; 'I' for Inactive)
REMARK    1  A    between atoms: C_2  and  C_3 
REMARK    2  A    between atoms: C_5  and  S_6 
REMARK    3  A    between atoms: S_6  and  C_7 
REMARK    4  A    between atoms: C_7  and  C_8 
REMARK       I    between atoms: C_8  and  N_9 
REMARK    5  A    between atoms: N_9  and  C_10 
REMARK    6  A    between atoms: C_13  and  C_14 
ROOT
HETATM    1  C   UNL     1      42.844 -11.890   3.582  1.00  0.00     0.233 C 
HETATM    2  N   UNL     1      42.194 -12.775   4.406  1.00  0.00    -0.305 N 
HETATM    3  O   UNL     1      43.921 -12.090   3.019  1.00  0.00    -0.272 OA
HETATM    4  H   UNL     1      41.322 -12.501   4.836  1.00  0.00     0.171 HD
ENDROOT
BRANCH   1   5
HETATM    5  C   UNL     1      42.127 -10.563   3.353  1.00  0.00     0.184 C 
BRANCH   5   6
HETATM    6  S   UNL     1      40.351 -10.732   2.950  1.00  0.00    -0.100 SA
BRANCH   6   7
HETATM    7  C   UNL     1      40.442 -11.783   1.526  1.00  0.00     0.109 A 
HETATM    8  N   UNL     1      40.260 -13.109   1.707  1.00  0.00    -0.226 NA
HETATM    9  C   UNL     1      40.329 -13.930   0.647  1.00  0.00     0.128 A 
HETATM   10  N   UNL     1      40.576 -13.557  -0.609  1.00  0.00    -0.225 NA
HETATM   11  C   UNL     1      40.746 -12.234  -0.752  1.00  0.00     0.113 A 
HETATM   12  C   UNL     1      40.697 -11.267   0.242  1.00  0.00     0.042 A 
HETATM   13  S   UNL     1      41.063 -11.601  -2.294  1.00  0.00    -0.074 SA
HETATM   14  C   UNL     1      40.930  -9.941  -0.328  1.00  0.00    -0.033 A 
HETATM   15  C   UNL     1      41.145 -10.005  -1.700  1.00  0.00    -0.012 A 
HETATM   16  C   UNL     1      40.941  -8.659   0.448  1.00  0.00     0.050 C 
HETATM   17  C   UNL     1      41.422  -8.887  -2.655  1.00  0.00     0.057 C 
BRANCH   9  18
HETATM   18  C   UNL     1      40.148 -15.401   0.908  1.00  0.00     0.076 C 
HETATM   19  C   UNL     1      39.746 -15.658   2.351  1.00  0.00     0.013 C 
ENDBRANCH   9  18
ENDBRANCH   6   7
ENDBRANCH   5   6
ENDBRANCH   1   5
BRANCH   2  20
HETATM   20  C   UNL     1      42.678 -14.015   4.704  1.00  0.00     0.173 A 
HETATM   21  S   UNL     1      43.316 -14.155   6.278  1.00  0.00    -0.061 SA
HETATM   22  C   UNL     1      43.689 -15.802   5.956  1.00  0.00     0.085 A 
HETATM   23  C   UNL     1      43.292 -16.136   4.673  1.00  0.00     0.076 A 
HETATM   24  N   UNL     1      42.719 -15.089   3.964  1.00  0.00    -0.223 NA
BRANCH  23  25
HETATM   25  C   UNL     1      43.449 -17.454   4.057  1.00  0.00    -0.007 A 
HETATM   26  C   UNL     1      43.056 -17.720   2.735  1.00  0.00     0.017 A 
HETATM   27  C   UNL     1      43.230 -18.995   2.184  1.00  0.00     0.043 A 
HETATM   28  C   UNL     1      43.797 -20.006   2.950  1.00  0.00     0.116 A 
HETATM   29  F   UNL     1      43.962 -21.223   2.418  1.00  0.00    -0.206 F 
HETATM   30  C   UNL     1      44.198 -19.768   4.257  1.00  0.00     0.043 A 
HETATM   31  C   UNL     1      44.026 -18.494   4.807  1.00  0.00     0.017 A 
ENDBRANCH  23  25
ENDBRANCH   2  20
TORSDOF 6
ENDMDL
MODEL 3
REMARK VINA RESULT:      -8.6      3.399      5.018
REMARK  6 active torsions:
REMARK  status: ('A' for Active; 'I' for Inactive)
REMARK    1  A    between atoms: C_2  and  C_3 
REMARK    2  A    between atoms: C_5  and  S_6 
REMARK    3  A    between atoms: S_6  and  C_7 
REMARK    4  A    between atoms: C_7  and  C_8 
REMARK       I    between atoms: C_8  and  N_9 
REMARK    5  A    between atoms: N_9  and  C_10 
REMARK    6  A    between atoms: C_13  and  C_14 
ROOT
HETATM    1  C   UNL     1      42.406 -11.479   3.112  1.00  0.00     0.233 C 
HETATM    2  N   UNL     1      41.471 -12.469   2.937  1.00  0.00    -0.305 N 
HETATM    3  O   UNL     1      43.620 -11.598   2.943  1.00  0.00    -0.272 OA
HETATM    4  H   UNL     1      40.498 -12.270   3.124  1.00  0.00     0.171 HD
ENDROOT
BRANCH   1   5
HETATM    5  C   UNL     1      41.850 -10.122   3.534  1.00  0.00     0.184 C 
BRANCH   5   6
HETATM    6  S   UNL     1      41.364 -10.027   5.294  1.00  0.00    -0.100 SA
BRANCH   6   7
HETATM    7  C   UNL     1      42.529 -11.154   6.011  1.00  0.00     0.109 A 
HETATM    8  N   UNL     1      43.767 -10.693   6.287  1.00  0.00    -0.226 NA
HETATM    9  C   UNL     1      44.672 -11.525   6.826  1.00  0.00     0.128 A 
HETATM   10  N   UNL     1      44.467 -12.809   7.118  1.00  0.00    -0.225 NA
HETATM   11  C   UNL     1      43.225 -13.232   6.836  1.00  0.00     0.113 A 
HETATM   12  C   UNL     1      42.188 -12.491   6.289  1.00  0.00     0.042 A 
HETATM   13  S   UNL     1      42.806 -14.845   7.157  1.00  0.00    -0.074 SA
HETATM   14  C   UNL     1      40.993 -13.321   6.143  1.00  0.00    -0.033 A 
HETATM   15  C   UNL     1      41.217 -14.621   6.580  1.00  0.00    -0.012 A 
HETATM   16  C   UNL     1      39.680 -12.852   5.594  1.00  0.00     0.050 C 
HETATM   17  C   UNL     1      40.267 -15.776   6.600  1.00  0.00     0.057 C 
BRANCH   9  18
HETATM   18  C   UNL     1      46.045 -10.968   7.087  1.00  0.00     0.076 C 
HETATM   19  C   UNL     1      45.994  -9.829   8.093  1.00  0.00     0.013 C 
ENDBRANCH   9  18
ENDBRANCH   6   7
ENDBRANCH   5   6
ENDBRANCH   1   5
BRANCH   2  20
HETATM   20  C   UNL     1      41.787 -13.735   2.540  1.00  0.00     0.173 A 
HETATM   21  S   UNL     1      41.440 -14.060   0.904  1.00  0.00    -0.061 SA
HETATM   22  C   UNL     1      42.036 -15.658   1.118  1.00  0.00     0.085 A 
HETATM   23  C   UNL     1      42.468 -15.833   2.421  1.00  0.00     0.076 A 
HETATM   24  N   UNL     1      42.309 -14.714   3.228  1.00  0.00    -0.223 NA
BRANCH  23  25
HETATM   25  C   UNL     1      43.039 -17.065   2.964  1.00  0.00    -0.007 A 
HETATM   26  C   UNL     1      43.603 -17.135   4.248  1.00  0.00     0.017 A 
HETATM   27  C   UNL     1      44.133 -18.338   4.729  1.00  0.00     0.043 A 
HETATM   28  C   UNL     1      44.099 -19.474   3.930  1.00  0.00     0.116 A 
HETATM   29  F   UNL     1      44.606 -20.622   4.395  1.00  0.00    -0.206 F 
HETATM   30  C   UNL     1      43.543 -19.434   2.660  1.00  0.00     0.043 A 
HETATM   31  C   UNL     1      43.013 -18.233   2.179  1.00  0.00     0.017 A 
ENDBRANCH  23  25
ENDBRANCH   2  20
TORSDOF 6
ENDMDL
MODEL 4
REMARK VINA RESULT:      -8.3      2.023      3.196
REMARK  6 active torsions:
REMARK  status: ('A' for Active; 'I' for Inactive)
REMARK    1  A    between atoms: C_2  and  C_3 
REMARK    2  A    between atoms: C_5  and  S_6 
REMARK    3  A    between atoms: S_6  and  C_7 
REMARK    4  A    between atoms: C_7  and  C_8 
REMARK       I    between atoms: C_8  and  N_9 
REMARK    5  A    between atoms: N_9  and  C_10 
REMARK    6  A    between atoms: C_13  and  C_14 
ROOT
HETATM    1  C   UNL     1      40.344 -12.181   5.546  1.00  0.00     0.233 C 
HETATM    2  N   UNL     1      41.684 -12.474   5.485  1.00  0.00    -0.305 N 
HETATM    3  O   UNL     1      39.467 -12.679   4.840  1.00  0.00    -0.272 OA
HETATM    4  H   UNL     1      42.325 -11.990   6.098  1.00  0.00     0.171 HD
ENDROOT
BRANCH   1   5
HETATM    5  C   UNL     1      39.947 -11.160   6.607  1.00  0.00     0.184 C 
BRANCH   5   6
HETATM    6  S   UNL     1      40.788  -9.545   6.445  1.00  0.00    -0.100 SA
BRANCH   6   7
HETATM    7  C   UNL     1      42.036  -9.705   7.693  1.00  0.00     0.109 A 
HETATM    8  N   UNL     1      43.252 -10.158   7.317  1.00  0.00    -0.226 NA
HETATM    9  C   UNL     1      44.215 -10.294   8.241  1.00  0.00     0.128 A 
HETATM   10  N   UNL     1      44.087 -10.027   9.541  1.00  0.00    -0.225 NA
HETATM   11  C   UNL     1      42.869  -9.575   9.878  1.00  0.00     0.113 A 
HETATM   12  C   UNL     1      41.783  -9.376   9.037  1.00  0.00     0.042 A 
HETATM   13  S   UNL     1      42.549  -9.183  11.498  1.00  0.00    -0.074 SA
HETATM   14  C   UNL     1      40.641  -8.867   9.795  1.00  0.00    -0.033 A 
HETATM   15  C   UNL     1      40.945  -8.728  11.145  1.00  0.00    -0.012 A 
HETATM   16  C   UNL     1      39.302  -8.530   9.214  1.00  0.00     0.050 C 
HETATM   17  C   UNL     1      40.064  -8.247  12.254  1.00  0.00     0.057 C 
BRANCH   9  18
HETATM   18  C   UNL     1      45.541 -10.830   7.774  1.00  0.00     0.076 C 
HETATM   19  C   UNL     1      45.425 -11.459   6.396  1.00  0.00     0.013 C 
ENDBRANCH   9  18
ENDBRANCH   6   7
ENDBRANCH   5   6
ENDBRANCH   1   5
BRANCH   2  20
HETATM   20  C   UNL     1      42.214 -13.379   4.612  1.00  0.00     0.173 A 
HETATM   21  S   UNL     1      42.692 -12.710   3.119  1.00  0.00    -0.061 SA
HETATM   22  C   UNL     1      43.199 -14.271   2.608  1.00  0.00     0.085 A 
HETATM   23  C   UNL     1      42.979 -15.195   3.615  1.00  0.00     0.076 A 
HETATM   24  N   UNL     1      42.402 -14.662   4.760  1.00  0.00    -0.223 NA
BRANCH  23  25
HETATM   25  C   UNL     1      43.291 -16.622   3.535  1.00  0.00    -0.007 A 
HETATM   26  C   UNL     1      43.949 -17.310   4.568  1.00  0.00     0.017 A 
HETATM   27  C   UNL     1      44.222 -18.678   4.451  1.00  0.00     0.043 A 
HETATM   28  C   UNL     1      43.839 -19.362   3.304  1.00  0.00     0.116 A 
HETATM   29  F   UNL     1      44.102 -20.670   3.197  1.00  0.00    -0.206 F 
HETATM   30  C   UNL     1      43.184 -18.707   2.271  1.00  0.00     0.043 A 
HETATM   31  C   UNL     1      42.909 -17.341   2.388  1.00  0.00     0.017 A 
ENDBRANCH  23  25
ENDBRANCH   2  20
TORSDOF 6
ENDMDL
MODEL 5
REMARK VINA RESULT:      -8.2      4.025      9.763
REMARK  6 active torsions:
REMARK  status: ('A' for Active; 'I' for Inactive)
REMARK    1  A    between atoms: C_2  and  C_3 
REMARK    2  A    between atoms: C_5  and  S_6 
REMARK    3  A    between atoms: S_6  and  C_7 
REMARK    4  A    between atoms: C_7  and  C_8 
REMARK       I    between atoms: C_8  and  N_9 
REMARK    5  A    between atoms: N_9  and  C_10 
REMARK    6  A    between atoms: C_13  and  C_14 
ROOT
HETATM    1  C   UNL     1      43.393 -11.348   6.577  1.00  0.00     0.233 C 
HETATM    2  N   UNL     1      44.251 -11.501   7.637  1.00  0.00    -0.305 N 
HETATM    3  O   UNL     1      42.581 -10.433   6.435  1.00  0.00    -0.272 OA
HETATM    4  H   UNL     1      44.865 -12.303   7.666  1.00  0.00     0.171 HD
ENDROOT
BRANCH   1   5
HETATM    5  C   UNL     1      43.499 -12.415   5.491  1.00  0.00     0.184 C 
BRANCH   5   6
HETATM    6  S   UNL     1      42.793 -14.035   5.962  1.00  0.00    -0.100 SA
BRANCH   6   7
HETATM    7  C   UNL     1      42.619 -14.786   4.366  1.00  0.00     0.109 A 
HETATM    8  N   UNL     1      42.078 -14.045   3.375  1.00  0.00    -0.226 NA
HETATM    9  C   UNL     1      41.929 -14.588   2.157  1.00  0.00     0.128 A 
HETATM   10  N   UNL     1      42.264 -15.833   1.817  1.00  0.00    -0.225 NA
HETATM   11  C   UNL     1      42.802 -16.538   2.824  1.00  0.00     0.113 A 
HETATM   12  C   UNL     1      43.025 -16.111   4.125  1.00  0.00     0.042 A 
HETATM   13  S   UNL     1      43.287 -18.141   2.547  1.00  0.00    -0.074 SA
HETATM   14  C   UNL     1      43.634 -17.181   4.913  1.00  0.00    -0.033 A 
HETATM   15  C   UNL     1      43.818 -18.332   4.156  1.00  0.00    -0.012 A 
HETATM   16  C   UNL     1      44.022 -17.075   6.357  1.00  0.00     0.050 C 
HETATM   17  C   UNL     1      44.402 -19.644   4.577  1.00  0.00     0.057 C 
BRANCH   9  18
HETATM   18  C   UNL     1      41.295 -13.730   1.097  1.00  0.00     0.076 C 
HETATM   19  C   UNL     1      40.451 -14.563   0.147  1.00  0.00     0.013 C 
ENDBRANCH   9  18
ENDBRANCH   6   7
ENDBRANCH   5   6
ENDBRANCH   1   5
BRANCH   2  20
HETATM   20  C   UNL     1      44.309 -10.630   8.685  1.00  0.00     0.173 A 
HETATM   21  S   UNL     1      45.568  -9.487   8.573  1.00  0.00    -0.061 SA
HETATM   22  C   UNL     1      45.063  -8.817  10.073  1.00  0.00     0.085 A 
HETATM   23  C   UNL     1      43.962  -9.504  10.553  1.00  0.00     0.076 A 
HETATM   24  N   UNL     1      43.547 -10.552   9.742  1.00  0.00    -0.223 NA
BRANCH  23  25
HETATM   25  C   UNL     1      43.262  -9.210  11.804  1.00  0.00    -0.007 A 
HETATM   26  C   UNL     1      42.258 -10.045  12.322  1.00  0.00     0.017 A 
HETATM   27  C   UNL     1      41.618  -9.727  13.525  1.00  0.00     0.043 A 
HETATM   28  C   UNL     1      41.980  -8.577  14.215  1.00  0.00     0.116 A 
HETATM   29  F   UNL     1      41.365  -8.278  15.366  1.00  0.00    -0.206 F 
HETATM   30  C   UNL     1      42.971  -7.737  13.728  1.00  0.00     0.043 A 
HETATM   31  C   UNL     1      43.611  -8.055  12.527  1.00  0.00     0.017 A 
ENDBRANCH  23  25
ENDBRANCH   2  20
TORSDOF 6
ENDMDL
MODEL 6
REMARK VINA RESULT:      -8.1      3.824      9.656
REMARK  6 active torsions:
REMARK  status: ('A' for Active; 'I' for Inactive)
REMARK    1  A    between atoms: C_2  and  C_3 
REMARK    2  A    between atoms: C_5  and  S_6 
REMARK    3  A    between atoms: S_6  and  C_7 
REMARK    4  A    between atoms: C_7  and  C_8 
REMARK       I    between atoms: C_8  and  N_9 
REMARK    5  A    between atoms: N_9  and  C_10 
REMARK    6  A    between atoms: C_13  and  C_14 
ROOT
HETATM    1  C   UNL     1      44.240 -11.669   7.503  1.00  0.00     0.233 C 
HETATM    2  N   UNL     1      43.118 -10.966   7.869  1.00  0.00    -0.305 N 
HETATM    3  O   UNL     1      45.373 -11.501   7.955  1.00  0.00    -0.272 OA
HETATM    4  H   UNL     1      42.237 -11.170   7.419  1.00  0.00     0.171 HD
ENDROOT
BRANCH   1   5
HETATM    5  C   UNL     1      44.016 -12.757   6.459  1.00  0.00     0.184 C 
BRANCH   5   6
HETATM    6  S   UNL     1      43.073 -14.200   7.071  1.00  0.00    -0.100 SA
BRANCH   6   7
HETATM    7  C   UNL     1      42.787 -15.066   5.552  1.00  0.00     0.109 A 
HETATM    8  N   UNL     1      43.540 -16.156   5.294  1.00  0.00    -0.226 NA
HETATM    9  C   UNL     1      43.349 -16.829   4.148  1.00  0.00     0.128 A 
HETATM   10  N   UNL     1      42.465 -16.513   3.201  1.00  0.00    -0.225 NA
HETATM   11  C   UNL     1      41.731 -15.429   3.493  1.00  0.00     0.113 A 
HETATM   12  C   UNL     1      41.809 -14.641   4.632  1.00  0.00     0.042 A 
HETATM   13  S   UNL     1      40.556 -14.902   2.388  1.00  0.00    -0.074 SA
HETATM   14  C   UNL     1      40.833 -13.556   4.568  1.00  0.00    -0.033 A 
HETATM   15  C   UNL     1      40.099 -13.598   3.388  1.00  0.00    -0.012 A 
HETATM   16  C   UNL     1      40.628 -12.515   5.627  1.00  0.00     0.050 C 
HETATM   17  C   UNL     1      39.012 -12.677   2.930  1.00  0.00     0.057 C 
BRANCH   9  18
HETATM   18  C   UNL     1      44.234 -18.020   3.897  1.00  0.00     0.076 C 
HETATM   19  C   UNL     1      43.657 -18.914   2.812  1.00  0.00     0.013 C 
ENDBRANCH   9  18
ENDBRANCH   6   7
ENDBRANCH   5   6
ENDBRANCH   1   5
BRANCH   2  20
HETATM   20  C   UNL     1      43.130  -9.973   8.805  1.00  0.00     0.173 A 
HETATM   21  S   UNL     1      43.632  -8.458   8.207  1.00  0.00    -0.061 SA
HETATM   22  C   UNL     1      43.415  -7.792   9.777  1.00  0.00     0.085 A 
HETATM   23  C   UNL     1      42.965  -8.768  10.649  1.00  0.00     0.076 A 
HETATM   24  N   UNL     1      42.814 -10.021  10.071  1.00  0.00    -0.223 NA
BRANCH  23  25
HETATM   25  C   UNL     1      42.669  -8.564  12.067  1.00  0.00    -0.007 A 
HETATM   26  C   UNL     1      43.338  -7.607  12.847  1.00  0.00     0.017 A 
HETATM   27  C   UNL     1      43.019  -7.441  14.200  1.00  0.00     0.043 A 
HETATM   28  C   UNL     1      42.031  -8.230  14.776  1.00  0.00     0.116 A 
HETATM   29  F   UNL     1      41.728  -8.068  16.070  1.00  0.00    -0.206 F 
HETATM   30  C   UNL     1      41.352  -9.180  14.026  1.00  0.00     0.043 A 
HETATM   31  C   UNL     1      41.669  -9.344  12.675  1.00  0.00     0.017 A 
ENDBRANCH  23  25
ENDBRANCH   2  20
TORSDOF 6
ENDMDL
MODEL 7
REMARK VINA RESULT:      -7.9      3.948      9.440
REMARK  6 active torsions:
REMARK  status: ('A' for Active; 'I' for Inactive)
REMARK    1  A    between atoms: C_2  and  C_3 
REMARK    2  A    between atoms: C_5  and  S_6 
REMARK    3  A    between atoms: S_6  and  C_7 
REMARK    4  A    between atoms: C_7  and  C_8 
REMARK       I    between atoms: C_8  and  N_9 
REMARK    5  A    between atoms: N_9  and  C_10 
REMARK    6  A    between atoms: C_13  and  C_14 
ROOT
HETATM    1  C   UNL     1      44.332 -11.657   7.452  1.00  0.00     0.233 C 
HETATM    2  N   UNL     1      43.097 -11.057   7.429  1.00  0.00    -0.305 N 
HETATM    3  O   UNL     1      45.318 -11.251   8.068  1.00  0.00    -0.272 OA
HETATM    4  H   UNL     1      42.359 -11.463   6.872  1.00  0.00     0.171 HD
ENDROOT
BRANCH   1   5
HETATM    5  C   UNL     1      44.446 -12.948   6.647  1.00  0.00     0.184 C 
BRANCH   5   6
HETATM    6  S   UNL     1      43.235 -14.234   7.120  1.00  0.00    -0.100 SA
BRANCH   6   7
HETATM    7  C   UNL     1      42.186 -14.229   5.692  1.00  0.00     0.109 A 
HETATM    8  N   UNL     1      41.265 -13.247   5.586  1.00  0.00    -0.226 NA
HETATM    9  C   UNL     1      40.454 -13.221   4.517  1.00  0.00     0.128 A 
HETATM   10  N   UNL     1      40.458 -14.103   3.518  1.00  0.00    -0.225 NA
HETATM   11  C   UNL     1      41.388 -15.061   3.653  1.00  0.00     0.113 A 
HETATM   12  C   UNL     1      42.297 -15.212   4.691  1.00  0.00     0.042 A 
HETATM   13  S   UNL     1      41.525 -16.258   2.457  1.00  0.00    -0.074 SA
HETATM   14  C   UNL     1      43.142 -16.382   4.459  1.00  0.00    -0.033 A 
HETATM   15  C   UNL     1      42.807 -17.028   3.275  1.00  0.00    -0.012 A 
HETATM   16  C   UNL     1      44.240 -16.846   5.368  1.00  0.00     0.050 C 
HETATM   17  C   UNL     1      43.418 -18.255   2.676  1.00  0.00     0.057 C 
BRANCH   9  18
HETATM   18  C   UNL     1      39.427 -12.122   4.464  1.00  0.00     0.076 C 
HETATM   19  C   UNL     1      39.754 -11.118   3.371  1.00  0.00     0.013 C 
ENDBRANCH   9  18
ENDBRANCH   6   7
ENDBRANCH   5   6
ENDBRANCH   1   5
BRANCH   2  20
HETATM   20  C   UNL     1      42.810  -9.909   8.109  1.00  0.00     0.173 A 
HETATM   21  S   UNL     1      42.251  -8.637   7.123  1.00  0.00    -0.061 SA
HETATM   22  C   UNL     1      42.116  -7.644   8.520  1.00  0.00     0.085 A 
HETATM   23  C   UNL     1      42.497  -8.354   9.645  1.00  0.00     0.076 A 
HETATM   24  N   UNL     1      42.902  -9.656   9.386  1.00  0.00    -0.223 NA
BRANCH  23  25
HETATM   25  C   UNL     1      42.508  -7.830  11.011  1.00  0.00    -0.007 A 
HETATM   26  C   UNL     1      41.721  -6.736  11.407  1.00  0.00     0.017 A 
HETATM   27  C   UNL     1      41.759  -6.272  12.727  1.00  0.00     0.043 A 
HETATM   28  C   UNL     1      42.581  -6.900  13.655  1.00  0.00     0.116 A 
HETATM   29  F   UNL     1      42.614  -6.453  14.916  1.00  0.00    -0.206 F 
HETATM   30  C   UNL     1      43.365  -7.985  13.291  1.00  0.00     0.043 A 
HETATM   31  C   UNL     1      43.327  -8.449  11.973  1.00  0.00     0.017 A 
ENDBRANCH  23  25
ENDBRANCH   2  20
TORSDOF 6
ENDMDL
MODEL 8
REMARK VINA RESULT:      -7.8      2.443      3.218
REMARK  6 active torsions:
REMARK  status: ('A' for Active; 'I' for Inactive)
REMARK    1  A    between atoms: C_2  and  C_3 
REMARK    2  A    between atoms: C_5  and  S_6 
REMARK    3  A    between atoms: S_6  and  C_7 
REMARK    4  A    between atoms: C_7  and  C_8 
REMARK       I    between atoms: C_8  and  N_9 
REMARK    5  A    between atoms: N_9  and  C_10 
REMARK    6  A    between atoms: C_13  and  C_14 
ROOT
HETATM    1  C   UNL     1      41.167 -12.815   5.014  1.00  0.00     0.233 C 
HETATM    2  N   UNL     1      42.434 -13.109   4.571  1.00  0.00    -0.305 N 
HETATM    3  O   UNL     1      40.156 -13.481   4.792  1.00  0.00    -0.272 OA
HETATM    4  H   UNL     1      43.193 -12.481   4.794  1.00  0.00     0.171 HD
ENDROOT
BRANCH   1   5
HETATM    5  C   UNL     1      41.049 -11.558   5.869  1.00  0.00     0.184 C 
BRANCH   5   6
HETATM    6  S   UNL     1      42.101 -10.170   5.309  1.00  0.00    -0.100 SA
BRANCH   6   7
HETATM    7  C   UNL     1      41.834  -9.013   6.625  1.00  0.00     0.109 A 
HETATM    8  N   UNL     1      40.829  -8.121   6.488  1.00  0.00    -0.226 NA
HETATM    9  C   UNL     1      40.606  -7.229   7.466  1.00  0.00     0.128 A 
HETATM   10  N   UNL     1      41.307  -7.125   8.595  1.00  0.00    -0.225 NA
HETATM   11  C   UNL     1      42.293  -8.030   8.700  1.00  0.00     0.113 A 
HETATM   12  C   UNL     1      42.636  -9.011   7.781  1.00  0.00     0.042 A 
HETATM   13  S   UNL     1      43.273  -8.031  10.085  1.00  0.00    -0.074 SA
HETATM   14  C   UNL     1      43.766  -9.796   8.274  1.00  0.00    -0.033 A 
HETATM   15  C   UNL     1      44.197  -9.347   9.517  1.00  0.00    -0.012 A 
HETATM   16  C   UNL     1      44.400 -10.945   7.550  1.00  0.00     0.050 C 
HETATM   17  C   UNL     1      45.317  -9.867  10.361  1.00  0.00     0.057 C 
BRANCH   9  18
HETATM   18  C   UNL     1      39.494  -6.239   7.250  1.00  0.00     0.076 C 
HETATM   19  C   UNL     1      38.422  -6.377   8.319  1.00  0.00     0.013 C 
ENDBRANCH   9  18
ENDBRANCH   6   7
ENDBRANCH   5   6
ENDBRANCH   1   5
BRANCH   2  20
HETATM   20  C   UNL     1      42.727 -14.206   3.815  1.00  0.00     0.173 A 
HETATM   21  S   UNL     1      42.878 -13.882   2.148  1.00  0.00    -0.061 SA
HETATM   22  C   UNL     1      43.211 -15.547   1.879  1.00  0.00     0.085 A 
HETATM   23  C   UNL     1      43.195 -16.235   3.080  1.00  0.00     0.076 A 
HETATM   24  N   UNL     1      42.906 -15.445   4.184  1.00  0.00    -0.223 NA
BRANCH  23  25
HETATM   25  C   UNL     1      43.439 -17.669   3.235  1.00  0.00    -0.007 A 
HETATM   26  C   UNL     1      43.974 -18.220   4.411  1.00  0.00     0.017 A 
HETATM   27  C   UNL     1      44.186 -19.600   4.518  1.00  0.00     0.043 A 
HETATM   28  C   UNL     1      43.863 -20.431   3.454  1.00  0.00     0.116 A 
HETATM   29  F   UNL     1      44.066 -21.750   3.561  1.00  0.00    -0.206 F 
HETATM   30  C   UNL     1      43.328 -19.913   2.283  1.00  0.00     0.043 A 
HETATM   31  C   UNL     1      43.116 -18.536   2.176  1.00  0.00     0.017 A 
ENDBRANCH  23  25
ENDBRANCH   2  20
TORSDOF 6
ENDMDL
MODEL 9
REMARK VINA RESULT:      -7.5      2.452      3.799
REMARK  6 active torsions:
REMARK  status: ('A' for Active; 'I' for Inactive)
REMARK    1  A    between atoms: C_2  and  C_3 
REMARK    2  A    between atoms: C_5  and  S_6 
REMARK    3  A    between atoms: S_6  and  C_7 
REMARK    4  A    between atoms: C_7  and  C_8 
REMARK       I    between atoms: C_8  and  N_9 
REMARK    5  A    between atoms: N_9  and  C_10 
REMARK    6  A    between atoms: C_13  and  C_14 
ROOT
HETATM    1  C   UNL     1      42.930 -11.624   3.814  1.00  0.00     0.233 C 
HETATM    2  N   UNL     1      42.003 -12.637   3.795  1.00  0.00    -0.305 N 
HETATM    3  O   UNL     1      44.065 -11.678   3.340  1.00  0.00    -0.272 OA
HETATM    4  H   UNL     1      41.104 -12.494   4.233  1.00  0.00     0.171 HD
ENDROOT
BRANCH   1   5
HETATM    5  C   UNL     1      42.466 -10.328   4.470  1.00  0.00     0.184 C 
BRANCH   5   6
HETATM    6  S   UNL     1      41.239 -10.562   5.807  1.00  0.00    -0.100 SA
BRANCH   6   7
HETATM    7  C   UNL     1      42.008  -9.642   7.113  1.00  0.00     0.109 A 
HETATM    8  N   UNL     1      43.253 -10.002   7.491  1.00  0.00    -0.226 NA
HETATM    9  C   UNL     1      43.858  -9.327   8.481  1.00  0.00     0.128 A 
HETATM   10  N   UNL     1      43.331  -8.306   9.159  1.00  0.00    -0.225 NA
HETATM   11  C   UNL     1      42.097  -7.973   8.753  1.00  0.00     0.113 A 
HETATM   12  C   UNL     1      41.352  -8.569   7.745  1.00  0.00     0.042 A 
HETATM   13  S   UNL     1      41.293  -6.688   9.515  1.00  0.00    -0.074 SA
HETATM   14  C   UNL     1      40.056  -7.907   7.612  1.00  0.00    -0.033 A 
HETATM   15  C   UNL     1      39.915  -6.871   8.528  1.00  0.00    -0.012 A 
HETATM   16  C   UNL     1      38.996  -8.278   6.620  1.00  0.00     0.050 C 
HETATM   17  C   UNL     1      38.751  -5.952   8.726  1.00  0.00     0.057 C 
BRANCH   9  18
HETATM   18  C   UNL     1      45.233  -9.787   8.883  1.00  0.00     0.076 C 
HETATM   19  C   UNL     1      45.353  -9.903  10.393  1.00  0.00     0.013 C 
ENDBRANCH   9  18
ENDBRANCH   6   7
ENDBRANCH   5   6
ENDBRANCH   1   5
BRANCH   2  20
HETATM   20  C   UNL     1      42.239 -13.857   3.230  1.00  0.00     0.173 A 
HETATM   21  S   UNL     1      41.949 -13.914   1.551  1.00  0.00    -0.061 SA
HETATM   22  C   UNL     1      42.408 -15.571   1.552  1.00  0.00     0.085 A 
HETATM   23  C   UNL     1      42.761 -15.965   2.831  1.00  0.00     0.076 A 
HETATM   24  N   UNL     1      42.649 -14.964   3.786  1.00  0.00    -0.223 NA
BRANCH  23  25
HETATM   25  C   UNL     1      43.207 -17.306   3.209  1.00  0.00    -0.007 A 
HETATM   26  C   UNL     1      43.777 -17.587   4.461  1.00  0.00     0.017 A 
HETATM   27  C   UNL     1      44.185 -18.887   4.783  1.00  0.00     0.043 A 
HETATM   28  C   UNL     1      44.023 -19.909   3.856  1.00  0.00     0.116 A 
HETATM   29  F   UNL     1      44.414 -21.151   4.168  1.00  0.00    -0.206 F 
HETATM   30  C   UNL     1      43.459 -19.659   2.613  1.00  0.00     0.043 A 
HETATM   31  C   UNL     1      43.050 -18.362   2.293  1.00  0.00     0.017 A 
ENDBRANCH  23  25
ENDBRANCH   2  20
TORSDOF 6
ENDMDL
MODEL 10
REMARK VINA RESULT:      -7.5      4.190      9.760
REMARK  6 active torsions:
REMARK  status: ('A' for Active; 'I' for Inactive)
REMARK    1  A    between atoms: C_2  and  C_3 
REMARK    2  A    between atoms: C_5  and  S_6 
REMARK    3  A    between atoms: S_6  and  C_7 
REMARK    4  A    between atoms: C_7  and  C_8 
REMARK       I    between atoms: C_8  and  N_9 
REMARK    5  A    between atoms: N_9  and  C_10 
REMARK    6  A    between atoms: C_13  and  C_14 
ROOT
HETATM    1  C   UNL     1      42.552 -11.106   5.980  1.00  0.00     0.233 C 
HETATM    2  N   UNL     1      43.069  -9.956   6.524  1.00  0.00    -0.305 N 
HETATM    3  O   UNL     1      42.404 -12.177   6.569  1.00  0.00    -0.272 OA
HETATM    4  H   UNL     1      43.167  -9.135   5.944  1.00  0.00     0.171 HD
ENDROOT
BRANCH   1   5
HETATM    5  C   UNL     1      42.115 -10.999   4.522  1.00  0.00     0.184 C 
BRANCH   5   6
HETATM    6  S   UNL     1      43.311 -11.700   3.329  1.00  0.00    -0.100 SA
BRANCH   6   7
HETATM    7  C   UNL     1      42.552 -13.266   2.995  1.00  0.00     0.109 A 
HETATM    8  N   UNL     1      42.849 -14.299   3.812  1.00  0.00    -0.226 NA
HETATM    9  C   UNL     1      42.292 -15.499   3.580  1.00  0.00     0.128 A 
HETATM   10  N   UNL     1      41.454 -15.786   2.585  1.00  0.00    -0.225 NA
HETATM   11  C   UNL     1      41.177 -14.736   1.797  1.00  0.00     0.113 A 
HETATM   12  C   UNL     1      41.666 -13.443   1.915  1.00  0.00     0.042 A 
HETATM   13  S   UNL     1      40.119 -14.939   0.486  1.00  0.00    -0.074 SA
HETATM   14  C   UNL     1      41.118 -12.593   0.860  1.00  0.00    -0.033 A 
HETATM   15  C   UNL     1      40.267 -13.305   0.022  1.00  0.00    -0.012 A 
HETATM   16  C   UNL     1      41.419 -11.136   0.682  1.00  0.00     0.050 C 
HETATM   17  C   UNL     1      39.509 -12.816  -1.172  1.00  0.00     0.057 C 
BRANCH   9  18
HETATM   18  C   UNL     1      42.679 -16.623   4.503  1.00  0.00     0.076 C 
HETATM   19  C   UNL     1      43.670 -17.564   3.837  1.00  0.00     0.013 C 
ENDBRANCH   9  18
ENDBRANCH   6   7
ENDBRANCH   5   6
ENDBRANCH   1   5
BRANCH   2  20
HETATM   20  C   UNL     1      43.489  -9.864   7.819  1.00  0.00     0.173 A 
HETATM   21  S   UNL     1      45.159 -10.129   8.031  1.00  0.00    -0.061 SA
HETATM   22  C   UNL     1      44.961  -9.880   9.720  1.00  0.00     0.085 A 
HETATM   23  C   UNL     1      43.637  -9.601  10.007  1.00  0.00     0.076 A 
HETATM   24  N   UNL     1      42.802  -9.605   8.898  1.00  0.00    -0.223 NA
BRANCH  23  25
HETATM   25  C   UNL     1      43.099  -9.332  11.341  1.00  0.00    -0.007 A 
HETATM   26  C   UNL     1      43.602  -8.313  12.166  1.00  0.00     0.017 A 
HETATM   27  C   UNL     1      43.053  -8.088  13.434  1.00  0.00     0.043 A 
HETATM   28  C   UNL     1      42.001  -8.878  13.880  1.00  0.00     0.116 A 
HETATM   29  F   UNL     1      41.479  -8.658  15.092  1.00  0.00    -0.206 F 
HETATM   30  C   UNL     1      41.483  -9.888  13.082  1.00  0.00     0.043 A 
HETATM   31  C   UNL     1      42.030 -10.113  11.816  1.00  0.00     0.017 A 
ENDBRANCH  23  25
ENDBRANCH   2  20
TORSDOF 6
ENDMDL
