MODEL 1
REMARK VINA RESULT:      -9.2      0.000      0.000
REMARK  6 active torsions:
REMARK  status: ('A' for Active; 'I' for Inactive)
REMARK    1  A    between atoms: C_4  and  N_5 
REMARK       I    between atoms: N_5  and  C_6 
REMARK    2  A    between atoms: C_6  and  C_7 
REMARK       I    between atoms: C_7  and  N_8 
REMARK    3  A    between atoms: N_8  and  C_9 
REMARK    4  A    between atoms: C_9  and  C_10 
REMARK    5  A    between atoms: C_10  and  C_11 
REMARK    6  A    between atoms: C_11  and  C_12 
ROOT
HETATM    1  C   UNL     1      40.522 -14.631   6.454  1.00  0.00     0.309 C 
HETATM    2  N   UNL     1      41.807 -14.264   6.789  1.00  0.00    -0.353 N 
HETATM    3  O   UNL     1      39.978 -15.690   6.732  1.00  0.00    -0.262 OA
HETATM    4  H   UNL     1      42.123 -13.366   6.430  1.00  0.00     0.162 HD
ENDROOT
BRANCH   1   5
HETATM    5  C   UNL     1      39.774 -13.558   5.630  1.00  0.00     0.314 C 
HETATM    6  N   UNL     1      40.084 -13.612   4.294  1.00  0.00    -0.317 N 
HETATM    7  H   UNL     1      40.743 -14.341   4.006  1.00  0.00     0.169 HD
HETATM    8  O   UNL     1      39.022 -12.791   6.217  1.00  0.00    -0.262 OA
BRANCH   6   9
HETATM    9  C   UNL     1      39.621 -12.789   3.243  1.00  0.00     0.065 A 
HETATM   10  C   UNL     1      39.108 -11.503   3.452  1.00  0.00     0.038 A 
HETATM   11  C   UNL     1      38.665 -10.730   2.375  1.00  0.00    -0.059 A 
HETATM   12  C   UNL     1      38.122  -9.347   2.590  1.00  0.00     0.048 C 
HETATM   13  C   UNL     1      38.743 -11.258   1.083  1.00  0.00     0.020 A 
HETATM   14  C   UNL     1      39.254 -12.548   0.866  1.00  0.00    -0.005 A 
HETATM   15  C   UNL     1      39.703 -13.331   1.950  1.00  0.00     0.093 A 
HETATM   16  C   UNL     1      39.336 -13.091  -0.424  1.00  0.00     0.015 A 
HETATM   17  N   UNL     1      40.203 -14.577   1.766  1.00  0.00    -0.258 NA
HETATM   18  C   UNL     1      40.265 -15.065   0.508  1.00  0.00     0.117 A 
HETATM   19  C   UNL     1      39.849 -14.369  -0.608  1.00  0.00     0.020 A 
ENDBRANCH   6   9
ENDBRANCH   1   5
BRANCH   2  20
HETATM   20  C   UNL     1      42.733 -15.164   7.436  1.00  0.00     0.123 C 
BRANCH  20  21
HETATM   21  C   UNL     1      44.068 -15.261   6.701  1.00  0.00     0.024 C 
BRANCH  21  22
HETATM   22  C   UNL     1      44.393 -16.694   6.273  1.00  0.00     0.042 C 
BRANCH  22  23
HETATM   23  C   UNL     1      43.915 -16.994   4.889  1.00  0.00    -0.030 A 
HETATM   24  C   UNL     1      43.836 -18.285   4.274  1.00  0.00    -0.002 A 
HETATM   25  C   UNL     1      43.335 -18.105   2.985  1.00  0.00     0.042 A 
HETATM   26  C   UNL     1      44.152 -19.594   4.696  1.00  0.00     0.014 A 
HETATM   27  C   UNL     1      43.129 -19.168   2.096  1.00  0.00     0.030 A 
HETATM   28  N   UNL     1      43.115 -16.757   2.822  1.00  0.00    -0.365 N 
HETATM   29  C   UNL     1      43.449 -20.454   2.539  1.00  0.00     0.002 A 
HETATM   30  C   UNL     1      43.953 -20.667   3.820  1.00  0.00     0.001 A 
HETATM   31  H   UNL     1      42.751 -16.336   1.979  1.00  0.00     0.165 HD
HETATM   32  C   UNL     1      43.460 -16.079   3.960  1.00  0.00     0.096 A 
ENDBRANCH  22  23
ENDBRANCH  21  22
ENDBRANCH  20  21
ENDBRANCH   2  20
TORSDOF 6
ENDMDL
MODEL 2
REMARK VINA RESULT:      -9.1      2.055      3.407
REMARK  6 active torsions:
REMARK  status: ('A' for Active; 'I' for Inactive)
REMARK    1  A    between atoms: C_4  and  N_5 
REMARK       I    between atoms: N_5  and  C_6 
REMARK    2  A    between atoms: C_6  and  C_7 
REMARK       I    between atoms: C_7  and  N_8 
REMARK    3  A    between atoms: N_8  and  C_9 
REMARK    4  A    between atoms: C_9  and  C_10 
REMARK    5  A    between atoms: C_10  and  C_11 
REMARK    6  A    between atoms: C_11  and  C_12 
ROOT
HETATM    1  C   UNL     1      40.946 -13.594   3.823  1.00  0.00     0.309 C 
HETATM    2  N   UNL     1      40.358 -14.438   4.739  1.00  0.00    -0.353 N 
HETATM    3  O   UNL     1      42.014 -13.016   3.957  1.00  0.00    -0.262 OA
HETATM    4  H   UNL     1      39.437 -14.794   4.492  1.00  0.00     0.162 HD
ENDROOT
BRANCH   1   5
HETATM    5  C   UNL     1      40.100 -13.394   2.544  1.00  0.00     0.314 C 
HETATM    6  N   UNL     1      40.847 -13.506   1.399  1.00  0.00    -0.317 N 
HETATM    7  H   UNL     1      41.842 -13.715   1.519  1.00  0.00     0.169 HD
HETATM    8  O   UNL     1      38.906 -13.155   2.666  1.00  0.00    -0.262 OA
BRANCH   6   9
HETATM    9  C   UNL     1      40.434 -13.368   0.054  1.00  0.00     0.065 A 
HETATM   10  C   UNL     1      39.785 -14.389  -0.651  1.00  0.00     0.038 A 
HETATM   11  C   UNL     1      39.395 -14.199  -1.980  1.00  0.00    -0.059 A 
HETATM   12  C   UNL     1      38.692 -15.285  -2.741  1.00  0.00     0.048 C 
HETATM   13  C   UNL     1      39.662 -12.973  -2.596  1.00  0.00     0.020 A 
HETATM   14  C   UNL     1      40.314 -11.945  -1.896  1.00  0.00    -0.005 A 
HETATM   15  C   UNL     1      40.708 -12.133  -0.555  1.00  0.00     0.093 A 
HETATM   16  C   UNL     1      40.588 -10.711  -2.502  1.00  0.00     0.015 A 
HETATM   17  N   UNL     1      41.335 -11.156   0.144  1.00  0.00    -0.258 NA
HETATM   18  C   UNL     1      41.583  -9.981  -0.475  1.00  0.00     0.117 A 
HETATM   19  C   UNL     1      41.232  -9.713  -1.783  1.00  0.00     0.020 A 
ENDBRANCH   6   9
ENDBRANCH   1   5
BRANCH   2  20
HETATM   20  C   UNL     1      40.901 -14.661   6.059  1.00  0.00     0.123 C 
BRANCH  20  21
HETATM   21  C   UNL     1      41.610 -16.008   6.183  1.00  0.00     0.024 C 
BRANCH  21  22
HETATM   22  C   UNL     1      43.037 -15.967   5.632  1.00  0.00     0.042 C 
BRANCH  22  23
HETATM   23  C   UNL     1      43.198 -16.817   4.412  1.00  0.00    -0.030 A 
HETATM   24  C   UNL     1      43.504 -18.216   4.381  1.00  0.00    -0.002 A 
HETATM   25  C   UNL     1      43.558 -18.603   3.042  1.00  0.00     0.042 A 
HETATM   26  C   UNL     1      43.746 -19.190   5.373  1.00  0.00     0.014 A 
HETATM   27  C   UNL     1      43.838 -19.916   2.644  1.00  0.00     0.030 A 
HETATM   28  N   UNL     1      43.293 -17.485   2.287  1.00  0.00    -0.365 N 
HETATM   29  C   UNL     1      44.073 -20.862   3.646  1.00  0.00     0.002 A 
HETATM   30  C   UNL     1      44.028 -20.506   4.992  1.00  0.00     0.001 A 
HETATM   31  H   UNL     1      43.266 -17.471   1.278  1.00  0.00     0.165 HD
HETATM   32  C   UNL     1      43.075 -16.405   3.100  1.00  0.00     0.096 A 
ENDBRANCH  22  23
ENDBRANCH  21  22
ENDBRANCH  20  21
ENDBRANCH   2  20
TORSDOF 6
ENDMDL
MODEL 3
REMARK VINA RESULT:      -9.0      3.172      7.737
REMARK  6 active torsions:
REMARK  status: ('A' for Active; 'I' for Inactive)
REMARK    1  A    between atoms: C_4  and  N_5 
REMARK       I    between atoms: N_5  and  C_6 
REMARK    2  A    between atoms: C_6  and  C_7 
REMARK       I    between atoms: C_7  and  N_8 
REMARK    3  A    between atoms: N_8  and  C_9 
REMARK    4  A    between atoms: C_9  and  C_10 
REMARK    5  A    between atoms: C_10  and  C_11 
REMARK    6  A    between atoms: C_11  and  C_12 
ROOT
HETATM    1  C   UNL     1      41.159 -13.994   1.036  1.00  0.00     0.309 C 
HETATM    2  N   UNL     1      41.727 -13.026   1.836  1.00  0.00    -0.353 N 
HETATM    3  O   UNL     1      40.609 -13.810  -0.039  1.00  0.00    -0.262 OA
HETATM    4  H   UNL     1      42.096 -13.345   2.729  1.00  0.00     0.162 HD
ENDROOT
BRANCH   1   5
HETATM    5  C   UNL     1      41.248 -15.415   1.639  1.00  0.00     0.314 C 
HETATM    6  N   UNL     1      42.485 -15.684   2.169  1.00  0.00    -0.317 N 
HETATM    7  H   UNL     1      43.179 -14.933   2.117  1.00  0.00     0.169 HD
HETATM    8  O   UNL     1      40.260 -16.136   1.581  1.00  0.00    -0.262 OA
BRANCH   6   9
HETATM    9  C   UNL     1      42.948 -16.870   2.782  1.00  0.00     0.065 A 
HETATM   10  C   UNL     1      43.138 -18.066   2.078  1.00  0.00     0.038 A 
HETATM   11  C   UNL     1      43.601 -19.210   2.734  1.00  0.00    -0.059 A 
HETATM   12  C   UNL     1      43.814 -20.495   1.987  1.00  0.00     0.048 C 
HETATM   13  C   UNL     1      43.874 -19.144   4.104  1.00  0.00     0.020 A 
HETATM   14  C   UNL     1      43.685 -17.949   4.816  1.00  0.00    -0.005 A 
HETATM   15  C   UNL     1      43.218 -16.792   4.158  1.00  0.00     0.093 A 
HETATM   16  C   UNL     1      43.954 -17.869   6.189  1.00  0.00     0.015 A 
HETATM   17  N   UNL     1      43.031 -15.625   4.821  1.00  0.00    -0.258 NA
HETATM   18  C   UNL     1      43.300 -15.588   6.144  1.00  0.00     0.117 A 
HETATM   19  C   UNL     1      43.759 -16.671   6.865  1.00  0.00     0.020 A 
ENDBRANCH   6   9
ENDBRANCH   1   5
BRANCH   2  20
HETATM   20  C   UNL     1      41.638 -11.616   1.538  1.00  0.00     0.123 C 
BRANCH  20  21
HETATM   21  C   UNL     1      42.111 -10.740   2.697  1.00  0.00     0.024 C 
BRANCH  21  22
HETATM   22  C   UNL     1      43.157 -11.441   3.567  1.00  0.00     0.042 C 
BRANCH  22  23
HETATM   23  C   UNL     1      42.952 -11.174   5.024  1.00  0.00    -0.030 A 
HETATM   24  C   UNL     1      43.972 -11.072   6.024  1.00  0.00    -0.002 A 
HETATM   25  C   UNL     1      43.341 -10.814   7.241  1.00  0.00     0.042 A 
HETATM   26  C   UNL     1      45.379 -11.181   6.006  1.00  0.00     0.014 A 
HETATM   27  C   UNL     1      44.044 -10.657   8.442  1.00  0.00     0.030 A 
HETATM   28  N   UNL     1      41.990 -10.760   6.991  1.00  0.00    -0.365 N 
HETATM   29  C   UNL     1      45.437 -10.768   8.396  1.00  0.00     0.002 A 
HETATM   30  C   UNL     1      46.097 -11.027   7.197  1.00  0.00     0.001 A 
HETATM   31  H   UNL     1      41.286 -10.586   7.695  1.00  0.00     0.165 HD
HETATM   32  C   UNL     1      41.744 -10.975   5.662  1.00  0.00     0.096 A 
ENDBRANCH  22  23
ENDBRANCH  21  22
ENDBRANCH  20  21
ENDBRANCH   2  20
TORSDOF 6
ENDMDL
MODEL 4
REMARK VINA RESULT:      -9.0      4.038      5.900
REMARK  6 active torsions:
REMARK  status: ('A' for Active; 'I' for Inactive)
REMARK    1  A    between atoms: C_4  and  N_5 
REMARK       I    between atoms: N_5  and  C_6 
REMARK    2  A    between atoms: C_6  and  C_7 
REMARK       I    between atoms: C_7  and  N_8 
REMARK    3  A    between atoms: N_8  and  C_9 
REMARK    4  A    between atoms: C_9  and  C_10 
REMARK    5  A    between atoms: C_10  and  C_11 
REMARK    6  A    between atoms: C_11  and  C_12 
ROOT
HETATM    1  C   UNL     1      40.353 -12.474   5.737  1.00  0.00     0.309 C 
HETATM    2  N   UNL     1      41.256 -13.397   5.257  1.00  0.00    -0.353 N 
HETATM    3  O   UNL     1      39.166 -12.669   5.950  1.00  0.00    -0.262 OA
HETATM    4  H   UNL     1      42.198 -13.052   5.084  1.00  0.00     0.162 HD
ENDROOT
BRANCH   1   5
HETATM    5  C   UNL     1      40.974 -11.079   5.981  1.00  0.00     0.314 C 
HETATM    6  N   UNL     1      41.699 -11.025   7.145  1.00  0.00    -0.317 N 
HETATM    7  H   UNL     1      41.753 -11.888   7.693  1.00  0.00     0.169 HD
HETATM    8  O   UNL     1      40.764 -10.196   5.161  1.00  0.00    -0.262 OA
BRANCH   6   9
HETATM    9  C   UNL     1      42.389  -9.928   7.709  1.00  0.00     0.065 A 
HETATM   10  C   UNL     1      41.735  -8.807   8.236  1.00  0.00     0.038 A 
HETATM   11  C   UNL     1      42.467  -7.749   8.784  1.00  0.00    -0.059 A 
HETATM   12  C   UNL     1      41.774  -6.548   9.358  1.00  0.00     0.048 C 
HETATM   13  C   UNL     1      43.863  -7.827   8.801  1.00  0.00     0.020 A 
HETATM   14  C   UNL     1      44.525  -8.947   8.274  1.00  0.00    -0.005 A 
HETATM   15  C   UNL     1      43.791 -10.016   7.720  1.00  0.00     0.093 A 
HETATM   16  C   UNL     1      45.924  -9.037   8.283  1.00  0.00     0.015 A 
HETATM   17  N   UNL     1      44.405 -11.109   7.207  1.00  0.00    -0.258 NA
HETATM   18  C   UNL     1      45.755 -11.159   7.234  1.00  0.00     0.117 A 
HETATM   19  C   UNL     1      46.550 -10.159   7.756  1.00  0.00     0.020 A 
ENDBRANCH   6   9
ENDBRANCH   1   5
BRANCH   2  20
HETATM   20  C   UNL     1      40.868 -14.721   4.829  1.00  0.00     0.123 C 
BRANCH  20  21
HETATM   21  C   UNL     1      41.465 -15.099   3.475  1.00  0.00     0.024 C 
BRANCH  21  22
HETATM   22  C   UNL     1      42.991 -15.208   3.522  1.00  0.00     0.042 C 
BRANCH  22  23
HETATM   23  C   UNL     1      43.448 -16.475   4.170  1.00  0.00    -0.030 A 
HETATM   24  C   UNL     1      43.458 -17.780   3.581  1.00  0.00    -0.002 A 
HETATM   25  C   UNL     1      43.963 -18.666   4.533  1.00  0.00     0.042 A 
HETATM   26  C   UNL     1      43.078 -18.291   2.322  1.00  0.00     0.014 A 
HETATM   27  C   UNL     1      44.111 -20.037   4.289  1.00  0.00     0.030 A 
HETATM   28  N   UNL     1      44.251 -17.928   5.657  1.00  0.00    -0.365 N 
HETATM   29  C   UNL     1      43.728 -20.517   3.034  1.00  0.00     0.002 A 
HETATM   30  C   UNL     1      43.218 -19.658   2.062  1.00  0.00     0.001 A 
HETATM   31  H   UNL     1      44.633 -18.313   6.510  1.00  0.00     0.165 HD
HETATM   32  C   UNL     1      43.945 -16.610   5.451  1.00  0.00     0.096 A 
ENDBRANCH  22  23
ENDBRANCH  21  22
ENDBRANCH  20  21
ENDBRANCH   2  20
TORSDOF 6
ENDMDL
MODEL 5
REMARK VINA RESULT:      -9.0      2.232      2.755
REMARK  6 active torsions:
REMARK  status: ('A' for Active; 'I' for Inactive)
REMARK    1  A    between atoms: C_4  and  N_5 
REMARK       I    between atoms: N_5  and  C_6 
REMARK    2  A    between atoms: C_6  and  C_7 
REMARK       I    between atoms: C_7  and  N_8 
REMARK    3  A    between atoms: N_8  and  C_9 
REMARK    4  A    between atoms: C_9  and  C_10 
REMARK    5  A    between atoms: C_10  and  C_11 
REMARK    6  A    between atoms: C_11  and  C_12 
ROOT
HETATM    1  C   UNL     1      41.095 -13.292   4.038  1.00  0.00     0.309 C 
HETATM    2  N   UNL     1      42.045 -13.660   4.967  1.00  0.00    -0.353 N 
HETATM    3  O   UNL     1      39.885 -13.401   4.163  1.00  0.00    -0.262 OA
HETATM    4  H   UNL     1      43.015 -13.552   4.680  1.00  0.00     0.162 HD
ENDROOT
BRANCH   1   5
HETATM    5  C   UNL     1      41.702 -12.721   2.736  1.00  0.00     0.314 C 
HETATM    6  N   UNL     1      40.742 -12.338   1.834  1.00  0.00    -0.317 N 
HETATM    7  H   UNL     1      39.767 -12.458   2.123  1.00  0.00     0.169 HD
HETATM    8  O   UNL     1      42.921 -12.677   2.631  1.00  0.00    -0.262 OA
BRANCH   6   9
HETATM    9  C   UNL     1      40.908 -11.796   0.540  1.00  0.00     0.065 A 
HETATM   10  C   UNL     1      41.472 -10.534   0.310  1.00  0.00     0.038 A 
HETATM   11  C   UNL     1      41.615 -10.046  -0.992  1.00  0.00    -0.059 A 
HETATM   12  C   UNL     1      42.226  -8.699  -1.249  1.00  0.00     0.048 C 
HETATM   13  C   UNL     1      41.188 -10.836  -2.064  1.00  0.00     0.020 A 
HETATM   14  C   UNL     1      40.620 -12.101  -1.841  1.00  0.00    -0.005 A 
HETATM   15  C   UNL     1      40.475 -12.597  -0.529  1.00  0.00     0.093 A 
HETATM   16  C   UNL     1      40.187 -12.903  -2.906  1.00  0.00     0.015 A 
HETATM   17  N   UNL     1      39.933 -13.815  -0.287  1.00  0.00    -0.258 NA
HETATM   18  C   UNL     1      39.526 -14.558  -1.339  1.00  0.00     0.117 A 
HETATM   19  C   UNL     1      39.631 -14.151  -2.653  1.00  0.00     0.020 A 
ENDBRANCH   6   9
ENDBRANCH   1   5
BRANCH   2  20
HETATM   20  C   UNL     1      41.713 -14.342   6.196  1.00  0.00     0.123 C 
BRANCH  20  21
HETATM   21  C   UNL     1      42.137 -15.809   6.187  1.00  0.00     0.024 C 
BRANCH  21  22
HETATM   22  C   UNL     1      43.521 -16.011   5.565  1.00  0.00     0.042 C 
BRANCH  22  23
HETATM   23  C   UNL     1      43.468 -16.847   4.327  1.00  0.00    -0.030 A 
HETATM   24  C   UNL     1      43.669 -18.262   4.243  1.00  0.00    -0.002 A 
HETATM   25  C   UNL     1      43.529 -18.627   2.904  1.00  0.00     0.042 A 
HETATM   26  C   UNL     1      43.962 -19.269   5.187  1.00  0.00     0.014 A 
HETATM   27  C   UNL     1      43.664 -19.949   2.460  1.00  0.00     0.030 A 
HETATM   28  N   UNL     1      43.253 -17.479   2.200  1.00  0.00    -0.365 N 
HETATM   29  C   UNL     1      43.954 -20.927   3.416  1.00  0.00     0.002 A 
HETATM   30  C   UNL     1      44.101 -20.594   4.761  1.00  0.00     0.001 A 
HETATM   31  H   UNL     1      43.102 -17.444   1.202  1.00  0.00     0.165 HD
HETATM   32  C   UNL     1      43.214 -16.402   3.044  1.00  0.00     0.096 A 
ENDBRANCH  22  23
ENDBRANCH  21  22
ENDBRANCH  20  21
ENDBRANCH   2  20
TORSDOF 6
ENDMDL
MODEL 6
REMARK VINA RESULT:      -8.8      2.965      7.475
REMARK  6 active torsions:
REMARK  status: ('A' for Active; 'I' for Inactive)
REMARK    1  A    between atoms: C_4  and  N_5 
REMARK       I    between atoms: N_5  and  C_6 
REMARK    2  A    between atoms: C_6  and  C_7 
REMARK       I    between atoms: C_7  and  N_8 
REMARK    3  A    between atoms: N_8  and  C_9 
REMARK    4  A    between atoms: C_9  and  C_10 
REMARK    5  A    between atoms: C_10  and  C_11 
REMARK    6  A    between atoms: C_11  and  C_12 
ROOT
HETATM    1  C   UNL     1      40.239 -13.718   1.107  1.00  0.00     0.309 C 
HETATM    2  N   UNL     1      39.838 -12.873   2.118  1.00  0.00    -0.353 N 
HETATM    3  O   UNL     1      40.301 -13.442  -0.082  1.00  0.00    -0.262 OA
HETATM    4  H   UNL     1      39.791 -13.281   3.049  1.00  0.00     0.162 HD
ENDROOT
BRANCH   1   5
HETATM    5  C   UNL     1      40.605 -15.136   1.603  1.00  0.00     0.314 C 
HETATM    6  N   UNL     1      41.834 -15.177   2.213  1.00  0.00    -0.317 N 
HETATM    7  H   UNL     1      42.343 -14.291   2.278  1.00  0.00     0.169 HD
HETATM    8  O   UNL     1      39.811 -16.046   1.407  1.00  0.00    -0.262 OA
BRANCH   6   9
HETATM    9  C   UNL     1      42.511 -16.286   2.769  1.00  0.00     0.065 A 
HETATM   10  C   UNL     1      42.648 -17.508   2.099  1.00  0.00     0.038 A 
HETATM   11  C   UNL     1      43.330 -18.573   2.695  1.00  0.00    -0.059 A 
HETATM   12  C   UNL     1      43.490 -19.883   1.980  1.00  0.00     0.048 C 
HETATM   13  C   UNL     1      43.875 -18.401   3.970  1.00  0.00     0.020 A 
HETATM   14  C   UNL     1      43.740 -17.179   4.649  1.00  0.00    -0.005 A 
HETATM   15  C   UNL     1      43.053 -16.101   4.051  1.00  0.00     0.093 A 
HETATM   16  C   UNL     1      44.281 -16.993   5.929  1.00  0.00     0.015 A 
HETATM   17  N   UNL     1      42.911 -14.912   4.683  1.00  0.00    -0.258 NA
HETATM   18  C   UNL     1      43.445 -14.772   5.917  1.00  0.00     0.117 A 
HETATM   19  C   UNL     1      44.132 -15.772   6.574  1.00  0.00     0.020 A 
ENDBRANCH   6   9
ENDBRANCH   1   5
BRANCH   2  20
HETATM   20  C   UNL     1      39.319 -11.548   1.871  1.00  0.00     0.123 C 
BRANCH  20  21
HETATM   21  C   UNL     1      40.366 -10.457   2.088  1.00  0.00     0.024 C 
BRANCH  21  22
HETATM   22  C   UNL     1      40.734 -10.290   3.564  1.00  0.00     0.042 C 
BRANCH  22  23
HETATM   23  C   UNL     1      42.095 -10.828   3.873  1.00  0.00    -0.030 A 
HETATM   24  C   UNL     1      42.778 -10.753   5.129  1.00  0.00    -0.002 A 
HETATM   25  C   UNL     1      44.013 -11.381   4.973  1.00  0.00     0.042 A 
HETATM   26  C   UNL     1      42.458 -10.202   6.388  1.00  0.00     0.014 A 
HETATM   27  C   UNL     1      44.946 -11.489   6.012  1.00  0.00     0.030 A 
HETATM   28  N   UNL     1      44.080 -11.822   3.672  1.00  0.00    -0.365 N 
HETATM   29  C   UNL     1      44.604 -10.936   7.250  1.00  0.00     0.002 A 
HETATM   30  C   UNL     1      43.378 -10.301   7.437  1.00  0.00     0.001 A 
HETATM   31  H   UNL     1      44.867 -12.316   3.277  1.00  0.00     0.165 HD
HETATM   32  C   UNL     1      42.932 -11.495   3.001  1.00  0.00     0.096 A 
ENDBRANCH  22  23
ENDBRANCH  21  22
ENDBRANCH  20  21
ENDBRANCH   2  20
TORSDOF 6
ENDMDL
MODEL 7
REMARK VINA RESULT:      -8.8      4.111      6.295
REMARK  6 active torsions:
REMARK  status: ('A' for Active; 'I' for Inactive)
REMARK    1  A    between atoms: C_4  and  N_5 
REMARK       I    between atoms: N_5  and  C_6 
REMARK    2  A    between atoms: C_6  and  C_7 
REMARK       I    between atoms: C_7  and  N_8 
REMARK    3  A    between atoms: N_8  and  C_9 
REMARK    4  A    between atoms: C_9  and  C_10 
REMARK    5  A    between atoms: C_10  and  C_11 
REMARK    6  A    between atoms: C_11  and  C_12 
ROOT
HETATM    1  C   UNL     1      41.736 -13.195   5.191  1.00  0.00     0.309 C 
HETATM    2  N   UNL     1      41.693 -13.617   3.879  1.00  0.00    -0.353 N 
HETATM    3  O   UNL     1      41.100 -13.668   6.121  1.00  0.00    -0.262 OA
HETATM    4  H   UNL     1      42.245 -13.076   3.218  1.00  0.00     0.162 HD
ENDROOT
BRANCH   1   5
HETATM    5  C   UNL     1      42.681 -11.993   5.416  1.00  0.00     0.314 C 
HETATM    6  N   UNL     1      42.859 -11.708   6.747  1.00  0.00    -0.317 N 
HETATM    7  H   UNL     1      42.372 -12.313   7.414  1.00  0.00     0.169 HD
HETATM    8  O   UNL     1      43.150 -11.428   4.437  1.00  0.00    -0.262 OA
BRANCH   6   9
HETATM    9  C   UNL     1      43.628 -10.681   7.338  1.00  0.00     0.065 A 
HETATM   10  C   UNL     1      45.028 -10.707   7.382  1.00  0.00     0.038 A 
HETATM   11  C   UNL     1      45.740  -9.662   7.978  1.00  0.00    -0.059 A 
HETATM   12  C   UNL     1      47.240  -9.678   8.023  1.00  0.00     0.048 C 
HETATM   13  C   UNL     1      45.035  -8.587   8.528  1.00  0.00     0.020 A 
HETATM   14  C   UNL     1      43.631  -8.555   8.489  1.00  0.00    -0.005 A 
HETATM   15  C   UNL     1      42.909  -9.607   7.888  1.00  0.00     0.093 A 
HETATM   16  C   UNL     1      42.912  -7.484   9.038  1.00  0.00     0.015 A 
HETATM   17  N   UNL     1      41.555  -9.598   7.834  1.00  0.00    -0.258 NA
HETATM   18  C   UNL     1      40.898  -8.549   8.375  1.00  0.00     0.117 A 
HETATM   19  C   UNL     1      41.524  -7.480   8.981  1.00  0.00     0.020 A 
ENDBRANCH   6   9
ENDBRANCH   1   5
BRANCH   2  20
HETATM   20  C   UNL     1      40.777 -14.632   3.414  1.00  0.00     0.123 C 
BRANCH  20  21
HETATM   21  C   UNL     1      41.465 -15.701   2.568  1.00  0.00     0.024 C 
BRANCH  21  22
HETATM   22  C   UNL     1      42.982 -15.716   2.770  1.00  0.00     0.042 C 
BRANCH  22  23
HETATM   23  C   UNL     1      43.414 -16.775   3.732  1.00  0.00    -0.030 A 
HETATM   24  C   UNL     1      43.526 -18.178   3.465  1.00  0.00    -0.002 A 
HETATM   25  C   UNL     1      43.962 -18.795   4.637  1.00  0.00     0.042 A 
HETATM   26  C   UNL     1      43.290 -18.982   2.329  1.00  0.00     0.014 A 
HETATM   27  C   UNL     1      44.178 -20.175   4.732  1.00  0.00     0.030 A 
HETATM   28  N   UNL     1      44.112 -17.806   5.581  1.00  0.00    -0.365 N 
HETATM   29  C   UNL     1      43.939 -20.949   3.593  1.00  0.00     0.002 A 
HETATM   30  C   UNL     1      43.500 -20.363   2.407  1.00  0.00     0.001 A 
HETATM   31  H   UNL     1      44.420 -17.965   6.530  1.00  0.00     0.165 HD
HETATM   32  C   UNL     1      43.785 -16.588   5.049  1.00  0.00     0.096 A 
ENDBRANCH  22  23
ENDBRANCH  21  22
ENDBRANCH  20  21
ENDBRANCH   2  20
TORSDOF 6
ENDMDL
MODEL 8
REMARK VINA RESULT:      -8.8      5.723      7.746
REMARK  6 active torsions:
REMARK  status: ('A' for Active; 'I' for Inactive)
REMARK    1  A    between atoms: C_4  and  N_5 
REMARK       I    between atoms: N_5  and  C_6 
REMARK    2  A    between atoms: C_6  and  C_7 
REMARK       I    between atoms: C_7  and  N_8 
REMARK    3  A    between atoms: N_8  and  C_9 
REMARK    4  A    between atoms: C_9  and  C_10 
REMARK    5  A    between atoms: C_10  and  C_11 
REMARK    6  A    between atoms: C_11  and  C_12 
ROOT
HETATM    1  C   UNL     1      45.270 -10.135   7.725  1.00  0.00     0.309 C 
HETATM    2  N   UNL     1      44.300 -10.909   7.125  1.00  0.00    -0.353 N 
HETATM    3  O   UNL     1      46.477 -10.247   7.574  1.00  0.00    -0.262 OA
HETATM    4  H   UNL     1      43.340 -10.718   7.405  1.00  0.00     0.162 HD
ENDROOT
BRANCH   1   5
HETATM    5  C   UNL     1      44.694  -9.065   8.681  1.00  0.00     0.314 C 
HETATM    6  N   UNL     1      43.748  -9.577   9.532  1.00  0.00    -0.317 N 
HETATM    7  H   UNL     1      43.549 -10.578   9.448  1.00  0.00     0.169 HD
HETATM    8  O   UNL     1      45.107  -7.917   8.586  1.00  0.00    -0.262 OA
BRANCH   6   9
HETATM    9  C   UNL     1      42.993  -8.910  10.523  1.00  0.00     0.065 A 
HETATM   10  C   UNL     1      43.554  -8.433  11.715  1.00  0.00     0.038 A 
HETATM   11  C   UNL     1      42.762  -7.776  12.661  1.00  0.00    -0.059 A 
HETATM   12  C   UNL     1      43.356  -7.255  13.937  1.00  0.00     0.048 C 
HETATM   13  C   UNL     1      41.399  -7.601  12.401  1.00  0.00     0.020 A 
HETATM   14  C   UNL     1      40.829  -8.078  11.209  1.00  0.00    -0.005 A 
HETATM   15  C   UNL     1      41.626  -8.741  10.252  1.00  0.00     0.093 A 
HETATM   16  C   UNL     1      39.465  -7.911  10.937  1.00  0.00     0.015 A 
HETATM   17  N   UNL     1      41.101  -9.207   9.093  1.00  0.00    -0.258 NA
HETATM   18  C   UNL     1      39.781  -9.028   8.867  1.00  0.00     0.117 A 
HETATM   19  C   UNL     1      38.931  -8.392   9.748  1.00  0.00     0.020 A 
ENDBRANCH   6   9
ENDBRANCH   1   5
BRANCH   2  20
HETATM   20  C   UNL     1      44.612 -12.055   6.304  1.00  0.00     0.123 C 
BRANCH  20  21
HETATM   21  C   UNL     1      43.896 -13.322   6.767  1.00  0.00     0.024 C 
BRANCH  21  22
HETATM   22  C   UNL     1      43.144 -14.015   5.627  1.00  0.00     0.042 C 
BRANCH  22  23
HETATM   23  C   UNL     1      43.463 -15.474   5.544  1.00  0.00    -0.030 A 
HETATM   24  C   UNL     1      43.401 -16.295   4.372  1.00  0.00    -0.002 A 
HETATM   25  C   UNL     1      43.780 -17.585   4.744  1.00  0.00     0.042 A 
HETATM   26  C   UNL     1      43.052 -16.059   3.025  1.00  0.00     0.014 A 
HETATM   27  C   UNL     1      43.831 -18.651   3.838  1.00  0.00     0.030 A 
HETATM   28  N   UNL     1      44.063 -17.550   6.089  1.00  0.00    -0.365 N 
HETATM   29  C   UNL     1      43.482 -18.390   2.510  1.00  0.00     0.002 A 
HETATM   30  C   UNL     1      43.097 -17.113   2.107  1.00  0.00     0.001 A 
HETATM   31  H   UNL     1      44.365 -18.348   6.630  1.00  0.00     0.165 HD
HETATM   32  C   UNL     1      43.875 -16.286   6.581  1.00  0.00     0.096 A 
ENDBRANCH  22  23
ENDBRANCH  21  22
ENDBRANCH  20  21
ENDBRANCH   2  20
TORSDOF 6
ENDMDL
MODEL 9
REMARK VINA RESULT:      -8.6      2.271      3.823
REMARK  6 active torsions:
REMARK  status: ('A' for Active; 'I' for Inactive)
REMARK    1  A    between atoms: C_4  and  N_5 
REMARK       I    between atoms: N_5  and  C_6 
REMARK    2  A    between atoms: C_6  and  C_7 
REMARK       I    between atoms: C_7  and  N_8 
REMARK    3  A    between atoms: N_8  and  C_9 
REMARK    4  A    between atoms: C_9  and  C_10 
REMARK    5  A    between atoms: C_10  and  C_11 
REMARK    6  A    between atoms: C_11  and  C_12 
ROOT
HETATM    1  C   UNL     1      41.868 -14.819   2.741  1.00  0.00     0.309 C 
HETATM    2  N   UNL     1      41.588 -15.250   4.020  1.00  0.00    -0.353 N 
HETATM    3  O   UNL     1      42.950 -14.423   2.335  1.00  0.00    -0.262 OA
HETATM    4  H   UNL     1      40.618 -15.495   4.207  1.00  0.00     0.162 HD
ENDROOT
BRANCH   1   5
HETATM    5  C   UNL     1      40.640 -14.850   1.803  1.00  0.00     0.314 C 
HETATM    6  N   UNL     1      40.670 -13.847   0.867  1.00  0.00    -0.317 N 
HETATM    7  H   UNL     1      41.481 -13.223   0.889  1.00  0.00     0.169 HD
HETATM    8  O   UNL     1      39.792 -15.715   1.980  1.00  0.00    -0.262 OA
BRANCH   6   9
HETATM    9  C   UNL     1      39.723 -13.543  -0.137  1.00  0.00     0.065 A 
HETATM   10  C   UNL     1      39.525 -14.351  -1.265  1.00  0.00     0.038 A 
HETATM   11  C   UNL     1      38.573 -14.005  -2.228  1.00  0.00    -0.059 A 
HETATM   12  C   UNL     1      38.349 -14.868  -3.436  1.00  0.00     0.048 C 
HETATM   13  C   UNL     1      37.819 -12.841  -2.050  1.00  0.00     0.020 A 
HETATM   14  C   UNL     1      38.013 -12.027  -0.922  1.00  0.00    -0.005 A 
HETATM   15  C   UNL     1      38.972 -12.372   0.052  1.00  0.00     0.093 A 
HETATM   16  C   UNL     1      37.264 -10.857  -0.732  1.00  0.00     0.015 A 
HETATM   17  N   UNL     1      39.177 -11.605   1.150  1.00  0.00    -0.258 NA
HETATM   18  C   UNL     1      38.436 -10.485   1.298  1.00  0.00     0.117 A 
HETATM   19  C   UNL     1      37.478 -10.073   0.395  1.00  0.00     0.020 A 
ENDBRANCH   6   9
ENDBRANCH   1   5
BRANCH   2  20
HETATM   20  C   UNL     1      42.548 -15.176   5.097  1.00  0.00     0.123 C 
BRANCH  20  21
HETATM   21  C   UNL     1      42.430 -16.347   6.071  1.00  0.00     0.024 C 
BRANCH  21  22
HETATM   22  C   UNL     1      43.765 -17.064   6.282  1.00  0.00     0.042 C 
BRANCH  22  23
HETATM   23  C   UNL     1      43.753 -18.456   5.735  1.00  0.00    -0.030 A 
HETATM   24  C   UNL     1      43.733 -18.829   4.352  1.00  0.00    -0.002 A 
HETATM   25  C   UNL     1      43.729 -20.222   4.294  1.00  0.00     0.042 A 
HETATM   26  C   UNL     1      43.713 -18.105   3.141  1.00  0.00     0.014 A 
HETATM   27  C   UNL     1      43.710 -20.931   3.086  1.00  0.00     0.030 A 
HETATM   28  N   UNL     1      43.748 -20.680   5.591  1.00  0.00    -0.365 N 
HETATM   29  C   UNL     1      43.691 -20.191   1.901  1.00  0.00     0.002 A 
HETATM   30  C   UNL     1      43.692 -18.797   1.925  1.00  0.00     0.001 A 
HETATM   31  H   UNL     1      43.751 -21.656   5.852  1.00  0.00     0.165 HD
HETATM   32  C   UNL     1      43.762 -19.627   6.466  1.00  0.00     0.096 A 
ENDBRANCH  22  23
ENDBRANCH  21  22
ENDBRANCH  20  21
ENDBRANCH   2  20
TORSDOF 6
ENDMDL
MODEL 10
REMARK VINA RESULT:      -8.6      5.036      8.483
REMARK  6 active torsions:
REMARK  status: ('A' for Active; 'I' for Inactive)
REMARK    1  A    between atoms: C_4  and  N_5 
REMARK       I    between atoms: N_5  and  C_6 
REMARK    2  A    between atoms: C_6  and  C_7 
REMARK       I    between atoms: C_7  and  N_8 
REMARK    3  A    between atoms: N_8  and  C_9 
REMARK    4  A    between atoms: C_9  and  C_10 
REMARK    5  A    between atoms: C_10  and  C_11 
REMARK    6  A    between atoms: C_11  and  C_12 
ROOT
HETATM    1  C   UNL     1      43.028 -11.784   6.160  1.00  0.00     0.309 C 
HETATM    2  N   UNL     1      43.306 -11.655   7.504  1.00  0.00    -0.353 N 
HETATM    3  O   UNL     1      43.152 -10.913   5.312  1.00  0.00    -0.262 OA
HETATM    4  H   UNL     1      43.095 -12.465   8.083  1.00  0.00     0.162 HD
ENDROOT
BRANCH   1   5
HETATM    5  C   UNL     1      42.493 -13.182   5.777  1.00  0.00     0.314 C 
HETATM    6  N   UNL     1      43.041 -13.651   4.610  1.00  0.00    -0.317 N 
HETATM    7  H   UNL     1      43.727 -13.047   4.150  1.00  0.00     0.169 HD
HETATM    8  O   UNL     1      41.665 -13.710   6.508  1.00  0.00    -0.262 OA
BRANCH   6   9
HETATM    9  C   UNL     1      42.786 -14.868   3.937  1.00  0.00     0.065 A 
HETATM   10  C   UNL     1      43.458 -16.059   4.239  1.00  0.00     0.038 A 
HETATM   11  C   UNL     1      43.165 -17.236   3.543  1.00  0.00    -0.059 A 
HETATM   12  C   UNL     1      43.875 -18.519   3.865  1.00  0.00     0.048 C 
HETATM   13  C   UNL     1      42.189 -17.209   2.543  1.00  0.00     0.020 A 
HETATM   14  C   UNL     1      41.512 -16.018   2.235  1.00  0.00    -0.005 A 
HETATM   15  C   UNL     1      41.804 -14.828   2.934  1.00  0.00     0.093 A 
HETATM   16  C   UNL     1      40.532 -15.976   1.233  1.00  0.00     0.015 A 
HETATM   17  N   UNL     1      41.163 -13.667   2.658  1.00  0.00    -0.258 NA
HETATM   18  C   UNL     1      40.225 -13.666   1.685  1.00  0.00     0.117 A 
HETATM   19  C   UNL     1      39.878 -14.783   0.953  1.00  0.00     0.020 A 
ENDBRANCH   6   9
ENDBRANCH   1   5
BRANCH   2  20
HETATM   20  C   UNL     1      43.685 -10.399   8.108  1.00  0.00     0.123 C 
BRANCH  20  21
HETATM   21  C   UNL     1      45.092 -10.432   8.700  1.00  0.00     0.024 C 
BRANCH  21  22
HETATM   22  C   UNL     1      45.217  -9.560   9.951  1.00  0.00     0.042 C 
BRANCH  22  23
HETATM   23  C   UNL     1      44.232  -9.943  11.009  1.00  0.00    -0.030 A 
HETATM   24  C   UNL     1      43.318  -9.069  11.680  1.00  0.00    -0.002 A 
HETATM   25  C   UNL     1      42.587  -9.840  12.584  1.00  0.00     0.042 A 
HETATM   26  C   UNL     1      43.047  -7.686  11.605  1.00  0.00     0.014 A 
HETATM   27  C   UNL     1      41.597  -9.301  13.415  1.00  0.00     0.030 A 
HETATM   28  N   UNL     1      43.038 -11.134  12.466  1.00  0.00    -0.365 N 
HETATM   29  C   UNL     1      41.348  -7.929  13.319  1.00  0.00     0.002 A 
HETATM   30  C   UNL     1      42.062  -7.131  12.428  1.00  0.00     0.001 A 
HETATM   31  H   UNL     1      42.685 -11.913  13.004  1.00  0.00     0.165 HD
HETATM   32  C   UNL     1      44.027 -11.208  11.523  1.00  0.00     0.096 A 
ENDBRANCH  22  23
ENDBRANCH  21  22
ENDBRANCH  20  21
ENDBRANCH   2  20
TORSDOF 6
ENDMDL
