MODEL 1
REMARK VINA RESULT:     -10.1      0.000      0.000
REMARK  8 active torsions:
REMARK  status: ('A' for Active; 'I' for Inactive)
REMARK    1  A    between atoms: C_3  and  N_4 
REMARK       I    between atoms: N_4  and  C_5 
REMARK    2  A    between atoms: C_5  and  C_6 
REMARK    3  A    between atoms: C_7  and  C_8 
REMARK    4  A    between atoms: C_11  and  C_12 
REMARK    5  A    between atoms: C_21  and  C_22 
REMARK    6  A    between atoms: C_22  and  C_23 
REMARK    7  A    between atoms: C_23  and  C_24 
REMARK    8  A    between atoms: C_24  and  O_25 
ROOT
HETATM    1  C   UNL     1      41.653 -13.394   4.589  1.00  0.00     0.062 C 
HETATM    2  C   UNL     1      42.258 -13.770   3.246  1.00  0.00     0.202 C 
HETATM    3  N   UNL     1      41.290 -13.557   2.165  1.00  0.00    -0.083 N 
HETATM    4  C   UNL     1      39.949 -13.378   2.368  1.00  0.00     0.726 A 
HETATM    5  N   UNL     1      39.480 -13.292   3.630  1.00  0.00    -0.192 N 
HETATM    6  N   UNL     1      41.600 -13.548   0.853  1.00  0.00    -0.140 NA
HETATM    7  C   UNL     1      40.380 -13.423   0.313  1.00  0.00     0.166 A 
HETATM    8  N   UNL     1      39.342 -13.308   1.211  1.00  0.00    -0.046 NA
HETATM    9  C   UNL     1      40.322 -13.177   4.734  1.00  0.00     0.037 C 
HETATM   10  C   UNL     1      39.660 -12.782   6.031  1.00  0.00     0.070 C 
HETATM   11  H   UNL     1      38.506 -13.028   3.761  1.00  0.00     0.184 HD
ENDROOT
BRANCH   1  12
HETATM   12  C   UNL     1      42.598 -13.038   5.677  1.00  0.00     0.256 C 
HETATM   13  N   UNL     1      43.105 -11.761   5.579  1.00  0.00    -0.323 N 
HETATM   14  H   UNL     1      42.773 -11.190   4.813  1.00  0.00     0.169 HD
HETATM   15  O   UNL     1      42.832 -13.875   6.541  1.00  0.00    -0.267 OA
BRANCH  13  16
HETATM   16  C   UNL     1      44.037 -11.139   6.449  1.00  0.00     0.041 A 
HETATM   17  C   UNL     1      43.580 -10.155   7.354  1.00  0.00    -0.035 A 
HETATM   18  C   UNL     1      42.131  -9.766   7.471  1.00  0.00     0.050 C 
HETATM   19  C   UNL     1      44.497  -9.541   8.229  1.00  0.00     0.009 A 
HETATM   20  C   UNL     1      45.849  -9.874   8.200  1.00  0.00     0.001 A 
HETATM   21  C   UNL     1      46.300 -10.832   7.303  1.00  0.00     0.002 A 
HETATM   22  C   UNL     1      45.400 -11.459   6.436  1.00  0.00     0.030 A 
ENDBRANCH  13  16
ENDBRANCH   1  12
BRANCH   2  23
HETATM   23  C   UNL     1      42.733 -15.222   3.207  1.00  0.00    -0.028 A 
HETATM   24  C   UNL     1      42.732 -16.024   4.361  1.00  0.00     0.010 A 
HETATM   25  C   UNL     1      43.160 -17.353   4.310  1.00  0.00     0.008 A 
HETATM   26  C   UNL     1      43.593 -17.919   3.105  1.00  0.00    -0.055 A 
HETATM   27  C   UNL     1      43.594 -17.120   1.954  1.00  0.00     0.008 A 
HETATM   28  C   UNL     1      43.170 -15.788   2.002  1.00  0.00     0.010 A 
BRANCH  26  29
HETATM   29  C   UNL     1      44.041 -19.369   3.078  1.00  0.00     0.010 C 
HETATM   30  C   UNL     1      44.076 -19.986   4.479  1.00  0.00     0.015 C 
HETATM   31  C   UNL     1      43.168 -20.201   2.136  1.00  0.00     0.015 C 
ENDBRANCH  26  29
ENDBRANCH   2  23
BRANCH   7  32
HETATM   32  C   UNL     1      40.150 -13.459  -1.153  1.00  0.00     0.085 C 
BRANCH  32  33
HETATM   33  C   UNL     1      40.309 -12.090  -1.815  1.00  0.00     0.034 C 
BRANCH  33  34
HETATM   34  C   UNL     1      41.156 -12.137  -3.082  1.00  0.00     0.164 C 
BRANCH  34  35
HETATM   35  O   UNL     1      41.502 -13.485  -3.380  1.00  0.00    -0.401 OA
HETATM   36  H   UNL     1      42.352 -13.473  -3.851  1.00  0.00     0.209 HD
ENDBRANCH  34  35
ENDBRANCH  33  34
ENDBRANCH  32  33
ENDBRANCH   7  32
TORSDOF 8
ENDMDL
MODEL 2
REMARK VINA RESULT:      -9.5      2.271      7.348
REMARK  8 active torsions:
REMARK  status: ('A' for Active; 'I' for Inactive)
REMARK    1  A    between atoms: C_3  and  N_4 
REMARK       I    between atoms: N_4  and  C_5 
REMARK    2  A    between atoms: C_5  and  C_6 
REMARK    3  A    between atoms: C_7  and  C_8 
REMARK    4  A    between atoms: C_11  and  C_12 
REMARK    5  A    between atoms: C_21  and  C_22 
REMARK    6  A    between atoms: C_22  and  C_23 
REMARK    7  A    between atoms: C_23  and  C_24 
REMARK    8  A    between atoms: C_24  and  O_25 
ROOT
HETATM    1  C   UNL     1      41.184 -12.377   2.274  1.00  0.00     0.062 C 
HETATM    2  C   UNL     1      41.406 -13.120   3.583  1.00  0.00     0.202 C 
HETATM    3  N   UNL     1      42.223 -12.319   4.499  1.00  0.00    -0.083 N 
HETATM    4  C   UNL     1      42.956 -11.230   4.114  1.00  0.00     0.726 A 
HETATM    5  N   UNL     1      42.861 -10.790   2.842  1.00  0.00    -0.192 N 
HETATM    6  N   UNL     1      42.374 -12.580   5.814  1.00  0.00    -0.140 NA
HETATM    7  C   UNL     1      43.271 -11.642   6.149  1.00  0.00     0.166 A 
HETATM    8  N   UNL     1      43.646 -10.789   5.135  1.00  0.00    -0.046 NA
HETATM    9  C   UNL     1      41.901 -11.271   1.954  1.00  0.00     0.037 C 
HETATM   10  C   UNL     1      41.718 -10.477   0.685  1.00  0.00     0.070 C 
HETATM   11  H   UNL     1      43.307  -9.906   2.607  1.00  0.00     0.184 HD
ENDROOT
BRANCH   1  12
HETATM   12  C   UNL     1      39.996 -12.763   1.474  1.00  0.00     0.256 C 
HETATM   13  N   UNL     1      40.248 -12.888   0.126  1.00  0.00    -0.323 N 
HETATM   14  H   UNL     1      41.200 -12.738  -0.181  1.00  0.00     0.169 HD
HETATM   15  O   UNL     1      38.933 -12.940   2.059  1.00  0.00    -0.267 OA
BRANCH  13  16
HETATM   16  C   UNL     1      39.320 -13.225  -0.893  1.00  0.00     0.041 A 
HETATM   17  C   UNL     1      38.359 -12.268  -1.289  1.00  0.00    -0.035 A 
HETATM   18  C   UNL     1      38.302 -10.881  -0.707  1.00  0.00     0.050 C 
HETATM   19  C   UNL     1      37.441 -12.590  -2.308  1.00  0.00     0.009 A 
HETATM   20  C   UNL     1      37.456 -13.842  -2.916  1.00  0.00     0.001 A 
HETATM   21  C   UNL     1      38.392 -14.787  -2.519  1.00  0.00     0.002 A 
HETATM   22  C   UNL     1      39.317 -14.478  -1.517  1.00  0.00     0.030 A 
ENDBRANCH  13  16
ENDBRANCH   1  12
BRANCH   2  23
HETATM   23  C   UNL     1      42.078 -14.477   3.376  1.00  0.00    -0.028 A 
HETATM   24  C   UNL     1      41.866 -15.542   4.268  1.00  0.00     0.010 A 
HETATM   25  C   UNL     1      42.479 -16.780   4.062  1.00  0.00     0.008 A 
HETATM   26  C   UNL     1      43.313 -16.991   2.957  1.00  0.00    -0.055 A 
HETATM   27  C   UNL     1      43.524 -15.930   2.067  1.00  0.00     0.008 A 
HETATM   28  C   UNL     1      42.915 -14.687   2.272  1.00  0.00     0.010 A 
BRANCH  26  29
HETATM   29  C   UNL     1      43.956 -18.352   2.753  1.00  0.00     0.010 C 
HETATM   30  C   UNL     1      44.523 -18.919   4.058  1.00  0.00     0.015 C 
HETATM   31  C   UNL     1      42.977 -19.335   2.109  1.00  0.00     0.015 C 
ENDBRANCH  26  29
ENDBRANCH   2  23
BRANCH   7  32
HETATM   32  C   UNL     1      43.863 -11.554   7.507  1.00  0.00     0.085 C 
BRANCH  32  33
HETATM   33  C   UNL     1      45.311 -11.063   7.496  1.00  0.00     0.034 C 
BRANCH  33  34
HETATM   34  C   UNL     1      45.477  -9.688   8.134  1.00  0.00     0.164 C 
BRANCH  34  35
HETATM   35  O   UNL     1      46.672  -9.078   7.657  1.00  0.00    -0.401 OA
HETATM   36  H   UNL     1      46.617  -9.043   6.687  1.00  0.00     0.209 HD
ENDBRANCH  34  35
ENDBRANCH  33  34
ENDBRANCH  32  33
ENDBRANCH   7  32
TORSDOF 8
ENDMDL
MODEL 3
REMARK VINA RESULT:      -9.1      2.373      7.034
REMARK  8 active torsions:
REMARK  status: ('A' for Active; 'I' for Inactive)
REMARK    1  A    between atoms: C_3  and  N_4 
REMARK       I    between atoms: N_4  and  C_5 
REMARK    2  A    between atoms: C_5  and  C_6 
REMARK    3  A    between atoms: C_7  and  C_8 
REMARK    4  A    between atoms: C_11  and  C_12 
REMARK    5  A    between atoms: C_21  and  C_22 
REMARK    6  A    between atoms: C_22  and  C_23 
REMARK    7  A    between atoms: C_23  and  C_24 
REMARK    8  A    between atoms: C_24  and  O_25 
ROOT
HETATM    1  C   UNL     1      40.762 -14.095   3.282  1.00  0.00     0.062 C 
HETATM    2  C   UNL     1      40.543 -13.265   4.537  1.00  0.00     0.202 C 
HETATM    3  N   UNL     1      39.743 -12.074   4.237  1.00  0.00    -0.083 N 
HETATM    4  C   UNL     1      39.522 -11.603   2.971  1.00  0.00     0.726 A 
HETATM    5  N   UNL     1      39.975 -12.314   1.917  1.00  0.00    -0.192 N 
HETATM    6  N   UNL     1      39.164 -11.288   5.167  1.00  0.00    -0.140 NA
HETATM    7  C   UNL     1      38.662 -10.317   4.391  1.00  0.00     0.166 A 
HETATM    8  N   UNL     1      38.854 -10.480   3.037  1.00  0.00    -0.046 NA
HETATM    9  C   UNL     1      40.483 -13.604   2.048  1.00  0.00     0.037 C 
HETATM   10  C   UNL     1      40.658 -14.378   0.765  1.00  0.00     0.070 C 
HETATM   11  H   UNL     1      39.689 -12.020   0.985  1.00  0.00     0.184 HD
ENDROOT
BRANCH   1  12
HETATM   12  C   UNL     1      41.063 -15.535   3.470  1.00  0.00     0.256 C 
HETATM   13  N   UNL     1      42.358 -15.879   3.157  1.00  0.00    -0.323 N 
HETATM   14  H   UNL     1      42.976 -15.134   2.864  1.00  0.00     0.169 HD
HETATM   15  O   UNL     1      40.169 -16.267   3.881  1.00  0.00    -0.267 OA
BRANCH  13  16
HETATM   16  C   UNL     1      42.941 -17.171   3.216  1.00  0.00     0.041 A 
HETATM   17  C   UNL     1      43.755 -17.508   4.321  1.00  0.00    -0.035 A 
HETATM   18  C   UNL     1      43.996 -16.568   5.471  1.00  0.00     0.050 C 
HETATM   19  C   UNL     1      44.328 -18.793   4.392  1.00  0.00     0.009 A 
HETATM   20  C   UNL     1      44.121 -19.727   3.382  1.00  0.00     0.001 A 
HETATM   21  C   UNL     1      43.332 -19.393   2.289  1.00  0.00     0.002 A 
HETATM   22  C   UNL     1      42.746 -18.126   2.210  1.00  0.00     0.030 A 
ENDBRANCH  13  16
ENDBRANCH   1  12
BRANCH   2  23
HETATM   23  C   UNL     1      41.857 -12.830   5.185  1.00  0.00    -0.028 A 
HETATM   24  C   UNL     1      42.605 -11.756   4.673  1.00  0.00     0.010 A 
HETATM   25  C   UNL     1      43.800 -11.362   5.281  1.00  0.00     0.008 A 
HETATM   26  C   UNL     1      44.275 -12.023   6.420  1.00  0.00    -0.055 A 
HETATM   27  C   UNL     1      43.529 -13.094   6.931  1.00  0.00     0.008 A 
HETATM   28  C   UNL     1      42.335 -13.493   6.323  1.00  0.00     0.010 A 
BRANCH  26  29
HETATM   29  C   UNL     1      45.571 -11.565   7.065  1.00  0.00     0.010 C 
HETATM   30  C   UNL     1      46.644 -11.234   6.025  1.00  0.00     0.015 C 
HETATM   31  C   UNL     1      45.332 -10.380   8.003  1.00  0.00     0.015 C 
ENDBRANCH  26  29
ENDBRANCH   2  23
BRANCH   7  32
HETATM   32  C   UNL     1      37.989  -9.118   4.949  1.00  0.00     0.085 C 
BRANCH  32  33
HETATM   33  C   UNL     1      38.971  -8.031   5.386  1.00  0.00     0.034 C 
BRANCH  33  34
HETATM   34  C   UNL     1      39.036  -7.861   6.900  1.00  0.00     0.164 C 
BRANCH  34  35
HETATM   35  O   UNL     1      38.820  -9.117   7.535  1.00  0.00    -0.401 OA
HETATM   36  H   UNL     1      38.096  -9.001   8.174  1.00  0.00     0.209 HD
ENDBRANCH  34  35
ENDBRANCH  33  34
ENDBRANCH  32  33
ENDBRANCH   7  32
TORSDOF 8
ENDMDL
MODEL 4
REMARK VINA RESULT:      -8.9      3.068      8.258
REMARK  8 active torsions:
REMARK  status: ('A' for Active; 'I' for Inactive)
REMARK    1  A    between atoms: C_3  and  N_4 
REMARK       I    between atoms: N_4  and  C_5 
REMARK    2  A    between atoms: C_5  and  C_6 
REMARK    3  A    between atoms: C_7  and  C_8 
REMARK    4  A    between atoms: C_11  and  C_12 
REMARK    5  A    between atoms: C_21  and  C_22 
REMARK    6  A    between atoms: C_22  and  C_23 
REMARK    7  A    between atoms: C_23  and  C_24 
REMARK    8  A    between atoms: C_24  and  O_25 
ROOT
HETATM    1  C   UNL     1      42.772 -14.634   5.352  1.00  0.00     0.062 C 
HETATM    2  C   UNL     1      43.449 -13.384   4.810  1.00  0.00     0.202 C 
HETATM    3  N   UNL     1      44.061 -12.615   5.897  1.00  0.00    -0.083 N 
HETATM    4  C   UNL     1      43.775 -12.806   7.221  1.00  0.00     0.726 A 
HETATM    5  N   UNL     1      42.960 -13.820   7.578  1.00  0.00    -0.192 N 
HETATM    6  N   UNL     1      44.945 -11.612   5.720  1.00  0.00    -0.140 NA
HETATM    7  C   UNL     1      45.102 -11.196   6.984  1.00  0.00     0.166 A 
HETATM    8  N   UNL     1      44.407 -11.909   7.935  1.00  0.00    -0.046 NA
HETATM    9  C   UNL     1      42.553 -14.804   6.680  1.00  0.00     0.037 C 
HETATM   10  C   UNL     1      41.906 -16.025   7.285  1.00  0.00     0.070 C 
HETATM   11  H   UNL     1      42.863 -14.029   8.570  1.00  0.00     0.184 HD
ENDROOT
BRANCH   1  12
HETATM   12  C   UNL     1      42.581 -15.760   4.405  1.00  0.00     0.256 C 
HETATM   13  N   UNL     1      43.490 -16.781   4.563  1.00  0.00    -0.323 N 
HETATM   14  H   UNL     1      44.168 -16.685   5.308  1.00  0.00     0.169 HD
HETATM   15  O   UNL     1      41.660 -15.692   3.599  1.00  0.00    -0.267 OA
BRANCH  13  16
HETATM   16  C   UNL     1      43.579 -17.976   3.804  1.00  0.00     0.041 A 
HETATM   17  C   UNL     1      43.720 -19.210   4.479  1.00  0.00    -0.035 A 
HETATM   18  C   UNL     1      43.737 -19.319   5.980  1.00  0.00     0.050 C 
HETATM   19  C   UNL     1      43.798 -20.402   3.734  1.00  0.00     0.009 A 
HETATM   20  C   UNL     1      43.756 -20.381   2.342  1.00  0.00     0.001 A 
HETATM   21  C   UNL     1      43.628 -19.169   1.677  1.00  0.00     0.002 A 
HETATM   22  C   UNL     1      43.539 -17.978   2.404  1.00  0.00     0.030 A 
ENDBRANCH  13  16
ENDBRANCH   1  12
BRANCH   2  23
HETATM   23  C   UNL     1      42.480 -12.481   4.048  1.00  0.00    -0.028 A 
HETATM   24  C   UNL     1      41.187 -12.220   4.532  1.00  0.00     0.010 A 
HETATM   25  C   UNL     1      40.315 -11.384   3.830  1.00  0.00     0.008 A 
HETATM   26  C   UNL     1      40.711 -10.781   2.631  1.00  0.00    -0.055 A 
HETATM   27  C   UNL     1      42.001 -11.040   2.148  1.00  0.00     0.008 A 
HETATM   28  C   UNL     1      42.876 -11.879   2.846  1.00  0.00     0.010 A 
BRANCH  26  29
HETATM   29  C   UNL     1      39.746  -9.868   1.897  1.00  0.00     0.010 C 
HETATM   30  C   UNL     1      38.362  -9.850   2.553  1.00  0.00     0.015 C 
HETATM   31  C   UNL     1      40.311  -8.452   1.771  1.00  0.00     0.015 C 
ENDBRANCH  26  29
ENDBRANCH   2  23
BRANCH   7  32
HETATM   32  C   UNL     1      45.927 -10.014   7.337  1.00  0.00     0.085 C 
BRANCH  32  33
HETATM   33  C   UNL     1      45.541  -9.397   8.682  1.00  0.00     0.034 C 
BRANCH  33  34
HETATM   34  C   UNL     1      44.311  -8.499   8.593  1.00  0.00     0.164 C 
BRANCH  34  35
HETATM   35  O   UNL     1      44.712  -7.134   8.587  1.00  0.00    -0.401 OA
HETATM   36  H   UNL     1      44.203  -6.681   7.893  1.00  0.00     0.209 HD
ENDBRANCH  34  35
ENDBRANCH  33  34
ENDBRANCH  32  33
ENDBRANCH   7  32
TORSDOF 8
ENDMDL
MODEL 5
REMARK VINA RESULT:      -8.5      3.305      6.498
REMARK  8 active torsions:
REMARK  status: ('A' for Active; 'I' for Inactive)
REMARK    1  A    between atoms: C_3  and  N_4 
REMARK       I    between atoms: N_4  and  C_5 
REMARK    2  A    between atoms: C_5  and  C_6 
REMARK    3  A    between atoms: C_7  and  C_8 
REMARK    4  A    between atoms: C_11  and  C_12 
REMARK    5  A    between atoms: C_21  and  C_22 
REMARK    6  A    between atoms: C_22  and  C_23 
REMARK    7  A    between atoms: C_23  and  C_24 
REMARK    8  A    between atoms: C_24  and  O_25 
ROOT
HETATM    1  C   UNL     1      41.146 -13.483   4.562  1.00  0.00     0.062 C 
HETATM    2  C   UNL     1      41.283 -12.369   3.536  1.00  0.00     0.202 C 
HETATM    3  N   UNL     1      40.445 -11.223   3.903  1.00  0.00    -0.083 N 
HETATM    4  C   UNL     1      39.440 -11.279   4.829  1.00  0.00     0.726 A 
HETATM    5  N   UNL     1      39.253 -12.418   5.528  1.00  0.00    -0.192 N 
HETATM    6  N   UNL     1      40.544  -9.997   3.350  1.00  0.00    -0.140 NA
HETATM    7  C   UNL     1      39.516  -9.375   3.946  1.00  0.00     0.166 A 
HETATM    8  N   UNL     1      38.820 -10.127   4.866  1.00  0.00    -0.046 NA
HETATM    9  C   UNL     1      40.161 -13.474   5.495  1.00  0.00     0.037 C 
HETATM   10  C   UNL     1      39.979 -14.535   6.551  1.00  0.00     0.070 C 
HETATM   11  H   UNL     1      38.591 -12.400   6.301  1.00  0.00     0.184 HD
ENDROOT
BRANCH   1  12
HETATM   12  C   UNL     1      42.265 -14.452   4.657  1.00  0.00     0.256 C 
HETATM   13  N   UNL     1      41.937 -15.724   4.244  1.00  0.00    -0.323 N 
HETATM   14  H   UNL     1      40.998 -15.869   3.897  1.00  0.00     0.169 HD
HETATM   15  O   UNL     1      43.347 -14.052   5.071  1.00  0.00    -0.267 OA
BRANCH  13  16
HETATM   16  C   UNL     1      42.779 -16.866   4.233  1.00  0.00     0.041 A 
HETATM   17  C   UNL     1      43.309 -17.316   3.003  1.00  0.00    -0.035 A 
HETATM   18  C   UNL     1      43.057 -16.607   1.699  1.00  0.00     0.050 C 
HETATM   19  C   UNL     1      44.154 -18.443   2.984  1.00  0.00     0.009 A 
HETATM   20  C   UNL     1      44.459 -19.130   4.156  1.00  0.00     0.001 A 
HETATM   21  C   UNL     1      43.928 -18.696   5.363  1.00  0.00     0.002 A 
HETATM   22  C   UNL     1      43.097 -17.572   5.399  1.00  0.00     0.030 A 
ENDBRANCH  13  16
ENDBRANCH   1  12
BRANCH   2  23
HETATM   23  C   UNL     1      40.910 -12.824   2.126  1.00  0.00    -0.028 A 
HETATM   24  C   UNL     1      40.169 -13.999   1.908  1.00  0.00     0.010 A 
HETATM   25  C   UNL     1      39.827 -14.399   0.614  1.00  0.00     0.008 A 
HETATM   26  C   UNL     1      40.208 -13.635  -0.496  1.00  0.00    -0.055 A 
HETATM   27  C   UNL     1      40.946 -12.463  -0.279  1.00  0.00     0.008 A 
HETATM   28  C   UNL     1      41.293 -12.061   1.015  1.00  0.00     0.010 A 
BRANCH  26  29
HETATM   29  C   UNL     1      39.811 -14.089  -1.889  1.00  0.00     0.010 C 
HETATM   30  C   UNL     1      38.325 -13.848  -2.169  1.00  0.00     0.015 C 
HETATM   31  C   UNL     1      40.683 -13.425  -2.956  1.00  0.00     0.015 C 
ENDBRANCH  26  29
ENDBRANCH   2  23
BRANCH   7  32
HETATM   32  C   UNL     1      39.117  -7.987   3.603  1.00  0.00     0.085 C 
BRANCH  32  33
HETATM   33  C   UNL     1      37.655  -7.876   3.172  1.00  0.00     0.034 C 
BRANCH  33  34
HETATM   34  C   UNL     1      36.770  -7.229   4.232  1.00  0.00     0.164 C 
BRANCH  34  35
HETATM   35  O   UNL     1      36.425  -8.191   5.223  1.00  0.00    -0.401 OA
HETATM   36  H   UNL     1      37.224  -8.707   5.421  1.00  0.00     0.209 HD
ENDBRANCH  34  35
ENDBRANCH  33  34
ENDBRANCH  32  33
ENDBRANCH   7  32
TORSDOF 8
ENDMDL
MODEL 6
REMARK VINA RESULT:      -8.5      2.475      6.719
REMARK  8 active torsions:
REMARK  status: ('A' for Active; 'I' for Inactive)
REMARK    1  A    between atoms: C_3  and  N_4 
REMARK       I    between atoms: N_4  and  C_5 
REMARK    2  A    between atoms: C_5  and  C_6 
REMARK    3  A    between atoms: C_7  and  C_8 
REMARK    4  A    between atoms: C_11  and  C_12 
REMARK    5  A    between atoms: C_21  and  C_22 
REMARK    6  A    between atoms: C_22  and  C_23 
REMARK    7  A    between atoms: C_23  and  C_24 
REMARK    8  A    between atoms: C_24  and  O_25 
ROOT
HETATM    1  C   UNL     1      42.070 -14.740   3.219  1.00  0.00     0.062 C 
HETATM    2  C   UNL     1      41.513 -13.512   3.922  1.00  0.00     0.202 C 
HETATM    3  N   UNL     1      41.163 -12.473   2.949  1.00  0.00    -0.083 N 
HETATM    4  C   UNL     1      41.589 -12.472   1.648  1.00  0.00     0.726 A 
HETATM    5  N   UNL     1      42.291 -13.527   1.186  1.00  0.00    -0.192 N 
HETATM    6  N   UNL     1      40.415 -11.386   3.227  1.00  0.00    -0.140 NA
HETATM    7  C   UNL     1      40.485 -10.733   2.058  1.00  0.00     0.166 A 
HETATM    8  N   UNL     1      41.189 -11.372   1.062  1.00  0.00    -0.046 NA
HETATM    9  C   UNL     1      42.434 -14.707   1.912  1.00  0.00     0.037 C 
HETATM   10  C   UNL     1      42.973 -15.891   1.149  1.00  0.00     0.070 C 
HETATM   11  H   UNL     1      42.485 -13.571   0.187  1.00  0.00     0.184 HD
ENDROOT
BRANCH   1  12
HETATM   12  C   UNL     1      41.975 -16.031   3.943  1.00  0.00     0.256 C 
HETATM   13  N   UNL     1      43.193 -16.623   4.188  1.00  0.00    -0.323 N 
HETATM   14  H   UNL     1      44.019 -16.123   3.886  1.00  0.00     0.169 HD
HETATM   15  O   UNL     1      40.863 -16.442   4.256  1.00  0.00    -0.267 OA
BRANCH  13  16
HETATM   16  C   UNL     1      43.430 -17.861   4.839  1.00  0.00     0.041 A 
HETATM   17  C   UNL     1      43.878 -18.964   4.076  1.00  0.00    -0.035 A 
HETATM   18  C   UNL     1      44.159 -18.871   2.601  1.00  0.00     0.050 C 
HETATM   19  C   UNL     1      44.126 -20.193   4.716  1.00  0.00     0.009 A 
HETATM   20  C   UNL     1      43.919 -20.343   6.085  1.00  0.00     0.001 A 
HETATM   21  C   UNL     1      43.468 -19.264   6.833  1.00  0.00     0.002 A 
HETATM   22  C   UNL     1      43.228 -18.034   6.214  1.00  0.00     0.030 A 
ENDBRANCH  13  16
ENDBRANCH   1  12
BRANCH   2  23
HETATM   23  C   UNL     1      42.493 -12.928   4.939  1.00  0.00    -0.028 A 
HETATM   24  C   UNL     1      42.623 -13.475   6.227  1.00  0.00     0.010 A 
HETATM   25  C   UNL     1      43.530 -12.938   7.144  1.00  0.00     0.008 A 
HETATM   26  C   UNL     1      44.336 -11.847   6.799  1.00  0.00    -0.055 A 
HETATM   27  C   UNL     1      44.208 -11.302   5.514  1.00  0.00     0.008 A 
HETATM   28  C   UNL     1      43.298 -11.834   4.594  1.00  0.00     0.010 A 
BRANCH  26  29
HETATM   29  C   UNL     1      45.321 -11.293   7.813  1.00  0.00     0.010 C 
HETATM   30  C   UNL     1      46.573 -10.721   7.142  1.00  0.00     0.015 C 
HETATM   31  C   UNL     1      44.658 -10.249   8.714  1.00  0.00     0.015 C 
ENDBRANCH  26  29
ENDBRANCH   2  23
BRANCH   7  32
HETATM   32  C   UNL     1      39.889  -9.388   1.860  1.00  0.00     0.085 C 
BRANCH  32  33
HETATM   33  C   UNL     1      38.389  -9.351   2.151  1.00  0.00     0.034 C 
BRANCH  33  34
HETATM   34  C   UNL     1      38.061  -8.739   3.508  1.00  0.00     0.164 C 
BRANCH  34  35
HETATM   35  O   UNL     1      37.993  -9.763   4.494  1.00  0.00    -0.401 OA
HETATM   36  H   UNL     1      38.902 -10.057   4.675  1.00  0.00     0.209 HD
ENDBRANCH  34  35
ENDBRANCH  33  34
ENDBRANCH  32  33
ENDBRANCH   7  32
TORSDOF 8
ENDMDL
MODEL 7
REMARK VINA RESULT:      -8.3      2.941      6.285
REMARK  8 active torsions:
REMARK  status: ('A' for Active; 'I' for Inactive)
REMARK    1  A    between atoms: C_3  and  N_4 
REMARK       I    between atoms: N_4  and  C_5 
REMARK    2  A    between atoms: C_5  and  C_6 
REMARK    3  A    between atoms: C_7  and  C_8 
REMARK    4  A    between atoms: C_11  and  C_12 
REMARK    5  A    between atoms: C_21  and  C_22 
REMARK    6  A    between atoms: C_22  and  C_23 
REMARK    7  A    between atoms: C_23  and  C_24 
REMARK    8  A    between atoms: C_24  and  O_25 
ROOT
HETATM    1  C   UNL     1      41.498 -13.291   5.403  1.00  0.00     0.062 C 
HETATM    2  C   UNL     1      41.126 -14.608   4.739  1.00  0.00     0.202 C 
HETATM    3  N   UNL     1      42.135 -15.633   5.023  1.00  0.00    -0.083 N 
HETATM    4  C   UNL     1      43.382 -15.359   5.515  1.00  0.00     0.726 A 
HETATM    5  N   UNL     1      43.690 -14.091   5.858  1.00  0.00    -0.192 N 
HETATM    6  N   UNL     1      41.966 -16.952   4.803  1.00  0.00    -0.140 NA
HETATM    7  C   UNL     1      43.184 -17.413   5.123  1.00  0.00     0.166 A 
HETATM    8  N   UNL     1      44.077 -16.467   5.572  1.00  0.00    -0.046 NA
HETATM    9  C   UNL     1      42.734 -13.080   5.921  1.00  0.00     0.037 C 
HETATM   10  C   UNL     1      43.162 -11.808   6.609  1.00  0.00     0.070 C 
HETATM   11  H   UNL     1      44.570 -13.928   6.342  1.00  0.00     0.184 HD
ENDROOT
BRANCH   1  12
HETATM   12  C   UNL     1      40.394 -12.339   5.675  1.00  0.00     0.256 C 
HETATM   13  N   UNL     1      40.479 -11.166   4.958  1.00  0.00    -0.323 N 
HETATM   14  H   UNL     1      41.250 -11.078   4.309  1.00  0.00     0.169 HD
HETATM   15  O   UNL     1      39.528 -12.666   6.478  1.00  0.00    -0.267 OA
BRANCH  13  16
HETATM   16  C   UNL     1      39.592 -10.061   5.011  1.00  0.00     0.041 A 
HETATM   17  C   UNL     1      38.693  -9.850   3.941  1.00  0.00    -0.035 A 
HETATM   18  C   UNL     1      38.602 -10.776   2.759  1.00  0.00     0.050 C 
HETATM   19  C   UNL     1      37.801  -8.761   3.992  1.00  0.00     0.009 A 
HETATM   20  C   UNL     1      37.805  -7.880   5.070  1.00  0.00     0.001 A 
HETATM   21  C   UNL     1      38.696  -8.080   6.116  1.00  0.00     0.002 A 
HETATM   22  C   UNL     1      39.580  -9.163   6.086  1.00  0.00     0.030 A 
ENDBRANCH  13  16
ENDBRANCH   1  12
BRANCH   2  23
HETATM   23  C   UNL     1      40.967 -14.474   3.225  1.00  0.00    -0.028 A 
HETATM   24  C   UNL     1      40.065 -15.280   2.510  1.00  0.00     0.010 A 
HETATM   25  C   UNL     1      39.923 -15.140   1.127  1.00  0.00     0.008 A 
HETATM   26  C   UNL     1      40.671 -14.188   0.423  1.00  0.00    -0.055 A 
HETATM   27  C   UNL     1      41.570 -13.384   1.136  1.00  0.00     0.008 A 
HETATM   28  C   UNL     1      41.718 -13.524   2.520  1.00  0.00     0.010 A 
BRANCH  26  29
HETATM   29  C   UNL     1      40.486 -14.052  -1.078  1.00  0.00     0.010 C 
HETATM   30  C   UNL     1      39.152 -14.640  -1.547  1.00  0.00     0.015 C 
HETATM   31  C   UNL     1      40.628 -12.594  -1.522  1.00  0.00     0.015 C 
ENDBRANCH  26  29
ENDBRANCH   2  23
BRANCH   7  32
HETATM   32  C   UNL     1      43.566 -18.837   4.957  1.00  0.00     0.085 C 
BRANCH  32  33
HETATM   33  C   UNL     1      44.216 -19.127   3.605  1.00  0.00     0.034 C 
BRANCH  33  34
HETATM   34  C   UNL     1      43.628 -20.353   2.913  1.00  0.00     0.164 C 
BRANCH  34  35
HETATM   35  O   UNL     1      44.090 -21.536   3.555  1.00  0.00    -0.401 OA
HETATM   36  H   UNL     1      43.339 -22.151   3.614  1.00  0.00     0.209 HD
ENDBRANCH  34  35
ENDBRANCH  33  34
ENDBRANCH  32  33
ENDBRANCH   7  32
TORSDOF 8
ENDMDL
MODEL 8
REMARK VINA RESULT:      -8.3      2.311      7.541
REMARK  8 active torsions:
REMARK  status: ('A' for Active; 'I' for Inactive)
REMARK    1  A    between atoms: C_3  and  N_4 
REMARK       I    between atoms: N_4  and  C_5 
REMARK    2  A    between atoms: C_5  and  C_6 
REMARK    3  A    between atoms: C_7  and  C_8 
REMARK    4  A    between atoms: C_11  and  C_12 
REMARK    5  A    between atoms: C_21  and  C_22 
REMARK    6  A    between atoms: C_22  and  C_23 
REMARK    7  A    between atoms: C_23  and  C_24 
REMARK    8  A    between atoms: C_24  and  O_25 
ROOT
HETATM    1  C   UNL     1      40.926 -11.834   1.920  1.00  0.00     0.062 C 
HETATM    2  C   UNL     1      40.917 -12.519   3.277  1.00  0.00     0.202 C 
HETATM    3  N   UNL     1      41.538 -11.663   4.293  1.00  0.00    -0.083 N 
HETATM    4  C   UNL     1      42.311 -10.573   4.001  1.00  0.00     0.726 A 
HETATM    5  N   UNL     1      42.443 -10.185   2.716  1.00  0.00    -0.192 N 
HETATM    6  N   UNL     1      41.451 -11.869   5.623  1.00  0.00    -0.140 NA
HETATM    7  C   UNL     1      42.254 -10.897   6.076  1.00  0.00     0.166 A 
HETATM    8  N   UNL     1      42.795 -10.075   5.111  1.00  0.00    -0.046 NA
HETATM    9  C   UNL     1      41.671 -10.723   1.689  1.00  0.00     0.037 C 
HETATM   10  C   UNL     1      41.711  -9.984   0.375  1.00  0.00     0.070 C 
HETATM   11  H   UNL     1      42.910  -9.300   2.529  1.00  0.00     0.184 HD
ENDROOT
BRANCH   1  12
HETATM   12  C   UNL     1      39.911 -12.280   0.934  1.00  0.00     0.256 C 
HETATM   13  N   UNL     1      40.425 -13.050  -0.085  1.00  0.00    -0.323 N 
HETATM   14  H   UNL     1      41.415 -13.259  -0.052  1.00  0.00     0.169 HD
HETATM   15  O   UNL     1      38.746 -11.945   1.107  1.00  0.00    -0.267 OA
BRANCH  13  16
HETATM   16  C   UNL     1      39.718 -13.606  -1.181  1.00  0.00     0.041 A 
HETATM   17  C   UNL     1      39.358 -14.973  -1.144  1.00  0.00    -0.035 A 
HETATM   18  C   UNL     1      39.654 -15.860   0.035  1.00  0.00     0.050 C 
HETATM   19  C   UNL     1      38.646 -15.530  -2.223  1.00  0.00     0.009 A 
HETATM   20  C   UNL     1      38.308 -14.761  -3.333  1.00  0.00     0.001 A 
HETATM   21  C   UNL     1      38.671 -13.422  -3.376  1.00  0.00     0.002 A 
HETATM   22  C   UNL     1      39.369 -12.851  -2.307  1.00  0.00     0.030 A 
ENDBRANCH  13  16
ENDBRANCH   1  12
BRANCH   2  23
HETATM   23  C   UNL     1      41.639 -13.866   3.255  1.00  0.00    -0.028 A 
HETATM   24  C   UNL     1      42.778 -14.074   2.459  1.00  0.00     0.010 A 
HETATM   25  C   UNL     1      43.434 -15.307   2.455  1.00  0.00     0.008 A 
HETATM   26  C   UNL     1      42.975 -16.364   3.251  1.00  0.00    -0.055 A 
HETATM   27  C   UNL     1      41.840 -16.157   4.046  1.00  0.00     0.008 A 
HETATM   28  C   UNL     1      41.179 -14.925   4.050  1.00  0.00     0.010 A 
BRANCH  26  29
HETATM   29  C   UNL     1      43.716 -17.689   3.236  1.00  0.00     0.010 C 
HETATM   30  C   UNL     1      43.863 -18.280   4.640  1.00  0.00     0.015 C 
HETATM   31  C   UNL     1      43.044 -18.686   2.289  1.00  0.00     0.015 C 
ENDBRANCH  26  29
ENDBRANCH   2  23
BRANCH   7  32
HETATM   32  C   UNL     1      42.586 -10.742   7.514  1.00  0.00     0.085 C 
BRANCH  32  33
HETATM   33  C   UNL     1      42.075  -9.429   8.106  1.00  0.00     0.034 C 
BRANCH  33  34
HETATM   34  C   UNL     1      40.555  -9.316   8.080  1.00  0.00     0.164 C 
BRANCH  34  35
HETATM   35  O   UNL     1      40.002  -9.996   9.202  1.00  0.00    -0.401 OA
HETATM   36  H   UNL     1      40.408  -9.620  10.002  1.00  0.00     0.209 HD
ENDBRANCH  34  35
ENDBRANCH  33  34
ENDBRANCH  32  33
ENDBRANCH   7  32
TORSDOF 8
ENDMDL
MODEL 9
REMARK VINA RESULT:      -8.3      2.786      7.380
REMARK  8 active torsions:
REMARK  status: ('A' for Active; 'I' for Inactive)
REMARK    1  A    between atoms: C_3  and  N_4 
REMARK       I    between atoms: N_4  and  C_5 
REMARK    2  A    between atoms: C_5  and  C_6 
REMARK    3  A    between atoms: C_7  and  C_8 
REMARK    4  A    between atoms: C_11  and  C_12 
REMARK    5  A    between atoms: C_21  and  C_22 
REMARK    6  A    between atoms: C_22  and  C_23 
REMARK    7  A    between atoms: C_23  and  C_24 
REMARK    8  A    between atoms: C_24  and  O_25 
ROOT
HETATM    1  C   UNL     1      40.754 -11.854   1.297  1.00  0.00     0.062 C 
HETATM    2  C   UNL     1      41.937 -12.656   1.815  1.00  0.00     0.202 C 
HETATM    3  N   UNL     1      41.614 -14.085   1.858  1.00  0.00    -0.083 N 
HETATM    4  C   UNL     1      40.342 -14.582   1.775  1.00  0.00     0.726 A 
HETATM    5  N   UNL     1      39.319 -13.733   1.543  1.00  0.00    -0.192 N 
HETATM    6  N   UNL     1      42.521 -15.070   2.017  1.00  0.00    -0.140 NA
HETATM    7  C   UNL     1      41.716 -16.138   2.089  1.00  0.00     0.166 A 
HETATM    8  N   UNL     1      40.372 -15.880   1.937  1.00  0.00    -0.046 NA
HETATM    9  C   UNL     1      39.518 -12.401   1.185  1.00  0.00     0.037 C 
HETATM   10  C   UNL     1      38.307 -11.669   0.662  1.00  0.00     0.070 C 
HETATM   11  H   UNL     1      38.401 -14.131   1.354  1.00  0.00     0.184 HD
ENDROOT
BRANCH   1  12
HETATM   12  C   UNL     1      41.050 -10.530   0.696  1.00  0.00     0.256 C 
HETATM   13  N   UNL     1      41.413 -10.590  -0.631  1.00  0.00    -0.323 N 
HETATM   14  H   UNL     1      41.416 -11.502  -1.068  1.00  0.00     0.169 HD
HETATM   15  O   UNL     1      40.943  -9.534   1.401  1.00  0.00    -0.267 OA
BRANCH  13  16
HETATM   16  C   UNL     1      41.771  -9.505  -1.473  1.00  0.00     0.041 A 
HETATM   17  C   UNL     1      41.087  -9.330  -2.696  1.00  0.00    -0.035 A 
HETATM   18  C   UNL     1      39.955 -10.222  -3.130  1.00  0.00     0.050 C 
HETATM   19  C   UNL     1      41.429  -8.250  -3.532  1.00  0.00     0.009 A 
HETATM   20  C   UNL     1      42.443  -7.364  -3.180  1.00  0.00     0.001 A 
HETATM   21  C   UNL     1      43.125  -7.542  -1.984  1.00  0.00     0.002 A 
HETATM   22  C   UNL     1      42.789  -8.604  -1.138  1.00  0.00     0.030 A 
ENDBRANCH  13  16
ENDBRANCH   1  12
BRANCH   2  23
HETATM   23  C   UNL     1      42.383 -12.207   3.206  1.00  0.00    -0.028 A 
HETATM   24  C   UNL     1      43.730 -11.916   3.484  1.00  0.00     0.010 A 
HETATM   25  C   UNL     1      44.122 -11.497   4.758  1.00  0.00     0.008 A 
HETATM   26  C   UNL     1      43.182 -11.348   5.784  1.00  0.00    -0.055 A 
HETATM   27  C   UNL     1      41.839 -11.637   5.506  1.00  0.00     0.008 A 
HETATM   28  C   UNL     1      41.443 -12.060   4.234  1.00  0.00     0.010 A 
BRANCH  26  29
HETATM   29  C   UNL     1      43.637 -10.879   7.154  1.00  0.00     0.010 C 
HETATM   30  C   UNL     1      45.163 -10.866   7.279  1.00  0.00     0.015 C 
HETATM   31  C   UNL     1      43.049  -9.507   7.493  1.00  0.00     0.015 C 
ENDBRANCH  26  29
ENDBRANCH   2  23
BRANCH   7  32
HETATM   32  C   UNL     1      42.226 -17.504   2.367  1.00  0.00     0.085 C 
BRANCH  32  33
HETATM   33  C   UNL     1      43.390 -17.517   3.357  1.00  0.00     0.034 C 
BRANCH  33  34
HETATM   34  C   UNL     1      44.208 -18.802   3.297  1.00  0.00     0.164 C 
BRANCH  34  35
HETATM   35  O   UNL     1      44.263 -19.398   4.589  1.00  0.00    -0.401 OA
HETATM   36  H   UNL     1      44.386 -20.354   4.466  1.00  0.00     0.209 HD
ENDBRANCH  34  35
ENDBRANCH  33  34
ENDBRANCH  32  33
ENDBRANCH   7  32
TORSDOF 8
ENDMDL
MODEL 10
REMARK VINA RESULT:      -8.2      4.046      8.210
REMARK  8 active torsions:
REMARK  status: ('A' for Active; 'I' for Inactive)
REMARK    1  A    between atoms: C_3  and  N_4 
REMARK       I    between atoms: N_4  and  C_5 
REMARK    2  A    between atoms: C_5  and  C_6 
REMARK    3  A    between atoms: C_7  and  C_8 
REMARK    4  A    between atoms: C_11  and  C_12 
REMARK    5  A    between atoms: C_21  and  C_22 
REMARK    6  A    between atoms: C_22  and  C_23 
REMARK    7  A    between atoms: C_23  and  C_24 
REMARK    8  A    between atoms: C_24  and  O_25 
ROOT
HETATM    1  C   UNL     1      39.262 -12.801  -0.794  1.00  0.00     0.062 C 
HETATM    2  C   UNL     1      38.809 -11.352  -0.708  1.00  0.00     0.202 C 
HETATM    3  N   UNL     1      37.607 -11.137  -1.518  1.00  0.00    -0.083 N 
HETATM    4  C   UNL     1      37.164 -12.013  -2.472  1.00  0.00     0.726 A 
HETATM    5  N   UNL     1      37.798 -13.194  -2.626  1.00  0.00    -0.192 N 
HETATM    6  N   UNL     1      36.821 -10.044  -1.445  1.00  0.00    -0.140 NA
HETATM    7  C   UNL     1      35.954 -10.297  -2.435  1.00  0.00     0.166 A 
HETATM    8  N   UNL     1      36.127 -11.499  -3.083  1.00  0.00    -0.046 NA
HETATM    9  C   UNL     1      38.760 -13.649  -1.726  1.00  0.00     0.037 C 
HETATM   10  C   UNL     1      39.150 -15.100  -1.855  1.00  0.00     0.070 C 
HETATM   11  H   UNL     1      37.378 -13.884  -3.244  1.00  0.00     0.184 HD
ENDROOT
BRANCH   1  12
HETATM   12  C   UNL     1      40.091 -13.315   0.324  1.00  0.00     0.256 C 
HETATM   13  N   UNL     1      39.358 -13.770   1.397  1.00  0.00    -0.323 N 
HETATM   14  H   UNL     1      38.350 -13.740   1.314  1.00  0.00     0.169 HD
HETATM   15  O   UNL     1      41.310 -13.298   0.200  1.00  0.00    -0.267 OA
BRANCH  13  16
HETATM   16  C   UNL     1      39.857 -14.300   2.615  1.00  0.00     0.041 A 
HETATM   17  C   UNL     1      40.033 -13.436   3.719  1.00  0.00    -0.035 A 
HETATM   18  C   UNL     1      39.669 -11.976   3.675  1.00  0.00     0.050 C 
HETATM   19  C   UNL     1      40.517 -13.956   4.934  1.00  0.00     0.009 A 
HETATM   20  C   UNL     1      40.844 -15.303   5.058  1.00  0.00     0.001 A 
HETATM   21  C   UNL     1      40.683 -16.151   3.970  1.00  0.00     0.002 A 
HETATM   22  C   UNL     1      40.192 -15.652   2.760  1.00  0.00     0.030 A 
ENDBRANCH  13  16
ENDBRANCH   1  12
BRANCH   2  23
HETATM   23  C   UNL     1      39.893 -10.374  -1.160  1.00  0.00    -0.028 A 
HETATM   24  C   UNL     1      40.200 -10.198  -2.520  1.00  0.00     0.010 A 
HETATM   25  C   UNL     1      41.187  -9.294  -2.920  1.00  0.00     0.008 A 
HETATM   26  C   UNL     1      41.888  -8.535  -1.975  1.00  0.00    -0.055 A 
HETATM   27  C   UNL     1      41.581  -8.709  -0.618  1.00  0.00     0.008 A 
HETATM   28  C   UNL     1      40.597  -9.617  -0.214  1.00  0.00     0.010 A 
BRANCH  26  29
HETATM   29  C   UNL     1      42.946  -7.551  -2.440  1.00  0.00     0.010 C 
HETATM   30  C   UNL     1      42.704  -7.086  -3.879  1.00  0.00     0.015 C 
HETATM   31  C   UNL     1      43.048  -6.357  -1.489  1.00  0.00     0.015 C 
ENDBRANCH  26  29
ENDBRANCH   2  23
BRANCH   7  32
HETATM   32  C   UNL     1      34.907  -9.327  -2.846  1.00  0.00     0.085 C 
BRANCH  32  33
HETATM   33  C   UNL     1      33.492  -9.805  -2.522  1.00  0.00     0.034 C 
BRANCH  33  34
HETATM   34  C   UNL     1      32.787 -10.431  -3.720  1.00  0.00     0.164 C 
BRANCH  34  35
HETATM   35  O   UNL     1      33.043 -11.831  -3.751  1.00  0.00    -0.401 OA
HETATM   36  H   UNL     1      32.893 -12.137  -4.662  1.00  0.00     0.209 HD
ENDBRANCH  34  35
ENDBRANCH  33  34
ENDBRANCH  32  33
ENDBRANCH   7  32
TORSDOF 8
ENDMDL
