MODEL 1
REMARK VINA RESULT:      -8.1      0.000      0.000
REMARK  8 active torsions:
REMARK  status: ('A' for Active; 'I' for Inactive)
REMARK    1  A    between atoms: C_5  and  C_6 
REMARK    2  A    between atoms: N_7  and  N_8 
REMARK       I    between atoms: N_8  and  C_9 
REMARK    3  A    between atoms: C_9  and  C_10 
REMARK    4  A    between atoms: N_13  and  C_14 
REMARK    5  A    between atoms: C_18  and  N_19 
REMARK    6  A    between atoms: C_20  and  C_21 
REMARK    7  A    between atoms: C_21  and  N_22 
REMARK    8  A    between atoms: C_30  and  O_31 
ROOT
HETATM    1  C   UNL     1      39.859 -10.712   7.118  1.00  0.00     0.170 A 
HETATM    2  N   UNL     1      38.706 -10.838   7.836  1.00  0.00    -0.152 NA
HETATM    3  N   UNL     1      38.789 -10.043   8.890  1.00  0.00     0.012 NA
HETATM    4  N   UNL     1      40.000  -9.426   8.893  1.00  0.00    -0.215 N 
HETATM    5  C   UNL     1      40.685  -9.782   7.734  1.00  0.00     0.096 A 
ENDROOT
BRANCH   1   6
HETATM    6  C   UNL     1      40.136 -11.460   5.900  1.00  0.00     0.293 C 
HETATM    7  N   UNL     1      40.780 -12.666   6.111  1.00  0.00    -0.242 N 
HETATM    8  H   UNL     1      41.020 -12.961   7.054  1.00  0.00     0.192 HD
HETATM    9  O   UNL     1      39.815 -11.003   4.806  1.00  0.00    -0.264 OA
BRANCH   7  10
HETATM   10  N   UNL     1      41.049 -13.471   5.047  1.00  0.00    -0.183 NA
HETATM   11  C   UNL     1      42.212 -14.045   5.043  1.00  0.00     0.153 C 
BRANCH  11  12
HETATM   12  C   UNL     1      42.600 -14.954   3.945  1.00  0.00     0.017 A 
HETATM   13  C   UNL     1      43.060 -16.232   4.281  1.00  0.00     0.034 A 
HETATM   14  C   UNL     1      43.428 -17.116   3.266  1.00  0.00     0.012 A 
HETATM   15  C   UNL     1      43.340 -16.741   1.925  1.00  0.00     0.022 A 
HETATM   16 BR   UNL     1      44.050 -18.844   3.715  1.00  0.00    -0.051 Br
HETATM   17  C   UNL     1      42.883 -15.465   1.592  1.00  0.00     0.039 A 
HETATM   18  C   UNL     1      42.515 -14.575   2.598  1.00  0.00     0.077 A 
BRANCH  18  19
HETATM   19  O   UNL     1      42.076 -13.345   2.190  1.00  0.00    -0.360 OA
HETATM   20  H   UNL     1      42.380 -13.204   1.267  1.00  0.00     0.217 HD
ENDBRANCH  18  19
ENDBRANCH  11  12
ENDBRANCH   7  10
ENDBRANCH   1   6
BRANCH   5  21
HETATM   21  C   UNL     1      41.969  -9.200   7.278  1.00  0.00     0.296 C 
BRANCH  21  22
HETATM   22  N   UNL     1      43.205  -9.952   7.709  1.00  0.00    -0.066 N 
HETATM   23  H   UNL     1      42.907 -10.577   8.474  1.00  0.00     0.280 HD
HETATM   24  C   UNL     1      43.822 -10.787   6.610  1.00  0.00     0.235 C 
HETATM   25  C   UNL     1      44.968 -11.608   7.188  1.00  0.00     0.028 C 
HETATM   26  C   UNL     1      46.012 -10.726   7.860  1.00  0.00     0.003 C 
HETATM   27  C   UNL     1      45.375  -9.810   8.899  1.00  0.00     0.028 C 
HETATM   28  C   UNL     1      44.224  -9.006   8.311  1.00  0.00     0.235 C 
ENDBRANCH  21  22
ENDBRANCH   5  21
BRANCH   4  29
HETATM   29  C   UNL     1      40.444  -8.623   9.972  1.00  0.00     0.225 A 
HETATM   30  N   UNL     1      40.039  -7.352  10.068  1.00  0.00    -0.081 NA
HETATM   31  O   UNL     1      40.685  -6.888  11.219  1.00  0.00    -0.103 OA
HETATM   32  N   UNL     1      41.492  -7.870  11.771  1.00  0.00    -0.083 NA
HETATM   33  C   UNL     1      41.347  -8.945  11.000  1.00  0.00     0.201 A 
BRANCH  33  34
HETATM   34  N   UNL     1      41.969 -10.116  11.199  1.00  0.00    -0.379 N 
HETATM   35  H   UNL     1      42.119 -10.465  12.142  1.00  0.00     0.158 HD
HETATM   36  H   UNL     1      42.449 -10.640  10.470  1.00  0.00     0.158 HD
ENDBRANCH  33  34
ENDBRANCH   4  29
TORSDOF 8
ENDMDL
MODEL 2
REMARK VINA RESULT:      -8.0      4.522      9.666
REMARK  8 active torsions:
REMARK  status: ('A' for Active; 'I' for Inactive)
REMARK    1  A    between atoms: C_5  and  C_6 
REMARK    2  A    between atoms: N_7  and  N_8 
REMARK       I    between atoms: N_8  and  C_9 
REMARK    3  A    between atoms: C_9  and  C_10 
REMARK    4  A    between atoms: N_13  and  C_14 
REMARK    5  A    between atoms: C_18  and  N_19 
REMARK    6  A    between atoms: C_20  and  C_21 
REMARK    7  A    between atoms: C_21  and  N_22 
REMARK    8  A    between atoms: C_30  and  O_31 
ROOT
HETATM    1  C   UNL     1      43.173 -16.523   6.043  1.00  0.00     0.170 A 
HETATM    2  N   UNL     1      43.273 -17.629   6.834  1.00  0.00    -0.152 NA
HETATM    3  N   UNL     1      43.523 -18.669   6.056  1.00  0.00     0.012 NA
HETATM    4  N   UNL     1      43.548 -18.264   4.758  1.00  0.00    -0.215 N 
HETATM    5  C   UNL     1      43.393 -16.881   4.720  1.00  0.00     0.096 A 
ENDROOT
BRANCH   1   6
HETATM    6  C   UNL     1      42.876 -15.192   6.553  1.00  0.00     0.293 C 
HETATM    7  N   UNL     1      43.890 -14.271   6.359  1.00  0.00    -0.242 N 
HETATM    8  H   UNL     1      44.753 -14.549   5.897  1.00  0.00     0.192 HD
HETATM    9  O   UNL     1      41.805 -14.967   7.111  1.00  0.00    -0.264 OA
BRANCH   7  10
HETATM   10  N   UNL     1      43.705 -12.983   6.756  1.00  0.00    -0.183 NA
HETATM   11  C   UNL     1      44.757 -12.359   7.184  1.00  0.00     0.153 C 
BRANCH  11  12
HETATM   12  C   UNL     1      44.672 -10.950   7.622  1.00  0.00     0.017 A 
HETATM   13  C   UNL     1      43.412 -10.441   7.956  1.00  0.00     0.034 A 
HETATM   14  C   UNL     1      43.300  -9.115   8.380  1.00  0.00     0.012 A 
HETATM   15  C   UNL     1      44.426  -8.298   8.476  1.00  0.00     0.022 A 
HETATM   16 BR   UNL     1      41.600  -8.422   8.831  1.00  0.00    -0.051 Br
HETATM   17  C   UNL     1      45.682  -8.808   8.142  1.00  0.00     0.039 A 
HETATM   18  C   UNL     1      45.803 -10.128   7.716  1.00  0.00     0.077 A 
BRANCH  18  19
HETATM   19  O   UNL     1      47.067 -10.552   7.408  1.00  0.00    -0.360 OA
HETATM   20  H   UNL     1      47.527  -9.824   6.937  1.00  0.00     0.217 HD
ENDBRANCH  18  19
ENDBRANCH  11  12
ENDBRANCH   7  10
ENDBRANCH   1   6
BRANCH   5  21
HETATM   21  C   UNL     1      43.526 -16.031   3.513  1.00  0.00     0.296 C 
BRANCH  21  22
HETATM   22  N   UNL     1      42.284 -15.925   2.661  1.00  0.00    -0.066 N 
HETATM   23  H   UNL     1      42.270 -16.772   2.071  1.00  0.00     0.280 HD
HETATM   24  C   UNL     1      41.002 -15.868   3.461  1.00  0.00     0.235 C 
HETATM   25  C   UNL     1      39.815 -15.907   2.507  1.00  0.00     0.028 C 
HETATM   26  C   UNL     1      39.875 -14.781   1.483  1.00  0.00     0.003 C 
HETATM   27  C   UNL     1      41.209 -14.776   0.746  1.00  0.00     0.028 C 
HETATM   28  C   UNL     1      42.386 -14.750   1.711  1.00  0.00     0.235 C 
ENDBRANCH  21  22
ENDBRANCH   5  21
BRANCH   4  29
HETATM   29  C   UNL     1      43.649 -19.173   3.677  1.00  0.00     0.225 A 
HETATM   30  N   UNL     1      43.393 -18.758   2.431  1.00  0.00    -0.081 NA
HETATM   31  O   UNL     1      43.573 -19.911   1.658  1.00  0.00    -0.103 OA
HETATM   32  N   UNL     1      43.894 -21.001   2.452  1.00  0.00    -0.083 NA
HETATM   33  C   UNL     1      43.941 -20.547   3.703  1.00  0.00     0.201 A 
BRANCH  33  34
HETATM   34  N   UNL     1      44.220 -21.300   4.777  1.00  0.00    -0.379 N 
HETATM   35  H   UNL     1      44.401 -20.863   5.677  1.00  0.00     0.158 HD
HETATM   36  H   UNL     1      44.413 -22.298   4.741  1.00  0.00     0.158 HD
ENDBRANCH  33  34
ENDBRANCH   4  29
TORSDOF 8
ENDMDL
MODEL 3
REMARK VINA RESULT:      -7.8      3.979      8.818
REMARK  8 active torsions:
REMARK  status: ('A' for Active; 'I' for Inactive)
REMARK    1  A    between atoms: C_5  and  C_6 
REMARK    2  A    between atoms: N_7  and  N_8 
REMARK       I    between atoms: N_8  and  C_9 
REMARK    3  A    between atoms: C_9  and  C_10 
REMARK    4  A    between atoms: N_13  and  C_14 
REMARK    5  A    between atoms: C_18  and  N_19 
REMARK    6  A    between atoms: C_20  and  C_21 
REMARK    7  A    between atoms: C_21  and  N_22 
REMARK    8  A    between atoms: C_30  and  O_31 
ROOT
HETATM    1  C   UNL     1      40.709 -12.816   4.174  1.00  0.00     0.170 A 
HETATM    2  N   UNL     1      39.414 -12.436   3.973  1.00  0.00    -0.152 NA
HETATM    3  N   UNL     1      39.115 -12.649   2.702  1.00  0.00     0.012 NA
HETATM    4  N   UNL     1      40.212 -13.129   2.057  1.00  0.00    -0.215 N 
HETATM    5  C   UNL     1      41.232 -13.311   2.987  1.00  0.00     0.096 A 
ENDROOT
BRANCH   1   6
HETATM    6  C   UNL     1      41.394 -12.700   5.453  1.00  0.00     0.293 C 
HETATM    7  N   UNL     1      42.295 -11.653   5.521  1.00  0.00    -0.242 N 
HETATM    8  H   UNL     1      42.434 -11.044   4.718  1.00  0.00     0.192 HD
HETATM    9  O   UNL     1      41.162 -13.501   6.355  1.00  0.00    -0.264 OA
BRANCH   7  10
HETATM   10  N   UNL     1      42.961 -11.421   6.685  1.00  0.00    -0.183 NA
HETATM   11  C   UNL     1      42.735 -10.280   7.256  1.00  0.00     0.153 C 
BRANCH  11  12
HETATM   12  C   UNL     1      43.392  -9.934   8.534  1.00  0.00     0.017 A 
HETATM   13  C   UNL     1      42.711  -9.085   9.414  1.00  0.00     0.034 A 
HETATM   14  C   UNL     1      43.303  -8.744  10.632  1.00  0.00     0.012 A 
HETATM   15  C   UNL     1      44.559  -9.242  10.979  1.00  0.00     0.022 A 
HETATM   16 BR   UNL     1      42.388  -7.597  11.824  1.00  0.00    -0.051 Br
HETATM   17  C   UNL     1      45.236 -10.088  10.100  1.00  0.00     0.039 A 
HETATM   18  C   UNL     1      44.655 -10.432   8.882  1.00  0.00     0.077 A 
BRANCH  18  19
HETATM   19  O   UNL     1      45.381 -11.266   8.077  1.00  0.00    -0.360 OA
HETATM   20  H   UNL     1      45.698 -10.746   7.307  1.00  0.00     0.217 HD
ENDBRANCH  18  19
ENDBRANCH  11  12
ENDBRANCH   7  10
ENDBRANCH   1   6
BRANCH   5  21
HETATM   21  C   UNL     1      42.534 -13.968   2.722  1.00  0.00     0.296 C 
BRANCH  21  22
HETATM   22  N   UNL     1      42.575 -15.451   3.007  1.00  0.00    -0.066 N 
HETATM   23  H   UNL     1      41.593 -15.749   3.109  1.00  0.00     0.280 HD
HETATM   24  C   UNL     1      43.219 -16.262   1.907  1.00  0.00     0.235 C 
HETATM   25  C   UNL     1      43.079 -17.745   2.230  1.00  0.00     0.028 C 
HETATM   26  C   UNL     1      43.680 -18.086   3.588  1.00  0.00     0.003 C 
HETATM   27  C   UNL     1      43.104 -17.197   4.685  1.00  0.00     0.028 C 
HETATM   28  C   UNL     1      43.238 -15.720   4.342  1.00  0.00     0.235 C 
ENDBRANCH  21  22
ENDBRANCH   5  21
BRANCH   4  29
HETATM   29  C   UNL     1      40.250 -13.319   0.655  1.00  0.00     0.225 A 
HETATM   30  N   UNL     1      40.525 -12.287  -0.151  1.00  0.00    -0.081 NA
HETATM   31  O   UNL     1      40.454 -12.844  -1.433  1.00  0.00    -0.103 OA
HETATM   32  N   UNL     1      40.102 -14.183  -1.379  1.00  0.00    -0.083 NA
HETATM   33  C   UNL     1      39.973 -14.480  -0.087  1.00  0.00     0.201 A 
BRANCH  33  34
HETATM   34  N   UNL     1      39.635 -15.687   0.388  1.00  0.00    -0.379 N 
HETATM   35  H   UNL     1      38.703 -16.061   0.225  1.00  0.00     0.158 HD
HETATM   36  H   UNL     1      40.201 -16.223   1.043  1.00  0.00     0.158 HD
ENDBRANCH  33  34
ENDBRANCH   4  29
TORSDOF 8
ENDMDL
MODEL 4
REMARK VINA RESULT:      -7.8      2.924      4.652
REMARK  8 active torsions:
REMARK  status: ('A' for Active; 'I' for Inactive)
REMARK    1  A    between atoms: C_5  and  C_6 
REMARK    2  A    between atoms: N_7  and  N_8 
REMARK       I    between atoms: N_8  and  C_9 
REMARK    3  A    between atoms: C_9  and  C_10 
REMARK    4  A    between atoms: N_13  and  C_14 
REMARK    5  A    between atoms: C_18  and  N_19 
REMARK    6  A    between atoms: C_20  and  C_21 
REMARK    7  A    between atoms: C_21  and  N_22 
REMARK    8  A    between atoms: C_30  and  O_31 
ROOT
HETATM    1  C   UNL     1      44.266  -9.284   8.572  1.00  0.00     0.170 A 
HETATM    2  N   UNL     1      45.193  -8.286   8.491  1.00  0.00    -0.152 NA
HETATM    3  N   UNL     1      44.568  -7.131   8.647  1.00  0.00     0.012 NA
HETATM    4  N   UNL     1      43.235  -7.357   8.789  1.00  0.00    -0.215 N 
HETATM    5  C   UNL     1      43.016  -8.732   8.813  1.00  0.00     0.096 A 
ENDROOT
BRANCH   1   6
HETATM    6  C   UNL     1      44.587 -10.696   8.420  1.00  0.00     0.293 C 
HETATM    7  N   UNL     1      43.706 -11.393   7.613  1.00  0.00    -0.242 N 
HETATM    8  H   UNL     1      42.914 -10.917   7.186  1.00  0.00     0.192 HD
HETATM    9  O   UNL     1      45.561 -11.175   8.994  1.00  0.00    -0.264 OA
BRANCH   7  10
HETATM   10  N   UNL     1      43.932 -12.712   7.363  1.00  0.00    -0.183 NA
HETATM   11  C   UNL     1      42.950 -13.370   6.832  1.00  0.00     0.153 C 
BRANCH  11  12
HETATM   12  C   UNL     1      43.095 -14.804   6.503  1.00  0.00     0.017 A 
HETATM   13  C   UNL     1      43.093 -15.171   5.153  1.00  0.00     0.034 A 
HETATM   14  C   UNL     1      43.235 -16.517   4.810  1.00  0.00     0.012 A 
HETATM   15  C   UNL     1      43.381 -17.494   5.795  1.00  0.00     0.022 A 
HETATM   16 BR   UNL     1      43.232 -17.020   2.987  1.00  0.00    -0.051 Br
HETATM   17  C   UNL     1      43.383 -17.125   7.141  1.00  0.00     0.039 A 
HETATM   18  C   UNL     1      43.239 -15.786   7.493  1.00  0.00     0.077 A 
BRANCH  18  19
HETATM   19  O   UNL     1      43.252 -15.506   8.832  1.00  0.00    -0.360 OA
HETATM   20  H   UNL     1      42.695 -16.174   9.289  1.00  0.00     0.217 HD
ENDBRANCH  18  19
ENDBRANCH  11  12
ENDBRANCH   7  10
ENDBRANCH   1   6
BRANCH   5  21
HETATM   21  C   UNL     1      41.725  -9.395   9.115  1.00  0.00     0.296 C 
BRANCH  21  22
HETATM   22  N   UNL     1      41.538  -9.812  10.554  1.00  0.00    -0.066 N 
HETATM   23  H   UNL     1      41.466 -10.841  10.546  1.00  0.00     0.280 HD
HETATM   24  C   UNL     1      42.683  -9.410  11.456  1.00  0.00     0.235 C 
HETATM   25  C   UNL     1      42.458 -10.001  12.843  1.00  0.00     0.028 C 
HETATM   26  C   UNL     1      41.120  -9.572  13.430  1.00  0.00     0.003 C 
HETATM   27  C   UNL     1      39.973  -9.884  12.475  1.00  0.00     0.028 C 
HETATM   28  C   UNL     1      40.216  -9.301  11.091  1.00  0.00     0.235 C 
ENDBRANCH  21  22
ENDBRANCH   5  21
BRANCH   4  29
HETATM   29  C   UNL     1      42.284  -6.309   8.830  1.00  0.00     0.225 A 
HETATM   30  N   UNL     1      41.867  -5.742   7.693  1.00  0.00    -0.081 NA
HETATM   31  O   UNL     1      40.969  -4.760   8.126  1.00  0.00    -0.103 OA
HETATM   32  N   UNL     1      40.890  -4.727   9.509  1.00  0.00    -0.083 NA
HETATM   33  C   UNL     1      41.705  -5.685   9.948  1.00  0.00     0.201 A 
BRANCH  33  34
HETATM   34  N   UNL     1      41.913  -5.975  11.240  1.00  0.00    -0.379 N 
HETATM   35  H   UNL     1      41.365  -6.699  11.700  1.00  0.00     0.158 HD
HETATM   36  H   UNL     1      42.493  -5.419  11.866  1.00  0.00     0.158 HD
ENDBRANCH  33  34
ENDBRANCH   4  29
TORSDOF 8
ENDMDL
MODEL 5
REMARK VINA RESULT:      -7.7      1.481      2.029
REMARK  8 active torsions:
REMARK  status: ('A' for Active; 'I' for Inactive)
REMARK    1  A    between atoms: C_5  and  C_6 
REMARK    2  A    between atoms: N_7  and  N_8 
REMARK       I    between atoms: N_8  and  C_9 
REMARK    3  A    between atoms: C_9  and  C_10 
REMARK    4  A    between atoms: N_13  and  C_14 
REMARK    5  A    between atoms: C_18  and  N_19 
REMARK    6  A    between atoms: C_20  and  C_21 
REMARK    7  A    between atoms: C_21  and  N_22 
REMARK    8  A    between atoms: C_30  and  O_31 
ROOT
HETATM    1  C   UNL     1      39.908 -11.737   6.031  1.00  0.00     0.170 A 
HETATM    2  N   UNL     1      38.669 -11.803   6.599  1.00  0.00    -0.152 NA
HETATM    3  N   UNL     1      38.549 -10.791   7.442  1.00  0.00     0.012 NA
HETATM    4  N   UNL     1      39.710 -10.085   7.465  1.00  0.00    -0.215 N 
HETATM    5  C   UNL     1      40.580 -10.625   6.521  1.00  0.00     0.096 A 
ENDROOT
BRANCH   1   6
HETATM    6  C   UNL     1      40.405 -12.707   5.067  1.00  0.00     0.293 C 
HETATM    7  N   UNL     1      40.714 -13.940   5.611  1.00  0.00    -0.242 N 
HETATM    8  H   UNL     1      40.589 -14.107   6.607  1.00  0.00     0.192 HD
HETATM    9  O   UNL     1      40.533 -12.397   3.885  1.00  0.00    -0.264 OA
BRANCH   7  10
HETATM   10  N   UNL     1      41.146 -14.940   4.795  1.00  0.00    -0.183 NA
HETATM   11  C   UNL     1      42.274 -15.492   5.113  1.00  0.00     0.153 C 
BRANCH  11  12
HETATM   12  C   UNL     1      42.826 -16.599   4.305  1.00  0.00     0.017 A 
HETATM   13  C   UNL     1      43.234 -17.760   4.972  1.00  0.00     0.034 A 
HETATM   14  C   UNL     1      43.753 -18.826   4.236  1.00  0.00     0.012 A 
HETATM   15  C   UNL     1      43.867 -18.747   2.847  1.00  0.00     0.022 A 
HETATM   16 BR   UNL     1      44.306 -20.396   5.132  1.00  0.00    -0.051 Br
HETATM   17  C   UNL     1      43.461 -17.588   2.184  1.00  0.00     0.039 A 
HETATM   18  C   UNL     1      42.943 -16.519   2.911  1.00  0.00     0.077 A 
BRANCH  18  19
HETATM   19  O   UNL     1      42.567 -15.420   2.188  1.00  0.00    -0.360 OA
HETATM   20  H   UNL     1      42.666 -15.633   1.234  1.00  0.00     0.217 HD
ENDBRANCH  18  19
ENDBRANCH  11  12
ENDBRANCH   7  10
ENDBRANCH   1   6
BRANCH   5  21
HETATM   21  C   UNL     1      41.883 -10.047   6.118  1.00  0.00     0.296 C 
BRANCH  21  22
HETATM   22  N   UNL     1      43.088 -10.630   6.816  1.00  0.00    -0.066 N 
HETATM   23  H   UNL     1      42.738 -11.425   7.373  1.00  0.00     0.280 HD
HETATM   24  C   UNL     1      44.155 -11.131   5.869  1.00  0.00     0.235 C 
HETATM   25  C   UNL     1      45.251 -11.823   6.670  1.00  0.00     0.028 C 
HETATM   26  C   UNL     1      45.844 -10.902   7.729  1.00  0.00     0.003 C 
HETATM   27  C   UNL     1      44.756 -10.316   8.622  1.00  0.00     0.028 C 
HETATM   28  C   UNL     1      43.662  -9.640   7.809  1.00  0.00     0.235 C 
ENDBRANCH  21  22
ENDBRANCH   5  21
BRANCH   4  29
HETATM   29  C   UNL     1      39.942  -9.028   8.378  1.00  0.00     0.225 A 
HETATM   30  N   UNL     1      40.480  -9.288   9.576  1.00  0.00    -0.081 NA
HETATM   31  O   UNL     1      40.537  -8.031  10.189  1.00  0.00    -0.103 OA
HETATM   32  N   UNL     1      40.001  -7.049   9.371  1.00  0.00    -0.083 NA
HETATM   33  C   UNL     1      39.631  -7.664   8.249  1.00  0.00     0.201 A 
BRANCH  33  34
HETATM   34  N   UNL     1      39.062  -7.056   7.199  1.00  0.00    -0.379 N 
HETATM   35  H   UNL     1      38.731  -6.097   7.277  1.00  0.00     0.158 HD
HETATM   36  H   UNL     1      38.791  -7.531   6.340  1.00  0.00     0.158 HD
ENDBRANCH  33  34
ENDBRANCH   4  29
TORSDOF 8
ENDMDL
MODEL 6
REMARK VINA RESULT:      -7.4      2.266      3.767
REMARK  8 active torsions:
REMARK  status: ('A' for Active; 'I' for Inactive)
REMARK    1  A    between atoms: C_5  and  C_6 
REMARK    2  A    between atoms: N_7  and  N_8 
REMARK       I    between atoms: N_8  and  C_9 
REMARK    3  A    between atoms: C_9  and  C_10 
REMARK    4  A    between atoms: N_13  and  C_14 
REMARK    5  A    between atoms: C_18  and  N_19 
REMARK    6  A    between atoms: C_20  and  C_21 
REMARK    7  A    between atoms: C_21  and  N_22 
REMARK    8  A    between atoms: C_30  and  O_31 
ROOT
HETATM    1  C   UNL     1      44.099 -11.186   7.298  1.00  0.00     0.170 A 
HETATM    2  N   UNL     1      45.163 -11.173   8.152  1.00  0.00    -0.152 NA
HETATM    3  N   UNL     1      45.012 -10.156   8.983  1.00  0.00     0.012 NA
HETATM    4  N   UNL     1      43.881  -9.475   8.658  1.00  0.00    -0.215 N 
HETATM    5  C   UNL     1      43.236 -10.149   7.625  1.00  0.00     0.096 A 
ENDROOT
BRANCH   1   6
HETATM    6  C   UNL     1      43.939 -12.155   6.224  1.00  0.00     0.293 C 
HETATM    7  N   UNL     1      43.542 -13.411   6.649  1.00  0.00    -0.242 N 
HETATM    8  H   UNL     1      43.390 -13.593   7.638  1.00  0.00     0.192 HD
HETATM    9  O   UNL     1      44.163 -11.834   5.060  1.00  0.00    -0.264 OA
BRANCH   7  10
HETATM   10  N   UNL     1      43.317 -14.386   5.726  1.00  0.00    -0.183 NA
HETATM   11  C   UNL     1      44.028 -15.463   5.847  1.00  0.00     0.153 C 
BRANCH  11  12
HETATM   12  C   UNL     1      43.851 -16.592   4.909  1.00  0.00     0.017 A 
HETATM   13  C   UNL     1      44.087 -17.885   5.386  1.00  0.00     0.034 A 
HETATM   14  C   UNL     1      43.922 -18.973   4.526  1.00  0.00     0.012 A 
HETATM   15  C   UNL     1      43.523 -18.783   3.203  1.00  0.00     0.022 A 
HETATM   16 BR   UNL     1      44.241 -20.723   5.166  1.00  0.00    -0.051 Br
HETATM   17  C   UNL     1      43.288 -17.492   2.729  1.00  0.00     0.039 A 
HETATM   18  C   UNL     1      43.453 -16.400   3.579  1.00  0.00     0.077 A 
BRANCH  18  19
HETATM   19  O   UNL     1      43.202 -15.168   3.039  1.00  0.00    -0.360 OA
HETATM   20  H   UNL     1      42.677 -14.652   3.688  1.00  0.00     0.217 HD
ENDBRANCH  18  19
ENDBRANCH  11  12
ENDBRANCH   7  10
ENDBRANCH   1   6
BRANCH   5  21
HETATM   21  C   UNL     1      41.891  -9.827   7.092  1.00  0.00     0.296 C 
BRANCH  21  22
HETATM   22  N   UNL     1      41.606 -10.355   5.706  1.00  0.00    -0.066 N 
HETATM   23  H   UNL     1      42.449 -10.877   5.420  1.00  0.00     0.280 HD
HETATM   24  C   UNL     1      40.414 -11.283   5.644  1.00  0.00     0.235 C 
HETATM   25  C   UNL     1      40.305 -11.865   4.239  1.00  0.00     0.028 C 
HETATM   26  C   UNL     1      40.207 -10.773   3.182  1.00  0.00     0.003 C 
HETATM   27  C   UNL     1      41.355  -9.777   3.309  1.00  0.00     0.028 C 
HETATM   28  C   UNL     1      41.460  -9.215   4.719  1.00  0.00     0.235 C 
ENDBRANCH  21  22
ENDBRANCH   5  21
BRANCH   4  29
HETATM   29  C   UNL     1      43.525  -8.251   9.274  1.00  0.00     0.225 A 
HETATM   30  N   UNL     1      43.944  -7.094   8.749  1.00  0.00    -0.081 NA
HETATM   31  O   UNL     1      43.422  -6.130   9.621  1.00  0.00    -0.103 OA
HETATM   32  N   UNL     1      42.735  -6.723  10.669  1.00  0.00    -0.083 NA
HETATM   33  C   UNL     1      42.798  -8.036  10.457  1.00  0.00     0.201 A 
BRANCH  33  34
HETATM   34  N   UNL     1      42.252  -8.963  11.256  1.00  0.00    -0.379 N 
HETATM   35  H   UNL     1      42.040  -8.745  12.227  1.00  0.00     0.158 HD
HETATM   36  H   UNL     1      42.158  -9.947  11.011  1.00  0.00     0.158 HD
ENDBRANCH  33  34
ENDBRANCH   4  29
TORSDOF 8
ENDMDL
MODEL 7
REMARK VINA RESULT:      -7.4      6.198      8.841
REMARK  8 active torsions:
REMARK  status: ('A' for Active; 'I' for Inactive)
REMARK    1  A    between atoms: C_5  and  C_6 
REMARK    2  A    between atoms: N_7  and  N_8 
REMARK       I    between atoms: N_8  and  C_9 
REMARK    3  A    between atoms: C_9  and  C_10 
REMARK    4  A    between atoms: N_13  and  C_14 
REMARK    5  A    between atoms: C_18  and  N_19 
REMARK    6  A    between atoms: C_20  and  C_21 
REMARK    7  A    between atoms: C_21  and  N_22 
REMARK    8  A    between atoms: C_30  and  O_31 
ROOT
HETATM    1  C   UNL     1      41.057 -11.367   1.406  1.00  0.00     0.170 A 
HETATM    2  N   UNL     1      42.065 -10.467   1.225  1.00  0.00    -0.152 NA
HETATM    3  N   UNL     1      41.683  -9.601   0.302  1.00  0.00     0.012 NA
HETATM    4  N   UNL     1      40.450  -9.946  -0.155  1.00  0.00    -0.215 N 
HETATM    5  C   UNL     1      39.991 -11.036   0.581  1.00  0.00     0.096 A 
ENDROOT
BRANCH   1   6
HETATM    6  C   UNL     1      41.133 -12.488   2.332  1.00  0.00     0.293 C 
HETATM    7  N   UNL     1      41.986 -13.500   1.929  1.00  0.00    -0.242 N 
HETATM    8  H   UNL     1      42.493 -13.423   1.050  1.00  0.00     0.192 HD
HETATM    9  O   UNL     1      40.464 -12.488   3.362  1.00  0.00    -0.264 OA
BRANCH   7  10
HETATM   10  N   UNL     1      42.170 -14.578   2.738  1.00  0.00    -0.183 NA
HETATM   11  C   UNL     1      43.106 -15.404   2.387  1.00  0.00     0.153 C 
BRANCH  11  12
HETATM   12  C   UNL     1      43.402 -16.599   3.206  1.00  0.00     0.017 A 
HETATM   13  C   UNL     1      43.472 -17.837   2.558  1.00  0.00     0.034 A 
HETATM   14  C   UNL     1      43.757 -18.983   3.303  1.00  0.00     0.012 A 
HETATM   15  C   UNL     1      43.974 -18.905   4.679  1.00  0.00     0.022 A 
HETATM   16 BR   UNL     1      43.852 -20.660   2.434  1.00  0.00    -0.051 Br
HETATM   17  C   UNL     1      43.904 -17.669   5.322  1.00  0.00     0.039 A 
HETATM   18  C   UNL     1      43.618 -16.521   4.588  1.00  0.00     0.077 A 
BRANCH  18  19
HETATM   19  O   UNL     1      43.567 -15.348   5.291  1.00  0.00    -0.360 OA
HETATM   20  H   UNL     1      42.623 -15.114   5.426  1.00  0.00     0.217 HD
ENDBRANCH  18  19
ENDBRANCH  11  12
ENDBRANCH   7  10
ENDBRANCH   1   6
BRANCH   5  21
HETATM   21  C   UNL     1      38.628 -11.614   0.508  1.00  0.00     0.296 C 
BRANCH  21  22
HETATM   22  N   UNL     1      38.432 -12.664  -0.559  1.00  0.00    -0.066 N 
HETATM   23  H   UNL     1      37.932 -13.444  -0.104  1.00  0.00     0.280 HD
HETATM   24  C   UNL     1      37.617 -12.186  -1.739  1.00  0.00     0.235 C 
HETATM   25  C   UNL     1      37.362 -13.358  -2.679  1.00  0.00     0.028 C 
HETATM   26  C   UNL     1      38.661 -14.009  -3.136  1.00  0.00     0.003 C 
HETATM   27  C   UNL     1      39.531 -14.400  -1.947  1.00  0.00     0.028 C 
HETATM   28  C   UNL     1      39.766 -13.224  -1.009  1.00  0.00     0.235 C 
ENDBRANCH  21  22
ENDBRANCH   5  21
BRANCH   4  29
HETATM   29  C   UNL     1      39.832  -9.296  -1.250  1.00  0.00     0.225 A 
HETATM   30  N   UNL     1      38.973  -8.294  -1.032  1.00  0.00    -0.081 NA
HETATM   31  O   UNL     1      38.565  -7.925  -2.319  1.00  0.00    -0.103 OA
HETATM   32  N   UNL     1      39.152  -8.732  -3.281  1.00  0.00    -0.083 NA
HETATM   33  C   UNL     1      39.937  -9.583  -2.622  1.00  0.00     0.201 A 
BRANCH  33  34
HETATM   34  N   UNL     1      40.682 -10.536  -3.198  1.00  0.00    -0.379 N 
HETATM   35  H   UNL     1      40.243 -11.264  -3.757  1.00  0.00     0.158 HD
HETATM   36  H   UNL     1      41.670 -10.686  -3.004  1.00  0.00     0.158 HD
ENDBRANCH  33  34
ENDBRANCH   4  29
TORSDOF 8
ENDMDL
MODEL 8
REMARK VINA RESULT:      -7.2      2.684      3.954
REMARK  8 active torsions:
REMARK  status: ('A' for Active; 'I' for Inactive)
REMARK    1  A    between atoms: C_5  and  C_6 
REMARK    2  A    between atoms: N_7  and  N_8 
REMARK       I    between atoms: N_8  and  C_9 
REMARK    3  A    between atoms: C_9  and  C_10 
REMARK    4  A    between atoms: N_13  and  C_14 
REMARK    5  A    between atoms: C_18  and  N_19 
REMARK    6  A    between atoms: C_20  and  C_21 
REMARK    7  A    between atoms: C_21  and  N_22 
REMARK    8  A    between atoms: C_30  and  O_31 
ROOT
HETATM    1  C   UNL     1      44.299 -10.700   8.507  1.00  0.00     0.170 A 
HETATM    2  N   UNL     1      45.289 -10.585   9.438  1.00  0.00    -0.152 NA
HETATM    3  N   UNL     1      44.969  -9.599  10.259  1.00  0.00     0.012 NA
HETATM    4  N   UNL     1      43.799  -9.038   9.853  1.00  0.00    -0.215 N 
HETATM    5  C   UNL     1      43.308  -9.763   8.771  1.00  0.00     0.096 A 
ENDROOT
BRANCH   1   6
HETATM    6  C   UNL     1      44.322 -11.668   7.420  1.00  0.00     0.293 C 
HETATM    7  N   UNL     1      43.313 -12.613   7.481  1.00  0.00    -0.242 N 
HETATM    8  H   UNL     1      42.638 -12.593   8.241  1.00  0.00     0.192 HD
HETATM    9  O   UNL     1      45.195 -11.611   6.558  1.00  0.00    -0.264 OA
BRANCH   7  10
HETATM   10  N   UNL     1      43.211 -13.542   6.492  1.00  0.00    -0.183 NA
HETATM   11  C   UNL     1      43.583 -14.745   6.796  1.00  0.00     0.153 C 
BRANCH  11  12
HETATM   12  C   UNL     1      43.495 -15.836   5.802  1.00  0.00     0.017 A 
HETATM   13  C   UNL     1      43.427 -15.486   4.449  1.00  0.00     0.034 A 
HETATM   14  C   UNL     1      43.351 -16.494   3.485  1.00  0.00     0.012 A 
HETATM   15  C   UNL     1      43.344 -17.838   3.856  1.00  0.00     0.022 A 
HETATM   16 BR   UNL     1      43.258 -16.028   1.655  1.00  0.00    -0.051 Br
HETATM   17  C   UNL     1      43.411 -18.184   5.206  1.00  0.00     0.039 A 
HETATM   18  C   UNL     1      43.486 -17.187   6.175  1.00  0.00     0.077 A 
BRANCH  18  19
HETATM   19  O   UNL     1      43.550 -17.607   7.475  1.00  0.00    -0.360 OA
HETATM   20  H   UNL     1      43.213 -16.883   8.047  1.00  0.00     0.217 HD
ENDBRANCH  18  19
ENDBRANCH  11  12
ENDBRANCH   7  10
ENDBRANCH   1   6
BRANCH   5  21
HETATM   21  C   UNL     1      41.980  -9.580   8.140  1.00  0.00     0.296 C 
BRANCH  21  22
HETATM   22  N   UNL     1      42.008  -9.035   6.732  1.00  0.00    -0.066 N 
HETATM   23  H   UNL     1      43.002  -8.871   6.508  1.00  0.00     0.280 HD
HETATM   24  C   UNL     1      41.427  -9.979   5.704  1.00  0.00     0.235 C 
HETATM   25  C   UNL     1      41.635  -9.394   4.313  1.00  0.00     0.028 C 
HETATM   26  C   UNL     1      41.025  -8.004   4.187  1.00  0.00     0.003 C 
HETATM   27  C   UNL     1      41.534  -7.077   5.287  1.00  0.00     0.028 C 
HETATM   28  C   UNL     1      41.333  -7.680   6.669  1.00  0.00     0.235 C 
ENDBRANCH  21  22
ENDBRANCH   5  21
BRANCH   4  29
HETATM   29  C   UNL     1      43.270  -7.865  10.445  1.00  0.00     0.225 A 
HETATM   30  N   UNL     1      43.207  -6.731   9.738  1.00  0.00    -0.081 NA
HETATM   31  O   UNL     1      42.660  -5.812  10.639  1.00  0.00    -0.103 OA
HETATM   32  N   UNL     1      42.439  -6.395  11.877  1.00  0.00    -0.083 NA
HETATM   33  C   UNL     1      42.817  -7.666  11.760  1.00  0.00     0.201 A 
BRANCH  33  34
HETATM   34  N   UNL     1      42.763  -8.572  12.747  1.00  0.00    -0.379 N 
HETATM   35  H   UNL     1      42.538  -9.543  12.542  1.00  0.00     0.158 HD
HETATM   36  H   UNL     1      42.788  -8.341  13.738  1.00  0.00     0.158 HD
ENDBRANCH  33  34
ENDBRANCH   4  29
TORSDOF 8
ENDMDL
MODEL 9
REMARK VINA RESULT:      -7.1      6.109      9.118
REMARK  8 active torsions:
REMARK  status: ('A' for Active; 'I' for Inactive)
REMARK    1  A    between atoms: C_5  and  C_6 
REMARK    2  A    between atoms: N_7  and  N_8 
REMARK       I    between atoms: N_8  and  C_9 
REMARK    3  A    between atoms: C_9  and  C_10 
REMARK    4  A    between atoms: N_13  and  C_14 
REMARK    5  A    between atoms: C_18  and  N_19 
REMARK    6  A    between atoms: C_20  and  C_21 
REMARK    7  A    between atoms: C_21  and  N_22 
REMARK    8  A    between atoms: C_30  and  O_31 
ROOT
HETATM    1  C   UNL     1      40.324 -13.317  -1.046  1.00  0.00     0.170 A 
HETATM    2  N   UNL     1      40.077 -13.970  -2.218  1.00  0.00    -0.152 NA
HETATM    3  N   UNL     1      39.969 -13.068  -3.178  1.00  0.00     0.012 NA
HETATM    4  N   UNL     1      40.102 -11.825  -2.643  1.00  0.00    -0.215 N 
HETATM    5  C   UNL     1      40.398 -11.952  -1.288  1.00  0.00     0.096 A 
ENDROOT
BRANCH   1   6
HETATM    6  C   UNL     1      40.476 -13.989   0.236  1.00  0.00     0.293 C 
HETATM    7  N   UNL     1      41.712 -14.582   0.422  1.00  0.00    -0.242 N 
HETATM    8  H   UNL     1      42.422 -14.527  -0.306  1.00  0.00     0.192 HD
HETATM    9  O   UNL     1      39.547 -14.009   1.040  1.00  0.00    -0.264 OA
BRANCH   7  10
HETATM   10  N   UNL     1      41.983 -15.201   1.603  1.00  0.00    -0.183 NA
HETATM   11  C   UNL     1      42.828 -16.183   1.554  1.00  0.00     0.153 C 
BRANCH  11  12
HETATM   12  C   UNL     1      43.207 -16.913   2.782  1.00  0.00     0.017 A 
HETATM   13  C   UNL     1      43.391 -18.297   2.692  1.00  0.00     0.034 A 
HETATM   14  C   UNL     1      43.756 -19.014   3.833  1.00  0.00     0.012 A 
HETATM   15  C   UNL     1      43.940 -18.367   5.055  1.00  0.00     0.022 A 
HETATM   16 BR   UNL     1      44.006 -20.885   3.719  1.00  0.00    -0.051 Br
HETATM   17  C   UNL     1      43.756 -16.986   5.142  1.00  0.00     0.039 A 
HETATM   18  C   UNL     1      43.389 -16.263   4.010  1.00  0.00     0.077 A 
BRANCH  18  19
HETATM   19  O   UNL     1      43.228 -14.915   4.177  1.00  0.00    -0.360 OA
HETATM   20  H   UNL     1      44.002 -14.463   3.775  1.00  0.00     0.217 HD
ENDBRANCH  18  19
ENDBRANCH  11  12
ENDBRANCH   7  10
ENDBRANCH   1   6
BRANCH   5  21
HETATM   21  C   UNL     1      40.778 -10.844  -0.380  1.00  0.00     0.296 C 
BRANCH  21  22
HETATM   22  N   UNL     1      40.132 -10.881   0.984  1.00  0.00    -0.066 N 
HETATM   23  H   UNL     1      40.149 -11.869   1.281  1.00  0.00     0.280 HD
HETATM   24  C   UNL     1      40.853 -10.048   2.020  1.00  0.00     0.235 C 
HETATM   25  C   UNL     1      40.204 -10.270   3.381  1.00  0.00     0.028 C 
HETATM   26  C   UNL     1      38.715  -9.949   3.356  1.00  0.00     0.003 C 
HETATM   27  C   UNL     1      38.004 -10.713   2.244  1.00  0.00     0.028 C 
HETATM   28  C   UNL     1      38.670 -10.493   0.894  1.00  0.00     0.235 C 
ENDBRANCH  21  22
ENDBRANCH   5  21
BRANCH   4  29
HETATM   29  C   UNL     1      39.891 -10.644  -3.395  1.00  0.00     0.225 A 
HETATM   30  N   UNL     1      40.937  -9.918  -3.805  1.00  0.00    -0.081 NA
HETATM   31  O   UNL     1      40.347  -8.845  -4.482  1.00  0.00    -0.103 OA
HETATM   32  N   UNL     1      38.964  -8.923  -4.436  1.00  0.00    -0.083 NA
HETATM   33  C   UNL     1      38.678 -10.036  -3.762  1.00  0.00     0.201 A 
BRANCH  33  34
HETATM   34  N   UNL     1      37.438 -10.469  -3.497  1.00  0.00    -0.379 N 
HETATM   35  H   UNL     1      36.831 -10.784  -4.251  1.00  0.00     0.158 HD
HETATM   36  H   UNL     1      36.980 -10.376  -2.593  1.00  0.00     0.158 HD
ENDBRANCH  33  34
ENDBRANCH   4  29
TORSDOF 8
ENDMDL
MODEL 10
REMARK VINA RESULT:      -7.0      5.100     10.423
REMARK  8 active torsions:
REMARK  status: ('A' for Active; 'I' for Inactive)
REMARK    1  A    between atoms: C_5  and  C_6 
REMARK    2  A    between atoms: N_7  and  N_8 
REMARK       I    between atoms: N_8  and  C_9 
REMARK    3  A    between atoms: C_9  and  C_10 
REMARK    4  A    between atoms: N_13  and  C_14 
REMARK    5  A    between atoms: C_18  and  N_19 
REMARK    6  A    between atoms: C_20  and  C_21 
REMARK    7  A    between atoms: C_21  and  N_22 
REMARK    8  A    between atoms: C_30  and  O_31 
ROOT
HETATM    1  C   UNL     1      43.223  -9.754  10.938  1.00  0.00     0.170 A 
HETATM    2  N   UNL     1      44.321 -10.464  11.326  1.00  0.00    -0.152 NA
HETATM    3  N   UNL     1      44.955 -10.869  10.238  1.00  0.00     0.012 NA
HETATM    4  N   UNL     1      44.263 -10.467   9.139  1.00  0.00    -0.215 N 
HETATM    5  C   UNL     1      43.182  -9.691   9.552  1.00  0.00     0.096 A 
ENDROOT
BRANCH   1   6
HETATM    6  C   UNL     1      42.269  -9.172  11.871  1.00  0.00     0.293 C 
HETATM    7  N   UNL     1      42.826  -8.285  12.773  1.00  0.00    -0.242 N 
HETATM    8  H   UNL     1      43.825  -8.089  12.749  1.00  0.00     0.192 HD
HETATM    9  O   UNL     1      41.083  -9.491  11.823  1.00  0.00    -0.264 OA
BRANCH   7  10
HETATM   10  N   UNL     1      42.020  -7.646  13.664  1.00  0.00    -0.183 NA
HETATM   11  C   UNL     1      42.377  -7.711  14.908  1.00  0.00     0.153 C 
BRANCH  11  12
HETATM   12  C   UNL     1      41.583  -7.037  15.957  1.00  0.00     0.017 A 
HETATM   13  C   UNL     1      41.068  -7.820  16.996  1.00  0.00     0.034 A 
HETATM   14  C   UNL     1      40.319  -7.212  18.005  1.00  0.00     0.012 A 
HETATM   15  C   UNL     1      40.083  -5.837  17.989  1.00  0.00     0.022 A 
HETATM   16 BR   UNL     1      39.621  -8.265  19.411  1.00  0.00    -0.051 Br
HETATM   17  C   UNL     1      40.597  -5.058  16.951  1.00  0.00     0.039 A 
HETATM   18  C   UNL     1      41.343  -5.657  15.939  1.00  0.00     0.077 A 
BRANCH  18  19
HETATM   19  O   UNL     1      41.812  -4.826  14.959  1.00  0.00    -0.360 OA
HETATM   20  H   UNL     1      41.067  -4.614  14.356  1.00  0.00     0.217 HD
ENDBRANCH  18  19
ENDBRANCH  11  12
ENDBRANCH   7  10
ENDBRANCH   1   6
BRANCH   5  21
HETATM   21  C   UNL     1      42.277  -8.929   8.661  1.00  0.00     0.296 C 
BRANCH  21  22
HETATM   22  N   UNL     1      41.280  -9.763   7.892  1.00  0.00    -0.066 N 
HETATM   23  H   UNL     1      41.591 -10.741   7.990  1.00  0.00     0.280 HD
HETATM   24  C   UNL     1      39.864  -9.647   8.410  1.00  0.00     0.235 C 
HETATM   25  C   UNL     1      38.975 -10.631   7.660  1.00  0.00     0.028 C 
HETATM   26  C   UNL     1      39.028 -10.407   6.155  1.00  0.00     0.003 C 
HETATM   27  C   UNL     1      40.466 -10.422   5.645  1.00  0.00     0.028 C 
HETATM   28  C   UNL     1      41.345  -9.445   6.412  1.00  0.00     0.235 C 
ENDBRANCH  21  22
ENDBRANCH   5  21
BRANCH   4  29
HETATM   29  C   UNL     1      44.611 -10.871   7.828  1.00  0.00     0.225 A 
HETATM   30  N   UNL     1      43.828 -11.729   7.164  1.00  0.00    -0.081 NA
HETATM   31  O   UNL     1      44.490 -11.901   5.943  1.00  0.00    -0.103 OA
HETATM   32  N   UNL     1      45.672 -11.178   5.909  1.00  0.00    -0.083 NA
HETATM   33  C   UNL     1      45.750 -10.541   7.075  1.00  0.00     0.201 A 
BRANCH  33  34
HETATM   34  N   UNL     1      46.757  -9.732   7.435  1.00  0.00    -0.379 N 
HETATM   35  H   UNL     1      47.614 -10.120   7.822  1.00  0.00     0.158 HD
HETATM   36  H   UNL     1      46.685  -8.718   7.492  1.00  0.00     0.158 HD
ENDBRANCH  33  34
ENDBRANCH   4  29
TORSDOF 8
ENDMDL
