MODEL 1
REMARK VINA RESULT:      -9.1      0.000      0.000
REMARK  5 active torsions:
REMARK  status: ('A' for Active; 'I' for Inactive)
REMARK    1  A    between atoms: C_5  and  C_6 
REMARK    2  A    between atoms: C_10  and  C_11 
REMARK       I    between atoms: C_11  and  N_12 
REMARK    3  A    between atoms: N_12  and  C_13 
REMARK    4  A    between atoms: C_15  and  O_16 
REMARK    5  A    between atoms: C_19  and  O_20 
ROOT
HETATM    1  C   UNL     1      42.707 -14.015   5.172  1.00  0.00     0.068 A 
HETATM    2  N   UNL     1      43.430 -15.139   5.399  1.00  0.00    -0.248 NA
HETATM    3  C   UNL     1      43.313 -16.193   4.576  1.00  0.00     0.068 A 
HETATM    4  C   UNL     1      42.441 -16.218   3.470  1.00  0.00     0.008 A 
HETATM    5  C   UNL     1      41.618 -15.078   3.315  1.00  0.00     0.047 A 
HETATM    6  C   UNL     1      41.761 -13.975   4.163  1.00  0.00     0.050 A 
HETATM    7  C   UNL     1      44.124 -17.293   4.821  1.00  0.00     0.032 A 
HETATM    8  C   UNL     1      44.129 -18.411   3.986  1.00  0.00     0.002 A 
HETATM    9  C   UNL     1      43.318 -18.430   2.862  1.00  0.00     0.001 A 
HETATM   10  C   UNL     1      42.487 -17.341   2.599  1.00  0.00     0.015 A 
ENDROOT
BRANCH   5  11
HETATM   11  C   UNL     1      40.611 -14.910   2.232  1.00  0.00     0.257 C 
HETATM   12  N   UNL     1      40.892 -13.945   1.282  1.00  0.00    -0.323 N 
HETATM   13  H   UNL     1      41.740 -13.407   1.400  1.00  0.00     0.169 HD
HETATM   14  O   UNL     1      39.632 -15.648   2.260  1.00  0.00    -0.267 OA
BRANCH  12  15
HETATM   15  C   UNL     1      40.070 -13.579   0.188  1.00  0.00     0.040 A 
HETATM   16  C   UNL     1      40.119 -14.216  -1.056  1.00  0.00     0.066 A 
HETATM   17  C   UNL     1      39.280 -13.813  -2.097  1.00  0.00     0.073 A 
HETATM   18  C   UNL     1      38.371 -12.778  -1.878  1.00  0.00     0.073 A 
HETATM   19  C   UNL     1      38.295 -12.145  -0.638  1.00  0.00     0.073 A 
HETATM   20  C   UNL     1      39.168 -12.524   0.384  1.00  0.00     0.066 A 
BRANCH  17  21
HETATM   21  O   UNL     1      39.250 -14.347  -3.357  1.00  0.00    -0.356 OA
HETATM   22  C   UNL     1      37.980 -14.746  -3.858  1.00  0.00     0.210 C 
ENDBRANCH  17  21
BRANCH  19  23
HETATM   23  O   UNL     1      37.347 -11.162  -0.549  1.00  0.00    -0.356 OA
HETATM   24  C   UNL     1      36.998 -10.745   0.765  1.00  0.00     0.210 C 
ENDBRANCH  19  23
ENDBRANCH  12  15
ENDBRANCH   5  11
BRANCH   1  25
HETATM   25  C   UNL     1      43.041 -12.847   6.018  1.00  0.00    -0.007 A 
HETATM   26  C   UNL     1      42.165 -11.755   6.162  1.00  0.00     0.014 A 
HETATM   27  C   UNL     1      42.512 -10.627   6.916  1.00  0.00     0.007 A 
HETATM   28  C   UNL     1      43.757 -10.550   7.543  1.00  0.00    -0.062 A 
HETATM   29  C   UNL     1      44.146  -9.340   8.337  1.00  0.00     0.048 C 
HETATM   30  C   UNL     1      44.636 -11.629   7.426  1.00  0.00     0.007 A 
HETATM   31  C   UNL     1      44.283 -12.756   6.672  1.00  0.00     0.014 A 
ENDBRANCH   1  25
TORSDOF 5
ENDMDL
MODEL 2
REMARK VINA RESULT:      -9.1      0.206      2.202
REMARK  5 active torsions:
REMARK  status: ('A' for Active; 'I' for Inactive)
REMARK    1  A    between atoms: C_5  and  C_6 
REMARK    2  A    between atoms: C_10  and  C_11 
REMARK       I    between atoms: C_11  and  N_12 
REMARK    3  A    between atoms: N_12  and  C_13 
REMARK    4  A    between atoms: C_15  and  O_16 
REMARK    5  A    between atoms: C_19  and  O_20 
ROOT
HETATM    1  C   UNL     1      42.651 -13.957   5.088  1.00  0.00     0.068 A 
HETATM    2  N   UNL     1      43.374 -15.088   5.276  1.00  0.00    -0.248 NA
HETATM    3  C   UNL     1      43.232 -16.126   4.436  1.00  0.00     0.068 A 
HETATM    4  C   UNL     1      42.331 -16.128   3.354  1.00  0.00     0.008 A 
HETATM    5  C   UNL     1      41.509 -14.982   3.241  1.00  0.00     0.047 A 
HETATM    6  C   UNL     1      41.680 -13.895   4.105  1.00  0.00     0.050 A 
HETATM    7  C   UNL     1      44.044 -17.234   4.640  1.00  0.00     0.032 A 
HETATM    8  C   UNL     1      44.022 -18.337   3.786  1.00  0.00     0.002 A 
HETATM    9  C   UNL     1      43.182 -18.331   2.683  1.00  0.00     0.001 A 
HETATM   10  C   UNL     1      42.350 -17.234   2.461  1.00  0.00     0.015 A 
ENDROOT
BRANCH   5  11
HETATM   11  C   UNL     1      40.475 -14.789   2.189  1.00  0.00     0.257 C 
HETATM   12  N   UNL     1      40.726 -13.794   1.261  1.00  0.00    -0.323 N 
HETATM   13  H   UNL     1      41.573 -13.253   1.375  1.00  0.00     0.169 HD
HETATM   14  O   UNL     1      39.503 -15.536   2.218  1.00  0.00    -0.267 OA
BRANCH  12  15
HETATM   15  C   UNL     1      39.876 -13.403   0.198  1.00  0.00     0.040 A 
HETATM   16  C   UNL     1      38.946 -12.363   0.302  1.00  0.00     0.066 A 
HETATM   17  C   UNL     1      38.136 -12.020  -0.782  1.00  0.00     0.073 A 
HETATM   18  C   UNL     1      38.277 -12.712  -1.985  1.00  0.00     0.073 A 
HETATM   19  C   UNL     1      39.212 -13.738  -2.112  1.00  0.00     0.073 A 
HETATM   20  C   UNL     1      39.988 -14.105  -1.010  1.00  0.00     0.066 A 
BRANCH  17  21
HETATM   21  O   UNL     1      37.183 -11.038  -0.793  1.00  0.00    -0.356 OA
HETATM   22  C   UNL     1      37.027 -10.278   0.401  1.00  0.00     0.210 C 
ENDBRANCH  17  21
BRANCH  19  23
HETATM   23  O   UNL     1      39.266 -14.320  -3.349  1.00  0.00    -0.356 OA
HETATM   24  C   UNL     1      38.032 -14.797  -3.872  1.00  0.00     0.210 C 
ENDBRANCH  19  23
ENDBRANCH  12  15
ENDBRANCH   5  11
BRANCH   1  25
HETATM   25  C   UNL     1      43.013 -12.806   5.946  1.00  0.00    -0.007 A 
HETATM   26  C   UNL     1      42.197 -11.663   6.044  1.00  0.00     0.014 A 
HETATM   27  C   UNL     1      42.573 -10.554   6.811  1.00  0.00     0.007 A 
HETATM   28  C   UNL     1      43.788 -10.547   7.498  1.00  0.00    -0.062 A 
HETATM   29  C   UNL     1      44.210  -9.358   8.308  1.00  0.00     0.048 C 
HETATM   30  C   UNL     1      44.607 -11.677   7.427  1.00  0.00     0.007 A 
HETATM   31  C   UNL     1      44.224 -12.785   6.661  1.00  0.00     0.014 A 
ENDBRANCH   1  25
TORSDOF 5
ENDMDL
MODEL 3
REMARK VINA RESULT:      -9.0      3.282      8.617
REMARK  5 active torsions:
REMARK  status: ('A' for Active; 'I' for Inactive)
REMARK    1  A    between atoms: C_5  and  C_6 
REMARK    2  A    between atoms: C_10  and  C_11 
REMARK       I    between atoms: C_11  and  N_12 
REMARK    3  A    between atoms: N_12  and  C_13 
REMARK    4  A    between atoms: C_15  and  O_16 
REMARK    5  A    between atoms: C_19  and  O_20 
ROOT
HETATM    1  C   UNL     1      42.594 -15.503   2.809  1.00  0.00     0.068 A 
HETATM    2  N   UNL     1      41.768 -15.280   1.758  1.00  0.00    -0.248 NA
HETATM    3  C   UNL     1      41.450 -14.025   1.404  1.00  0.00     0.068 A 
HETATM    4  C   UNL     1      41.912 -12.886   2.093  1.00  0.00     0.008 A 
HETATM    5  C   UNL     1      42.683 -13.144   3.251  1.00  0.00     0.047 A 
HETATM    6  C   UNL     1      43.029 -14.454   3.599  1.00  0.00     0.050 A 
HETATM    7  C   UNL     1      40.651 -13.856   0.282  1.00  0.00     0.032 A 
HETATM    8  C   UNL     1      40.319 -12.592  -0.209  1.00  0.00     0.002 A 
HETATM    9  C   UNL     1      40.812 -11.461   0.423  1.00  0.00     0.001 A 
HETATM   10  C   UNL     1      41.609 -11.604   1.559  1.00  0.00     0.015 A 
ENDROOT
BRANCH   5  11
HETATM   11  C   UNL     1      43.248 -12.090   4.137  1.00  0.00     0.257 C 
HETATM   12  N   UNL     1      42.712 -12.012   5.410  1.00  0.00    -0.323 N 
HETATM   13  H   UNL     1      41.963 -12.651   5.641  1.00  0.00     0.169 HD
HETATM   14  O   UNL     1      44.149 -11.397   3.676  1.00  0.00    -0.267 OA
BRANCH  12  15
HETATM   15  C   UNL     1      43.059 -11.071   6.410  1.00  0.00     0.040 A 
HETATM   16  C   UNL     1      42.467  -9.807   6.513  1.00  0.00     0.066 A 
HETATM   17  C   UNL     1      42.849  -8.922   7.524  1.00  0.00     0.073 A 
HETATM   18  C   UNL     1      43.813  -9.319   8.450  1.00  0.00     0.073 A 
HETATM   19  C   UNL     1      44.399 -10.582   8.373  1.00  0.00     0.073 A 
HETATM   20  C   UNL     1      44.044 -11.445   7.334  1.00  0.00     0.066 A 
BRANCH  17  21
HETATM   21  O   UNL     1      42.356  -7.659   7.712  1.00  0.00    -0.356 OA
HETATM   22  C   UNL     1      42.901  -6.910   8.792  1.00  0.00     0.210 C 
ENDBRANCH  17  21
BRANCH  19  23
HETATM   23  O   UNL     1      45.312 -10.855   9.355  1.00  0.00    -0.356 OA
HETATM   24  C   UNL     1      45.214 -10.073  10.539  1.00  0.00     0.210 C 
ENDBRANCH  19  23
ENDBRANCH  12  15
ENDBRANCH   5  11
BRANCH   1  25
HETATM   25  C   UNL     1      43.034 -16.903   3.004  1.00  0.00    -0.007 A 
HETATM   26  C   UNL     1      42.812 -17.896   2.031  1.00  0.00     0.014 A 
HETATM   27  C   UNL     1      43.177 -19.231   2.246  1.00  0.00     0.007 A 
HETATM   28  C   UNL     1      43.768 -19.618   3.450  1.00  0.00    -0.062 A 
HETATM   29  C   UNL     1      44.147 -21.048   3.698  1.00  0.00     0.048 C 
HETATM   30  C   UNL     1      44.012 -18.646   4.423  1.00  0.00     0.007 A 
HETATM   31  C   UNL     1      43.647 -17.311   4.201  1.00  0.00     0.014 A 
ENDBRANCH   1  25
TORSDOF 5
ENDMDL
MODEL 4
REMARK VINA RESULT:      -8.9      3.307      8.502
REMARK  5 active torsions:
REMARK  status: ('A' for Active; 'I' for Inactive)
REMARK    1  A    between atoms: C_5  and  C_6 
REMARK    2  A    between atoms: C_10  and  C_11 
REMARK       I    between atoms: C_11  and  N_12 
REMARK    3  A    between atoms: N_12  and  C_13 
REMARK    4  A    between atoms: C_15  and  O_16 
REMARK    5  A    between atoms: C_19  and  O_20 
ROOT
HETATM    1  C   UNL     1      42.633 -15.550   2.808  1.00  0.00     0.068 A 
HETATM    2  N   UNL     1      41.820 -15.299   1.752  1.00  0.00    -0.248 NA
HETATM    3  C   UNL     1      41.525 -14.034   1.414  1.00  0.00     0.068 A 
HETATM    4  C   UNL     1      41.998 -12.913   2.125  1.00  0.00     0.008 A 
HETATM    5  C   UNL     1      42.754 -13.200   3.285  1.00  0.00     0.047 A 
HETATM    6  C   UNL     1      43.077 -14.520   3.618  1.00  0.00     0.050 A 
HETATM    7  C   UNL     1      40.740 -13.836   0.287  1.00  0.00     0.032 A 
HETATM    8  C   UNL     1      40.432 -12.560  -0.188  1.00  0.00     0.002 A 
HETATM    9  C   UNL     1      40.935 -11.447   0.466  1.00  0.00     0.001 A 
HETATM   10  C   UNL     1      41.720 -11.619   1.607  1.00  0.00     0.015 A 
ENDROOT
BRANCH   5  11
HETATM   11  C   UNL     1      43.326 -12.168   4.192  1.00  0.00     0.257 C 
HETATM   12  N   UNL     1      42.807 -12.127   5.474  1.00  0.00    -0.323 N 
HETATM   13  H   UNL     1      42.064 -12.775   5.697  1.00  0.00     0.169 HD
HETATM   14  O   UNL     1      44.219 -11.459   3.739  1.00  0.00    -0.267 OA
BRANCH  12  15
HETATM   15  C   UNL     1      43.163 -11.211   6.494  1.00  0.00     0.040 A 
HETATM   16  C   UNL     1      44.157 -11.469   7.445  1.00  0.00     0.066 A 
HETATM   17  C   UNL     1      44.467 -10.525   8.426  1.00  0.00     0.073 A 
HETATM   18  C   UNL     1      43.789  -9.306   8.437  1.00  0.00     0.073 A 
HETATM   19  C   UNL     1      42.810  -9.025   7.486  1.00  0.00     0.073 A 
HETATM   20  C   UNL     1      42.474  -9.991   6.535  1.00  0.00     0.066 A 
BRANCH  17  21
HETATM   21  O   UNL     1      45.402 -10.672   9.414  1.00  0.00    -0.356 OA
HETATM   22  C   UNL     1      45.108 -10.078  10.673  1.00  0.00     0.210 C 
ENDBRANCH  17  21
BRANCH  19  23
HETATM   23  O   UNL     1      42.238  -7.786   7.595  1.00  0.00    -0.356 OA
HETATM   24  C   UNL     1      41.322  -7.610   8.668  1.00  0.00     0.210 C 
ENDBRANCH  19  23
ENDBRANCH  12  15
ENDBRANCH   5  11
BRANCH   1  25
HETATM   25  C   UNL     1      43.049 -16.960   2.985  1.00  0.00    -0.007 A 
HETATM   26  C   UNL     1      42.797 -17.941   2.008  1.00  0.00     0.014 A 
HETATM   27  C   UNL     1      43.140 -19.284   2.207  1.00  0.00     0.007 A 
HETATM   28  C   UNL     1      43.739 -19.692   3.400  1.00  0.00    -0.062 A 
HETATM   29  C   UNL     1      44.094 -21.130   3.632  1.00  0.00     0.048 C 
HETATM   30  C   UNL     1      44.012 -18.732   4.378  1.00  0.00     0.007 A 
HETATM   31  C   UNL     1      43.669 -17.390   4.172  1.00  0.00     0.014 A 
ENDBRANCH   1  25
TORSDOF 5
ENDMDL
MODEL 5
REMARK VINA RESULT:      -8.8      2.884      8.123
REMARK  5 active torsions:
REMARK  status: ('A' for Active; 'I' for Inactive)
REMARK    1  A    between atoms: C_5  and  C_6 
REMARK    2  A    between atoms: C_10  and  C_11 
REMARK       I    between atoms: C_11  and  N_12 
REMARK    3  A    between atoms: N_12  and  C_13 
REMARK    4  A    between atoms: C_15  and  O_16 
REMARK    5  A    between atoms: C_19  and  O_20 
ROOT
HETATM    1  C   UNL     1      41.180 -14.518   1.742  1.00  0.00     0.068 A 
HETATM    2  N   UNL     1      41.835 -15.685   1.529  1.00  0.00    -0.248 NA
HETATM    3  C   UNL     1      42.549 -16.247   2.518  1.00  0.00     0.068 A 
HETATM    4  C   UNL     1      42.687 -15.672   3.796  1.00  0.00     0.008 A 
HETATM    5  C   UNL     1      42.086 -14.403   3.963  1.00  0.00     0.047 A 
HETATM    6  C   UNL     1      41.325 -13.834   2.936  1.00  0.00     0.050 A 
HETATM    7  C   UNL     1      43.147 -17.473   2.262  1.00  0.00     0.032 A 
HETATM    8  C   UNL     1      43.853 -18.173   3.241  1.00  0.00     0.002 A 
HETATM    9  C   UNL     1      43.952 -17.648   4.520  1.00  0.00     0.001 A 
HETATM   10  C   UNL     1      43.367 -16.413   4.801  1.00  0.00     0.015 A 
ENDROOT
BRANCH   5  11
HETATM   11  C   UNL     1      42.132 -13.609   5.221  1.00  0.00     0.257 C 
HETATM   12  N   UNL     1      42.946 -12.490   5.207  1.00  0.00    -0.323 N 
HETATM   13  H   UNL     1      43.469 -12.304   4.362  1.00  0.00     0.169 HD
HETATM   14  O   UNL     1      41.434 -13.997   6.152  1.00  0.00    -0.267 OA
BRANCH  12  15
HETATM   15  C   UNL     1      43.180 -11.609   6.291  1.00  0.00     0.040 A 
HETATM   16  C   UNL     1      44.237 -11.767   7.194  1.00  0.00     0.066 A 
HETATM   17  C   UNL     1      44.419 -10.863   8.243  1.00  0.00     0.073 A 
HETATM   18  C   UNL     1      43.548  -9.781   8.369  1.00  0.00     0.073 A 
HETATM   19  C   UNL     1      42.501  -9.597   7.466  1.00  0.00     0.073 A 
HETATM   20  C   UNL     1      42.299 -10.530   6.447  1.00  0.00     0.066 A 
BRANCH  17  21
HETATM   21  O   UNL     1      45.401 -10.925   9.194  1.00  0.00    -0.356 OA
HETATM   22  C   UNL     1      45.269 -10.055  10.313  1.00  0.00     0.210 C 
ENDBRANCH  17  21
BRANCH  19  23
HETATM   23  O   UNL     1      41.735  -8.486   7.689  1.00  0.00    -0.356 OA
HETATM   24  C   UNL     1      42.440  -7.264   7.870  1.00  0.00     0.210 C 
ENDBRANCH  19  23
ENDBRANCH  12  15
ENDBRANCH   5  11
BRANCH   1  25
HETATM   25  C   UNL     1      40.273 -14.077   0.658  1.00  0.00    -0.007 A 
HETATM   26  C   UNL     1      39.939 -14.915  -0.423  1.00  0.00     0.014 A 
HETATM   27  C   UNL     1      39.128 -14.471  -1.475  1.00  0.00     0.007 A 
HETATM   28  C   UNL     1      38.632 -13.166  -1.484  1.00  0.00    -0.062 A 
HETATM   29  C   UNL     1      37.779 -12.674  -2.615  1.00  0.00     0.048 C 
HETATM   30  C   UNL     1      38.939 -12.322  -0.414  1.00  0.00     0.007 A 
HETATM   31  C   UNL     1      39.748 -12.772   0.637  1.00  0.00     0.014 A 
ENDBRANCH   1  25
TORSDOF 5
ENDMDL
MODEL 6
REMARK VINA RESULT:      -8.7      2.900      8.165
REMARK  5 active torsions:
REMARK  status: ('A' for Active; 'I' for Inactive)
REMARK    1  A    between atoms: C_5  and  C_6 
REMARK    2  A    between atoms: C_10  and  C_11 
REMARK       I    between atoms: C_11  and  N_12 
REMARK    3  A    between atoms: N_12  and  C_13 
REMARK    4  A    between atoms: C_15  and  O_16 
REMARK    5  A    between atoms: C_19  and  O_20 
ROOT
HETATM    1  C   UNL     1      41.105 -14.477   1.754  1.00  0.00     0.068 A 
HETATM    2  N   UNL     1      41.788 -15.628   1.540  1.00  0.00    -0.248 NA
HETATM    3  C   UNL     1      42.495 -16.187   2.534  1.00  0.00     0.068 A 
HETATM    4  C   UNL     1      42.601 -15.623   3.820  1.00  0.00     0.008 A 
HETATM    5  C   UNL     1      41.971 -14.368   3.991  1.00  0.00     0.047 A 
HETATM    6  C   UNL     1      41.217 -13.803   2.957  1.00  0.00     0.050 A 
HETATM    7  C   UNL     1      43.122 -17.398   2.275  1.00  0.00     0.032 A 
HETATM    8  C   UNL     1      43.825 -18.095   3.258  1.00  0.00     0.002 A 
HETATM    9  C   UNL     1      43.891 -17.583   4.545  1.00  0.00     0.001 A 
HETATM   10  C   UNL     1      43.278 -16.363   4.829  1.00  0.00     0.015 A 
ENDROOT
BRANCH   5  11
HETATM   11  C   UNL     1      41.981 -13.588   5.258  1.00  0.00     0.257 C 
HETATM   12  N   UNL     1      42.693 -12.402   5.240  1.00  0.00    -0.323 N 
HETATM   13  H   UNL     1      43.177 -12.162   4.384  1.00  0.00     0.169 HD
HETATM   14  O   UNL     1      41.343 -14.046   6.201  1.00  0.00    -0.267 OA
BRANCH  12  15
HETATM   15  C   UNL     1      42.878 -11.517   6.329  1.00  0.00     0.040 A 
HETATM   16  C   UNL     1      41.981 -10.491   6.646  1.00  0.00     0.066 A 
HETATM   17  C   UNL     1      42.215  -9.651   7.736  1.00  0.00     0.073 A 
HETATM   18  C   UNL     1      43.346  -9.858   8.527  1.00  0.00     0.073 A 
HETATM   19  C   UNL     1      44.240 -10.888   8.237  1.00  0.00     0.073 A 
HETATM   20  C   UNL     1      44.022 -11.696   7.119  1.00  0.00     0.066 A 
BRANCH  17  21
HETATM   21  O   UNL     1      41.422  -8.607   8.130  1.00  0.00    -0.356 OA
HETATM   22  C   UNL     1      40.091  -8.923   8.523  1.00  0.00     0.210 C 
ENDBRANCH  17  21
BRANCH  19  23
HETATM   23  O   UNL     1      45.294 -10.997   9.102  1.00  0.00    -0.356 OA
HETATM   24  C   UNL     1      45.318 -10.071  10.182  1.00  0.00     0.210 C 
ENDBRANCH  19  23
ENDBRANCH  12  15
ENDBRANCH   5  11
BRANCH   1  25
HETATM   25  C   UNL     1      40.209 -14.041   0.659  1.00  0.00    -0.007 A 
HETATM   26  C   UNL     1      39.924 -14.866  -0.445  1.00  0.00     0.014 A 
HETATM   27  C   UNL     1      39.122 -14.425  -1.505  1.00  0.00     0.007 A 
HETATM   28  C   UNL     1      38.587 -13.136  -1.500  1.00  0.00    -0.062 A 
HETATM   29  C   UNL     1      37.742 -12.648  -2.639  1.00  0.00     0.048 C 
HETATM   30  C   UNL     1      38.844 -12.306  -0.407  1.00  0.00     0.007 A 
HETATM   31  C   UNL     1      39.644 -12.753   0.653  1.00  0.00     0.014 A 
ENDBRANCH   1  25
TORSDOF 5
ENDMDL
MODEL 7
REMARK VINA RESULT:      -8.7      1.803      5.465
REMARK  5 active torsions:
REMARK  status: ('A' for Active; 'I' for Inactive)
REMARK    1  A    between atoms: C_5  and  C_6 
REMARK    2  A    between atoms: C_10  and  C_11 
REMARK       I    between atoms: C_11  and  N_12 
REMARK    3  A    between atoms: N_12  and  C_13 
REMARK    4  A    between atoms: C_15  and  O_16 
REMARK    5  A    between atoms: C_19  and  O_20 
ROOT
HETATM    1  C   UNL     1      42.838 -15.679   3.686  1.00  0.00     0.068 A 
HETATM    2  N   UNL     1      43.219 -14.928   4.749  1.00  0.00    -0.248 NA
HETATM    3  C   UNL     1      42.763 -13.672   4.884  1.00  0.00     0.068 A 
HETATM    4  C   UNL     1      41.909 -13.054   3.951  1.00  0.00     0.008 A 
HETATM    5  C   UNL     1      41.611 -13.816   2.797  1.00  0.00     0.047 A 
HETATM    6  C   UNL     1      42.071 -15.132   2.674  1.00  0.00     0.050 A 
HETATM    7  C   UNL     1      43.137 -12.973   6.024  1.00  0.00     0.032 A 
HETATM    8  C   UNL     1      42.664 -11.688   6.294  1.00  0.00     0.002 A 
HETATM    9  C   UNL     1      41.778 -11.086   5.414  1.00  0.00     0.001 A 
HETATM   10  C   UNL     1      41.394 -11.765   4.257  1.00  0.00     0.015 A 
ENDROOT
BRANCH   5  11
HETATM   11  C   UNL     1      40.751 -13.346   1.678  1.00  0.00     0.257 C 
HETATM   12  N   UNL     1      41.399 -13.047   0.493  1.00  0.00    -0.323 N 
HETATM   13  H   UNL     1      42.406 -13.141   0.476  1.00  0.00     0.169 HD
HETATM   14  O   UNL     1      39.544 -13.283   1.889  1.00  0.00    -0.267 OA
BRANCH  12  15
HETATM   15  C   UNL     1      40.800 -12.547  -0.689  1.00  0.00     0.040 A 
HETATM   16  C   UNL     1      40.772 -11.189  -1.021  1.00  0.00     0.066 A 
HETATM   17  C   UNL     1      40.169 -10.756  -2.203  1.00  0.00     0.073 A 
HETATM   18  C   UNL     1      39.612 -11.698  -3.069  1.00  0.00     0.073 A 
HETATM   19  C   UNL     1      39.649 -13.058  -2.763  1.00  0.00     0.073 A 
HETATM   20  C   UNL     1      40.214 -13.479  -1.558  1.00  0.00     0.066 A 
BRANCH  17  21
HETATM   21  O   UNL     1      40.064  -9.458  -2.623  1.00  0.00    -0.356 OA
HETATM   22  C   UNL     1      41.011  -9.014  -3.588  1.00  0.00     0.210 C 
ENDBRANCH  17  21
BRANCH  19  23
HETATM   23  O   UNL     1      39.088 -13.876  -3.706  1.00  0.00    -0.356 OA
HETATM   24  C   UNL     1      38.311 -14.961  -3.212  1.00  0.00     0.210 C 
ENDBRANCH  19  23
ENDBRANCH  12  15
ENDBRANCH   5  11
BRANCH   1  25
HETATM   25  C   UNL     1      43.240 -17.103   3.722  1.00  0.00    -0.007 A 
HETATM   26  C   UNL     1      43.190 -17.921   2.577  1.00  0.00     0.014 A 
HETATM   27  C   UNL     1      43.515 -19.282   2.631  1.00  0.00     0.007 A 
HETATM   28  C   UNL     1      43.889 -19.874   3.838  1.00  0.00    -0.062 A 
HETATM   29  C   UNL     1      44.221 -21.334   3.911  1.00  0.00     0.048 C 
HETATM   30  C   UNL     1      43.959 -19.078   4.984  1.00  0.00     0.007 A 
HETATM   31  C   UNL     1      43.637 -17.716   4.924  1.00  0.00     0.014 A 
ENDBRANCH   1  25
TORSDOF 5
ENDMDL
MODEL 8
REMARK VINA RESULT:      -8.6      1.815      5.036
REMARK  5 active torsions:
REMARK  status: ('A' for Active; 'I' for Inactive)
REMARK    1  A    between atoms: C_5  and  C_6 
REMARK    2  A    between atoms: C_10  and  C_11 
REMARK       I    between atoms: C_11  and  N_12 
REMARK    3  A    between atoms: N_12  and  C_13 
REMARK    4  A    between atoms: C_15  and  O_16 
REMARK    5  A    between atoms: C_19  and  O_20 
ROOT
HETATM    1  C   UNL     1      42.831 -15.348   4.160  1.00  0.00     0.068 A 
HETATM    2  N   UNL     1      43.156 -14.442   5.115  1.00  0.00    -0.248 NA
HETATM    3  C   UNL     1      42.673 -13.191   5.049  1.00  0.00     0.068 A 
HETATM    4  C   UNL     1      41.846 -12.735   4.005  1.00  0.00     0.008 A 
HETATM    5  C   UNL     1      41.608 -13.663   2.964  1.00  0.00     0.047 A 
HETATM    6  C   UNL     1      42.095 -14.971   3.051  1.00  0.00     0.050 A 
HETATM    7  C   UNL     1      42.988 -12.325   6.087  1.00  0.00     0.032 A 
HETATM    8  C   UNL     1      42.483 -11.026   6.149  1.00  0.00     0.002 A 
HETATM    9  C   UNL     1      41.622 -10.579   5.159  1.00  0.00     0.001 A 
HETATM   10  C   UNL     1      41.297 -11.427   4.100  1.00  0.00     0.015 A 
ENDROOT
BRANCH   5  11
HETATM   11  C   UNL     1      40.785 -13.380   1.757  1.00  0.00     0.257 C 
HETATM   12  N   UNL     1      41.479 -13.009   0.619  1.00  0.00    -0.323 N 
HETATM   13  H   UNL     1      42.484 -12.929   0.690  1.00  0.00     0.169 HD
HETATM   14  O   UNL     1      39.571 -13.518   1.863  1.00  0.00    -0.267 OA
BRANCH  12  15
HETATM   15  C   UNL     1      40.913 -12.654  -0.630  1.00  0.00     0.040 A 
HETATM   16  C   UNL     1      40.349 -13.584  -1.510  1.00  0.00     0.066 A 
HETATM   17  C   UNL     1      39.803 -13.173  -2.728  1.00  0.00     0.073 A 
HETATM   18  C   UNL     1      39.803 -11.816  -3.052  1.00  0.00     0.073 A 
HETATM   19  C   UNL     1      40.344 -10.874  -2.179  1.00  0.00     0.073 A 
HETATM   20  C   UNL     1      40.928 -11.297  -0.983  1.00  0.00     0.066 A 
BRANCH  17  21
HETATM   21  O   UNL     1      39.242 -13.990  -3.672  1.00  0.00    -0.356 OA
HETATM   22  C   UNL     1      38.247 -14.903  -3.225  1.00  0.00     0.210 C 
ENDBRANCH  17  21
BRANCH  19  23
HETATM   23  O   UNL     1      40.261  -9.577  -2.606  1.00  0.00    -0.356 OA
HETATM   24  C   UNL     1      40.460  -9.361  -3.998  1.00  0.00     0.210 C 
ENDBRANCH  19  23
ENDBRANCH  12  15
ENDBRANCH   5  11
BRANCH   1  25
HETATM   25  C   UNL     1      43.255 -16.742   4.418  1.00  0.00    -0.007 A 
HETATM   26  C   UNL     1      43.617 -17.617   3.376  1.00  0.00     0.014 A 
HETATM   27  C   UNL     1      43.961 -18.952   3.621  1.00  0.00     0.007 A 
HETATM   28  C   UNL     1      43.942 -19.460   4.921  1.00  0.00    -0.062 A 
HETATM   29  C   UNL     1      44.290 -20.893   5.193  1.00  0.00     0.048 C 
HETATM   30  C   UNL     1      43.600 -18.606   5.972  1.00  0.00     0.007 A 
HETATM   31  C   UNL     1      43.260 -17.270   5.721  1.00  0.00     0.014 A 
ENDBRANCH   1  25
TORSDOF 5
ENDMDL
MODEL 9
REMARK VINA RESULT:      -8.6      1.476      5.301
REMARK  5 active torsions:
REMARK  status: ('A' for Active; 'I' for Inactive)
REMARK    1  A    between atoms: C_5  and  C_6 
REMARK    2  A    between atoms: C_10  and  C_11 
REMARK       I    between atoms: C_11  and  N_12 
REMARK    3  A    between atoms: N_12  and  C_13 
REMARK    4  A    between atoms: C_15  and  O_16 
REMARK    5  A    between atoms: C_19  and  O_20 
ROOT
HETATM    1  C   UNL     1      43.215 -15.258   4.715  1.00  0.00     0.068 A 
HETATM    2  N   UNL     1      43.581 -14.495   5.774  1.00  0.00    -0.248 NA
HETATM    3  C   UNL     1      43.294 -13.184   5.791  1.00  0.00     0.068 A 
HETATM    4  C   UNL     1      42.641 -12.521   4.733  1.00  0.00     0.008 A 
HETATM    5  C   UNL     1      42.366 -13.312   3.594  1.00  0.00     0.047 A 
HETATM    6  C   UNL     1      42.647 -14.683   3.593  1.00  0.00     0.050 A 
HETATM    7  C   UNL     1      43.636 -12.465   6.928  1.00  0.00     0.032 A 
HETATM    8  C   UNL     1      43.322 -11.113   7.074  1.00  0.00     0.002 A 
HETATM    9  C   UNL     1      42.630 -10.459   6.067  1.00  0.00     0.001 A 
HETATM   10  C   UNL     1      42.282 -11.157   4.910  1.00  0.00     0.015 A 
ENDROOT
BRANCH   5  11
HETATM   11  C   UNL     1      41.707 -12.808   2.359  1.00  0.00     0.257 C 
HETATM   12  N   UNL     1      40.591 -13.506   1.933  1.00  0.00    -0.323 N 
HETATM   13  H   UNL     1      40.318 -14.320   2.468  1.00  0.00     0.169 HD
HETATM   14  O   UNL     1      42.190 -11.809   1.836  1.00  0.00    -0.267 OA
BRANCH  12  15
HETATM   15  C   UNL     1      39.827 -13.239   0.771  1.00  0.00     0.040 A 
HETATM   16  C   UNL     1      38.927 -12.173   0.671  1.00  0.00     0.066 A 
HETATM   17  C   UNL     1      38.203 -11.959  -0.504  1.00  0.00     0.073 A 
HETATM   18  C   UNL     1      38.403 -12.807  -1.592  1.00  0.00     0.073 A 
HETATM   19  C   UNL     1      39.310 -13.863  -1.517  1.00  0.00     0.073 A 
HETATM   20  C   UNL     1      39.998 -14.098  -0.324  1.00  0.00     0.066 A 
BRANCH  17  21
HETATM   21  O   UNL     1      37.286 -10.965  -0.711  1.00  0.00    -0.356 OA
HETATM   22  C   UNL     1      37.541 -10.065  -1.783  1.00  0.00     0.210 C 
ENDBRANCH  17  21
BRANCH  19  23
HETATM   23  O   UNL     1      39.428 -14.605  -2.661  1.00  0.00    -0.356 OA
HETATM   24  C   UNL     1      38.243 -14.764  -3.431  1.00  0.00     0.210 C 
ENDBRANCH  19  23
ENDBRANCH  12  15
ENDBRANCH   5  11
BRANCH   1  25
HETATM   25  C   UNL     1      43.406 -16.718   4.871  1.00  0.00    -0.007 A 
HETATM   26  C   UNL     1      43.260 -17.361   6.115  1.00  0.00     0.014 A 
HETATM   27  C   UNL     1      43.499 -18.732   6.267  1.00  0.00     0.007 A 
HETATM   28  C   UNL     1      43.905 -19.505   5.178  1.00  0.00    -0.062 A 
HETATM   29  C   UNL     1      44.181 -20.971   5.334  1.00  0.00     0.048 C 
HETATM   30  C   UNL     1      44.041 -18.891   3.931  1.00  0.00     0.007 A 
HETATM   31  C   UNL     1      43.798 -17.519   3.784  1.00  0.00     0.014 A 
ENDBRANCH   1  25
TORSDOF 5
ENDMDL
MODEL 10
REMARK VINA RESULT:      -8.3     11.598     17.386
REMARK  5 active torsions:
REMARK  status: ('A' for Active; 'I' for Inactive)
REMARK    1  A    between atoms: C_5  and  C_6 
REMARK    2  A    between atoms: C_10  and  C_11 
REMARK       I    between atoms: C_11  and  N_12 
REMARK    3  A    between atoms: N_12  and  C_13 
REMARK    4  A    between atoms: C_15  and  O_16 
REMARK    5  A    between atoms: C_19  and  O_20 
ROOT
HETATM    1  C   UNL     1      41.463  -8.017  14.010  1.00  0.00     0.068 A 
HETATM    2  N   UNL     1      40.453  -7.253  13.526  1.00  0.00    -0.248 NA
HETATM    3  C   UNL     1      39.695  -6.529  14.365  1.00  0.00     0.068 A 
HETATM    4  C   UNL     1      39.867  -6.532  15.763  1.00  0.00     0.008 A 
HETATM    5  C   UNL     1      40.854  -7.419  16.254  1.00  0.00     0.047 A 
HETATM    6  C   UNL     1      41.655  -8.152  15.374  1.00  0.00     0.050 A 
HETATM    7  C   UNL     1      38.717  -5.717  13.808  1.00  0.00     0.032 A 
HETATM    8  C   UNL     1      37.920  -4.874  14.585  1.00  0.00     0.002 A 
HETATM    9  C   UNL     1      38.115  -4.823  15.956  1.00  0.00     0.001 A 
HETATM   10  C   UNL     1      39.085  -5.636  16.542  1.00  0.00     0.015 A 
ENDROOT
BRANCH   5  11
HETATM   11  C   UNL     1      41.180  -7.598  17.695  1.00  0.00     0.257 C 
HETATM   12  N   UNL     1      40.403  -8.507  18.389  1.00  0.00    -0.323 N 
HETATM   13  H   UNL     1      39.656  -8.964  17.883  1.00  0.00     0.169 HD
HETATM   14  O   UNL     1      42.118  -6.945  18.140  1.00  0.00    -0.267 OA
BRANCH  12  15
HETATM   15  C   UNL     1      40.499  -8.814  19.768  1.00  0.00     0.040 A 
HETATM   16  C   UNL     1      41.441  -9.706  20.293  1.00  0.00     0.066 A 
HETATM   17  C   UNL     1      41.490  -9.966  21.664  1.00  0.00     0.073 A 
HETATM   18  C   UNL     1      40.602  -9.308  22.515  1.00  0.00     0.073 A 
HETATM   19  C   UNL     1      39.670  -8.402  22.012  1.00  0.00     0.073 A 
HETATM   20  C   UNL     1      39.597  -8.180  20.634  1.00  0.00     0.066 A 
BRANCH  17  21
HETATM   21  O   UNL     1      42.351 -10.828  22.286  1.00  0.00    -0.356 OA
HETATM   22  C   UNL     1      43.327 -11.465  21.470  1.00  0.00     0.210 C 
ENDBRANCH  17  21
BRANCH  19  23
HETATM   23  O   UNL     1      38.874  -7.809  22.954  1.00  0.00    -0.356 OA
HETATM   24  C   UNL     1      39.111  -6.428  23.196  1.00  0.00     0.210 C 
ENDBRANCH  19  23
ENDBRANCH  12  15
ENDBRANCH   5  11
BRANCH   1  25
HETATM   25  C   UNL     1      42.356  -8.627  12.999  1.00  0.00    -0.007 A 
HETATM   26  C   UNL     1      42.987  -7.860  12.002  1.00  0.00     0.014 A 
HETATM   27  C   UNL     1      43.784  -8.451  11.013  1.00  0.00     0.007 A 
HETATM   28  C   UNL     1      43.967  -9.834  10.984  1.00  0.00    -0.062 A 
HETATM   29  C   UNL     1      44.803 -10.479   9.919  1.00  0.00     0.048 C 
HETATM   30  C   UNL     1      43.362 -10.613  11.973  1.00  0.00     0.007 A 
HETATM   31  C   UNL     1      42.568 -10.017  12.962  1.00  0.00     0.014 A 
ENDBRANCH   1  25
TORSDOF 5
ENDMDL
