MODEL 1
REMARK VINA RESULT:      -9.3      0.000      0.000
REMARK  7 active torsions:
REMARK  status: ('A' for Active; 'I' for Inactive)
REMARK    1  A    between atoms: C_5  and  C_6 
REMARK       I    between atoms: C_6  and  N_7 
REMARK    2  A    between atoms: N_7  and  C_8 
REMARK    3  A    between atoms: C_8  and  C_9 
REMARK    4  A    between atoms: C_9  and  C_10 
REMARK    5  A    between atoms: N_15  and  C_17 
REMARK    6  A    between atoms: C_17  and  C_18 
REMARK    7  A    between atoms: C_21  and  C_22 
ROOT
HETATM    1  C   UNL     1      42.643  -9.203   8.522  1.00  0.00     0.131 A 
HETATM    2  N   UNL     1      43.159  -9.933   7.476  1.00  0.00    -0.319 N 
HETATM    3  C   UNL     1      44.388 -10.375   7.897  1.00  0.00     0.131 A 
HETATM    4  C   UNL     1      45.276 -11.330   7.183  1.00  0.00     0.108 C 
HETATM    5  C   UNL     1      44.514 -12.594   6.804  1.00  0.00     0.243 C 
HETATM    6  N   UNL     1      43.611 -12.421   5.578  1.00  0.00    -0.065 N 
HETATM    7  H   UNL     1      44.177 -12.780   4.795  1.00  0.00     0.280 HD
HETATM    8  C   UNL     1      43.250 -11.000   5.181  1.00  0.00     0.255 C 
HETATM    9  C   UNL     1      42.467 -10.229   6.243  1.00  0.00     0.159 C 
HETATM   10  N   UNL     1      44.623  -9.889   9.094  1.00  0.00    -0.135 NA
HETATM   11  N   UNL     1      43.536  -9.160   9.484  1.00  0.00    -0.135 NA
ENDROOT
BRANCH   1  12
HETATM   12  C   UNL     1      41.267  -8.637   8.600  1.00  0.00     0.100 C 
BRANCH  12  13
HETATM   13  C   UNL     1      40.550  -9.185   9.837  1.00  0.00     0.130 C 
BRANCH  13  14
HETATM   14  N   UNL     1      41.141  -8.742  11.089  1.00  0.00    -0.360 N 
HETATM   15  C   UNL     1      40.988  -9.451  12.257  1.00  0.00     0.223 C 
HETATM   16  O   UNL     1      40.283 -10.454  12.339  1.00  0.00    -0.273 OA
HETATM   17  H   UNL     1      41.780  -7.955  11.040  1.00  0.00     0.162 HD
BRANCH  15  18
HETATM   18  C   UNL     1      41.799  -8.924  13.435  1.00  0.00     0.103 C 
HETATM   19  C   UNL     1      40.845  -8.567  14.575  1.00  0.00     0.248 C 
HETATM   20  N   UNL     1      41.618  -8.010  15.755  1.00  0.00    -0.074 N 
HETATM   21  C   UNL     1      40.714  -7.737  16.932  1.00  0.00     0.269 C 
HETATM   22  H   UNL     1      42.282  -8.731  16.072  1.00  0.00     0.279 HD
HETATM   23  C   UNL     1      42.424  -6.786  15.389  1.00  0.00     0.234 C 
HETATM   24  C   UNL     1      43.382  -7.137  14.261  1.00  0.00     0.029 C 
HETATM   25  C   UNL     1      42.656  -7.714  13.047  1.00  0.00     0.017 C 
ENDBRANCH  15  18
ENDBRANCH  13  14
ENDBRANCH  12  13
ENDBRANCH   1  12
BRANCH   6  26
HETATM   26  C   UNL     1      42.402 -13.344   5.619  1.00  0.00     0.273 C 
BRANCH  26  27
HETATM   27  C   UNL     1      42.659 -14.697   5.022  1.00  0.00    -0.033 A 
HETATM   28  C   UNL     1      42.828 -15.818   5.845  1.00  0.00     0.010 A 
HETATM   29  C   UNL     1      43.076 -17.076   5.289  1.00  0.00     0.015 A 
HETATM   30  C   UNL     1      43.159 -17.251   3.900  1.00  0.00    -0.002 A 
HETATM   31  C   UNL     1      42.988 -16.127   3.082  1.00  0.00     0.015 A 
HETATM   32  C   UNL     1      42.746 -14.863   3.632  1.00  0.00     0.010 A 
BRANCH  30  33
HETATM   33  C   UNL     1      43.404 -18.569   3.320  1.00  0.00     0.085 A 
HETATM   34  O   UNL     1      43.835 -19.537   4.187  1.00  0.00    -0.322 OA
HETATM   35  C   UNL     1      44.008 -20.677   3.471  1.00  0.00     0.142 A 
HETATM   36  C   UNL     1      43.696 -20.466   2.151  1.00  0.00     0.027 A 
HETATM   37  C   UNL     1      43.308 -19.106   2.050  1.00  0.00     0.040 A 
ENDBRANCH  30  33
ENDBRANCH  26  27
ENDBRANCH   6  26
TORSDOF 7
ENDMDL
MODEL 2
REMARK VINA RESULT:      -9.1      2.159      3.642
REMARK  7 active torsions:
REMARK  status: ('A' for Active; 'I' for Inactive)
REMARK    1  A    between atoms: C_5  and  C_6 
REMARK       I    between atoms: C_6  and  N_7 
REMARK    2  A    between atoms: N_7  and  C_8 
REMARK    3  A    between atoms: C_8  and  C_9 
REMARK    4  A    between atoms: C_9  and  C_10 
REMARK    5  A    between atoms: N_15  and  C_17 
REMARK    6  A    between atoms: C_17  and  C_18 
REMARK    7  A    between atoms: C_21  and  C_22 
ROOT
HETATM    1  C   UNL     1      43.821 -11.554   5.746  1.00  0.00     0.131 A 
HETATM    2  N   UNL     1      42.703 -11.235   5.010  1.00  0.00    -0.319 N 
HETATM    3  C   UNL     1      43.138 -11.069   3.720  1.00  0.00     0.131 A 
HETATM    4  C   UNL     1      42.284 -10.864   2.520  1.00  0.00     0.108 C 
HETATM    5  C   UNL     1      41.206 -11.938   2.435  1.00  0.00     0.243 C 
HETATM    6  N   UNL     1      40.029 -11.701   3.388  1.00  0.00    -0.065 N 
HETATM    7  H   UNL     1      39.319 -11.239   2.801  1.00  0.00     0.280 HD
HETATM    8  C   UNL     1      40.261 -10.748   4.548  1.00  0.00     0.255 C 
HETATM    9  C   UNL     1      41.352 -11.194   5.520  1.00  0.00     0.159 C 
HETATM   10  N   UNL     1      44.442 -11.217   3.692  1.00  0.00    -0.135 NA
HETATM   11  N   UNL     1      44.868 -11.519   4.954  1.00  0.00    -0.135 NA
ENDROOT
BRANCH   1  12
HETATM   12  C   UNL     1      43.839 -11.968   7.177  1.00  0.00     0.100 C 
BRANCH  12  13
HETATM   13  C   UNL     1      44.445 -10.853   8.033  1.00  0.00     0.130 C 
BRANCH  13  14
HETATM   14  N   UNL     1      43.594 -10.451   9.142  1.00  0.00    -0.360 N 
HETATM   15  C   UNL     1      44.050 -10.429  10.438  1.00  0.00     0.223 C 
HETATM   16  O   UNL     1      45.171 -10.818  10.757  1.00  0.00    -0.273 OA
HETATM   17  H   UNL     1      42.687 -10.063   8.904  1.00  0.00     0.162 HD
BRANCH  15  18
HETATM   18  C   UNL     1      43.073  -9.838  11.448  1.00  0.00     0.103 C 
HETATM   19  C   UNL     1      41.760  -9.510  10.735  1.00  0.00     0.248 C 
HETATM   20  N   UNL     1      40.773  -8.890  11.707  1.00  0.00    -0.074 N 
HETATM   21  C   UNL     1      39.435  -8.643  11.055  1.00  0.00     0.269 C 
HETATM   22  H   UNL     1      40.597  -9.570  12.460  1.00  0.00     0.279 HD
HETATM   23  C   UNL     1      41.310  -7.633  12.349  1.00  0.00     0.234 C 
HETATM   24  C   UNL     1      42.611  -7.956  13.068  1.00  0.00     0.029 C 
HETATM   25  C   UNL     1      43.641  -8.593  12.137  1.00  0.00     0.017 C 
ENDBRANCH  15  18
ENDBRANCH  13  14
ENDBRANCH  12  13
ENDBRANCH   1  12
BRANCH   6  26
HETATM   26  C   UNL     1      39.369 -13.001   3.820  1.00  0.00     0.273 C 
BRANCH  26  27
HETATM   27  C   UNL     1      40.254 -14.205   3.664  1.00  0.00    -0.033 A 
HETATM   28  C   UNL     1      40.120 -15.047   2.552  1.00  0.00     0.010 A 
HETATM   29  C   UNL     1      40.939 -16.171   2.412  1.00  0.00     0.015 A 
HETATM   30  C   UNL     1      41.913 -16.483   3.372  1.00  0.00    -0.002 A 
HETATM   31  C   UNL     1      42.042 -15.637   4.481  1.00  0.00     0.015 A 
HETATM   32  C   UNL     1      41.221 -14.513   4.631  1.00  0.00     0.010 A 
BRANCH  30  33
HETATM   33  C   UNL     1      42.777 -17.651   3.216  1.00  0.00     0.085 A 
HETATM   34  O   UNL     1      43.589 -17.943   4.277  1.00  0.00    -0.322 OA
HETATM   35  C   UNL     1      44.309 -19.046   3.947  1.00  0.00     0.142 A 
HETATM   36  C   UNL     1      43.976 -19.476   2.687  1.00  0.00     0.027 A 
HETATM   37  C   UNL     1      42.989 -18.577   2.212  1.00  0.00     0.040 A 
ENDBRANCH  30  33
ENDBRANCH  26  27
ENDBRANCH   6  26
TORSDOF 7
ENDMDL
MODEL 3
REMARK VINA RESULT:      -9.1      3.755      6.453
REMARK  7 active torsions:
REMARK  status: ('A' for Active; 'I' for Inactive)
REMARK    1  A    between atoms: C_5  and  C_6 
REMARK       I    between atoms: C_6  and  N_7 
REMARK    2  A    between atoms: N_7  and  C_8 
REMARK    3  A    between atoms: C_8  and  C_9 
REMARK    4  A    between atoms: C_9  and  C_10 
REMARK    5  A    between atoms: N_15  and  C_17 
REMARK    6  A    between atoms: C_17  and  C_18 
REMARK    7  A    between atoms: C_21  and  C_22 
ROOT
HETATM    1  C   UNL     1      38.648 -10.159   2.561  1.00  0.00     0.131 A 
HETATM    2  N   UNL     1      39.072 -11.325   1.963  1.00  0.00    -0.319 N 
HETATM    3  C   UNL     1      39.142 -11.053   0.620  1.00  0.00     0.131 A 
HETATM    4  C   UNL     1      39.692 -11.946  -0.434  1.00  0.00     0.108 C 
HETATM    5  C   UNL     1      41.089 -12.425  -0.058  1.00  0.00     0.243 C 
HETATM    6  N   UNL     1      41.091 -13.551   0.983  1.00  0.00    -0.065 N 
HETATM    7  H   UNL     1      41.175 -14.412   0.423  1.00  0.00     0.280 HD
HETATM    8  C   UNL     1      39.825 -13.737   1.801  1.00  0.00     0.255 C 
HETATM    9  C   UNL     1      39.449 -12.532   2.662  1.00  0.00     0.159 C 
HETATM   10  N   UNL     1      38.726  -9.824   0.416  1.00  0.00    -0.135 NA
HETATM   11  N   UNL     1      38.419  -9.267   1.625  1.00  0.00    -0.135 NA
ENDROOT
BRANCH   1  12
HETATM   12  C   UNL     1      38.556  -9.910   4.026  1.00  0.00     0.100 C 
BRANCH  12  13
HETATM   13  C   UNL     1      39.801  -9.158   4.504  1.00  0.00     0.130 C 
BRANCH  13  14
HETATM   14  N   UNL     1      40.678  -9.966   5.336  1.00  0.00    -0.360 N 
HETATM   15  C   UNL     1      41.836 -10.521   4.847  1.00  0.00     0.223 C 
HETATM   16  O   UNL     1      42.167 -10.440   3.666  1.00  0.00    -0.273 OA
HETATM   17  H   UNL     1      40.466  -9.997   6.328  1.00  0.00     0.162 HD
BRANCH  15  18
HETATM   18  C   UNL     1      42.707 -11.208   5.893  1.00  0.00     0.103 C 
HETATM   19  C   UNL     1      42.754 -10.336   7.149  1.00  0.00     0.248 C 
HETATM   20  N   UNL     1      43.638 -10.975   8.202  1.00  0.00    -0.074 N 
HETATM   21  C   UNL     1      43.628 -10.186   9.488  1.00  0.00     0.269 C 
HETATM   22  H   UNL     1      43.242 -11.897   8.436  1.00  0.00     0.279 HD
HETATM   23  C   UNL     1      45.048 -11.202   7.710  1.00  0.00     0.234 C 
HETATM   24  C   UNL     1      45.009 -12.077   6.466  1.00  0.00     0.029 C 
HETATM   25  C   UNL     1      44.121 -11.484   5.373  1.00  0.00     0.017 C 
ENDBRANCH  15  18
ENDBRANCH  13  14
ENDBRANCH  12  13
ENDBRANCH   1  12
BRANCH   6  26
HETATM   26  C   UNL     1      42.348 -13.539   1.841  1.00  0.00     0.273 C 
BRANCH  26  27
HETATM   27  C   UNL     1      42.699 -14.884   2.408  1.00  0.00    -0.033 A 
HETATM   28  C   UNL     1      42.874 -15.051   3.788  1.00  0.00     0.010 A 
HETATM   29  C   UNL     1      43.209 -16.302   4.315  1.00  0.00     0.015 A 
HETATM   30  C   UNL     1      43.375 -17.418   3.483  1.00  0.00    -0.002 A 
HETATM   31  C   UNL     1      43.197 -17.246   2.104  1.00  0.00     0.015 A 
HETATM   32  C   UNL     1      42.867 -15.995   1.569  1.00  0.00     0.010 A 
BRANCH  30  33
HETATM   33  C   UNL     1      43.711 -18.727   4.037  1.00  0.00     0.085 A 
HETATM   34  O   UNL     1      43.673 -19.778   3.162  1.00  0.00    -0.322 OA
HETATM   35  C   UNL     1      44.010 -20.897   3.854  1.00  0.00     0.142 A 
HETATM   36  C   UNL     1      44.267 -20.589   5.166  1.00  0.00     0.027 A 
HETATM   37  C   UNL     1      44.073 -19.190   5.288  1.00  0.00     0.040 A 
ENDBRANCH  30  33
ENDBRANCH  26  27
ENDBRANCH   6  26
TORSDOF 7
ENDMDL
MODEL 4
REMARK VINA RESULT:      -9.1      1.663      2.776
REMARK  7 active torsions:
REMARK  status: ('A' for Active; 'I' for Inactive)
REMARK    1  A    between atoms: C_5  and  C_6 
REMARK       I    between atoms: C_6  and  N_7 
REMARK    2  A    between atoms: N_7  and  C_8 
REMARK    3  A    between atoms: C_8  and  C_9 
REMARK    4  A    between atoms: C_9  and  C_10 
REMARK    5  A    between atoms: N_15  and  C_17 
REMARK    6  A    between atoms: C_17  and  C_18 
REMARK    7  A    between atoms: C_21  and  C_22 
ROOT
HETATM    1  C   UNL     1      43.899  -9.563   7.740  1.00  0.00     0.131 A 
HETATM    2  N   UNL     1      43.076 -10.547   7.242  1.00  0.00    -0.319 N 
HETATM    3  C   UNL     1      41.895  -9.924   6.927  1.00  0.00     0.131 A 
HETATM    4  C   UNL     1      40.738 -10.532   6.217  1.00  0.00     0.108 C 
HETATM    5  C   UNL     1      41.189 -11.194   4.921  1.00  0.00     0.243 C 
HETATM    6  N   UNL     1      41.855 -12.559   5.130  1.00  0.00    -0.065 N 
HETATM    7  H   UNL     1      41.097 -13.237   4.967  1.00  0.00     0.280 HD
HETATM    8  C   UNL     1      42.367 -12.871   6.526  1.00  0.00     0.255 C 
HETATM    9  C   UNL     1      43.458 -11.923   7.023  1.00  0.00     0.159 C 
HETATM   10  N   UNL     1      41.979  -8.660   7.272  1.00  0.00    -0.135 NA
HETATM   11  N   UNL     1      43.228  -8.435   7.778  1.00  0.00    -0.135 NA
ENDROOT
BRANCH   1  12
HETATM   12  C   UNL     1      45.339  -9.718   8.086  1.00  0.00     0.100 C 
BRANCH  12  13
HETATM   13  C   UNL     1      45.484 -10.049   9.574  1.00  0.00     0.130 C 
BRANCH  13  14
HETATM   14  N   UNL     1      44.410  -9.508  10.391  1.00  0.00    -0.360 N 
HETATM   15  C   UNL     1      43.769 -10.264  11.344  1.00  0.00     0.223 C 
HETATM   16  O   UNL     1      44.003 -11.458  11.515  1.00  0.00    -0.273 OA
HETATM   17  H   UNL     1      44.238  -8.511  10.318  1.00  0.00     0.162 HD
BRANCH  15  18
HETATM   18  C   UNL     1      42.776  -9.495  12.208  1.00  0.00     0.103 C 
HETATM   19  C   UNL     1      41.550  -9.145  11.363  1.00  0.00     0.248 C 
HETATM   20  N   UNL     1      40.553  -8.351  12.185  1.00  0.00    -0.074 N 
HETATM   21  C   UNL     1      39.290  -8.072  11.407  1.00  0.00     0.269 C 
HETATM   22  H   UNL     1      40.266  -8.930  12.987  1.00  0.00     0.279 HD
HETATM   23  C   UNL     1      41.147  -7.077  12.738  1.00  0.00     0.234 C 
HETATM   24  C   UNL     1      42.362  -7.420  13.587  1.00  0.00     0.029 C 
HETATM   25  C   UNL     1      43.398  -8.230  12.810  1.00  0.00     0.017 C 
ENDBRANCH  15  18
ENDBRANCH  13  14
ENDBRANCH  12  13
ENDBRANCH   1  12
BRANCH   6  26
HETATM   26  C   UNL     1      42.877 -12.872   4.047  1.00  0.00     0.273 C 
BRANCH  26  27
HETATM   27  C   UNL     1      43.040 -14.341   3.783  1.00  0.00    -0.033 A 
HETATM   28  C   UNL     1      43.107 -14.825   2.470  1.00  0.00     0.010 A 
HETATM   29  C   UNL     1      43.250 -16.194   2.226  1.00  0.00     0.015 A 
HETATM   30  C   UNL     1      43.335 -17.114   3.281  1.00  0.00    -0.002 A 
HETATM   31  C   UNL     1      43.269 -16.624   4.591  1.00  0.00     0.015 A 
HETATM   32  C   UNL     1      43.119 -15.255   4.843  1.00  0.00     0.010 A 
BRANCH  30  33
HETATM   33  C   UNL     1      43.499 -18.543   3.023  1.00  0.00     0.085 A 
HETATM   34  O   UNL     1      43.864 -19.310   4.095  1.00  0.00    -0.322 OA
HETATM   35  C   UNL     1      43.967 -20.593   3.663  1.00  0.00     0.142 A 
HETATM   36  C   UNL     1      43.674 -20.671   2.325  1.00  0.00     0.027 A 
HETATM   37  C   UNL     1      43.373 -19.351   1.908  1.00  0.00     0.040 A 
ENDBRANCH  30  33
ENDBRANCH  26  27
ENDBRANCH   6  26
TORSDOF 7
ENDMDL
MODEL 5
REMARK VINA RESULT:      -8.9      3.439      5.503
REMARK  7 active torsions:
REMARK  status: ('A' for Active; 'I' for Inactive)
REMARK    1  A    between atoms: C_5  and  C_6 
REMARK       I    between atoms: C_6  and  N_7 
REMARK    2  A    between atoms: N_7  and  C_8 
REMARK    3  A    between atoms: C_8  and  C_9 
REMARK    4  A    between atoms: C_9  and  C_10 
REMARK    5  A    between atoms: N_15  and  C_17 
REMARK    6  A    between atoms: C_17  and  C_18 
REMARK    7  A    between atoms: C_21  and  C_22 
ROOT
HETATM    1  C   UNL     1      41.717 -12.296   5.827  1.00  0.00     0.131 A 
HETATM    2  N   UNL     1      41.963 -13.639   6.001  1.00  0.00    -0.319 N 
HETATM    3  C   UNL     1      40.751 -14.204   6.309  1.00  0.00     0.131 A 
HETATM    4  C   UNL     1      40.463 -15.657   6.443  1.00  0.00     0.108 C 
HETATM    5  C   UNL     1      40.950 -16.417   5.215  1.00  0.00     0.243 C 
HETATM    6  N   UNL     1      42.464 -16.657   5.202  1.00  0.00    -0.065 N 
HETATM    7  H   UNL     1      42.572 -17.611   5.576  1.00  0.00     0.280 HD
HETATM    8  C   UNL     1      43.309 -15.781   6.112  1.00  0.00     0.255 C 
HETATM    9  C   UNL     1      43.236 -14.288   5.794  1.00  0.00     0.159 C 
HETATM   10  N   UNL     1      39.848 -13.255   6.378  1.00  0.00    -0.135 NA
HETATM   11  N   UNL     1      40.449 -12.066   6.076  1.00  0.00    -0.135 NA
ENDROOT
BRANCH   1  12
HETATM   12  C   UNL     1      42.695 -11.283   5.339  1.00  0.00     0.100 C 
BRANCH  12  13
HETATM   13  C   UNL     1      43.768 -11.041   6.404  1.00  0.00     0.130 C 
BRANCH  13  14
HETATM   14  N   UNL     1      43.222 -10.647   7.693  1.00  0.00    -0.360 N 
HETATM   15  C   UNL     1      43.984 -10.648   8.837  1.00  0.00     0.223 C 
HETATM   16  O   UNL     1      45.144 -11.052   8.864  1.00  0.00    -0.273 OA
HETATM   17  H   UNL     1      42.288 -10.249   7.691  1.00  0.00     0.162 HD
BRANCH  15  18
HETATM   18  C   UNL     1      43.294 -10.063  10.064  1.00  0.00     0.103 C 
HETATM   19  C   UNL     1      42.103  -9.218   9.608  1.00  0.00     0.248 C 
HETATM   20  N   UNL     1      41.410  -8.595  10.804  1.00  0.00    -0.074 N 
HETATM   21  C   UNL     1      40.174  -7.833  10.394  1.00  0.00     0.269 C 
HETATM   22  H   UNL     1      41.080  -9.356  11.415  1.00  0.00     0.279 HD
HETATM   23  C   UNL     1      42.340  -7.731  11.622  1.00  0.00     0.234 C 
HETATM   24  C   UNL     1      43.522  -8.568  12.087  1.00  0.00     0.029 C 
HETATM   25  C   UNL     1      44.253  -9.230  10.920  1.00  0.00     0.017 C 
ENDBRANCH  15  18
ENDBRANCH  13  14
ENDBRANCH  12  13
ENDBRANCH   1  12
BRANCH   6  26
HETATM   26  C   UNL     1      43.021 -16.743   3.789  1.00  0.00     0.273 C 
BRANCH  26  27
HETATM   27  C   UNL     1      42.180 -16.032   2.768  1.00  0.00    -0.033 A 
HETATM   28  C   UNL     1      42.545 -14.761   2.306  1.00  0.00     0.010 A 
HETATM   29  C   UNL     1      41.756 -14.096   1.362  1.00  0.00     0.015 A 
HETATM   30  C   UNL     1      40.588 -14.681   0.852  1.00  0.00    -0.002 A 
HETATM   31  C   UNL     1      40.229 -15.953   1.318  1.00  0.00     0.015 A 
HETATM   32  C   UNL     1      41.011 -16.622   2.267  1.00  0.00     0.010 A 
BRANCH  30  33
HETATM   33  C   UNL     1      39.773 -13.990  -0.144  1.00  0.00     0.085 A 
HETATM   34  O   UNL     1      39.269 -12.775   0.229  1.00  0.00    -0.322 OA
HETATM   35  C   UNL     1      38.546 -12.295  -0.816  1.00  0.00     0.142 A 
HETATM   36  C   UNL     1      38.574 -13.181  -1.863  1.00  0.00     0.027 A 
HETATM   37  C   UNL     1      39.363 -14.277  -1.433  1.00  0.00     0.040 A 
ENDBRANCH  30  33
ENDBRANCH  26  27
ENDBRANCH   6  26
TORSDOF 7
ENDMDL
MODEL 6
REMARK VINA RESULT:      -8.5      3.374      5.431
REMARK  7 active torsions:
REMARK  status: ('A' for Active; 'I' for Inactive)
REMARK    1  A    between atoms: C_5  and  C_6 
REMARK       I    between atoms: C_6  and  N_7 
REMARK    2  A    between atoms: N_7  and  C_8 
REMARK    3  A    between atoms: C_8  and  C_9 
REMARK    4  A    between atoms: C_9  and  C_10 
REMARK    5  A    between atoms: N_15  and  C_17 
REMARK    6  A    between atoms: C_17  and  C_18 
REMARK    7  A    between atoms: C_21  and  C_22 
ROOT
HETATM    1  C   UNL     1      41.190 -12.171   5.920  1.00  0.00     0.131 A 
HETATM    2  N   UNL     1      41.670 -13.449   6.098  1.00  0.00    -0.319 N 
HETATM    3  C   UNL     1      40.571 -14.232   6.346  1.00  0.00     0.131 A 
HETATM    4  C   UNL     1      40.549 -15.714   6.457  1.00  0.00     0.108 C 
HETATM    5  C   UNL     1      41.221 -16.354   5.248  1.00  0.00     0.243 C 
HETATM    6  N   UNL     1      42.752 -16.312   5.303  1.00  0.00    -0.065 N 
HETATM    7  H   UNL     1      43.016 -17.236   5.675  1.00  0.00     0.280 HD
HETATM    8  C   UNL     1      43.381 -15.310   6.256  1.00  0.00     0.255 C 
HETATM    9  C   UNL     1      43.049 -13.851   5.944  1.00  0.00     0.159 C 
HETATM   10  N   UNL     1      39.506 -13.464   6.379  1.00  0.00    -0.135 NA
HETATM   11  N   UNL     1      39.892 -12.181   6.113  1.00  0.00    -0.135 NA
ENDROOT
BRANCH   1  12
HETATM   12  C   UNL     1      41.986 -10.990   5.485  1.00  0.00     0.100 C 
BRANCH  12  13
HETATM   13  C   UNL     1      41.217  -9.703   5.796  1.00  0.00     0.130 C 
BRANCH  13  14
HETATM   14  N   UNL     1      41.257  -9.334   7.202  1.00  0.00    -0.360 N 
HETATM   15  C   UNL     1      40.111  -9.110   7.927  1.00  0.00     0.223 C 
HETATM   16  O   UNL     1      38.990  -9.129   7.425  1.00  0.00    -0.273 OA
HETATM   17  H   UNL     1      42.162  -9.373   7.659  1.00  0.00     0.162 HD
BRANCH  15  18
HETATM   18  C   UNL     1      40.334  -8.883   9.419  1.00  0.00     0.103 C 
HETATM   19  C   UNL     1      41.818  -9.079   9.734  1.00  0.00     0.248 C 
HETATM   20  N   UNL     1      42.071  -8.890  11.217  1.00  0.00    -0.074 N 
HETATM   21  C   UNL     1      43.541  -8.982  11.545  1.00  0.00     0.269 C 
HETATM   22  H   UNL     1      41.787  -7.933  11.471  1.00  0.00     0.279 HD
HETATM   23  C   UNL     1      41.260  -9.841  12.065  1.00  0.00     0.234 C 
HETATM   24  C   UNL     1      39.782  -9.644  11.763  1.00  0.00     0.029 C 
HETATM   25  C   UNL     1      39.471  -9.813  10.277  1.00  0.00     0.017 C 
ENDBRANCH  15  18
ENDBRANCH  13  14
ENDBRANCH  12  13
ENDBRANCH   1  12
BRANCH   6  26
HETATM   26  C   UNL     1      43.377 -16.274   3.916  1.00  0.00     0.273 C 
BRANCH  26  27
HETATM   27  C   UNL     1      42.467 -15.708   2.864  1.00  0.00    -0.033 A 
HETATM   28  C   UNL     1      41.475 -16.504   2.277  1.00  0.00     0.010 A 
HETATM   29  C   UNL     1      40.635 -15.978   1.291  1.00  0.00     0.015 A 
HETATM   30  C   UNL     1      40.758 -14.647   0.868  1.00  0.00    -0.002 A 
HETATM   31  C   UNL     1      41.751 -13.855   1.460  1.00  0.00     0.015 A 
HETATM   32  C   UNL     1      42.600 -14.377   2.443  1.00  0.00     0.010 A 
BRANCH  30  33
HETATM   33  C   UNL     1      39.870 -14.095  -0.152  1.00  0.00     0.085 A 
HETATM   34  O   UNL     1      39.446 -12.810   0.050  1.00  0.00    -0.322 OA
HETATM   35  C   UNL     1      38.637 -12.479  -0.989  1.00  0.00     0.142 A 
HETATM   36  C   UNL     1      38.530 -13.530  -1.865  1.00  0.00     0.027 A 
HETATM   37  C   UNL     1      39.322 -14.575  -1.327  1.00  0.00     0.040 A 
ENDBRANCH  30  33
ENDBRANCH  26  27
ENDBRANCH   6  26
TORSDOF 7
ENDMDL
MODEL 7
REMARK VINA RESULT:      -8.4      5.595      8.859
REMARK  7 active torsions:
REMARK  status: ('A' for Active; 'I' for Inactive)
REMARK    1  A    between atoms: C_5  and  C_6 
REMARK       I    between atoms: C_6  and  N_7 
REMARK    2  A    between atoms: N_7  and  C_8 
REMARK    3  A    between atoms: C_8  and  C_9 
REMARK    4  A    between atoms: C_9  and  C_10 
REMARK    5  A    between atoms: N_15  and  C_17 
REMARK    6  A    between atoms: C_17  and  C_18 
REMARK    7  A    between atoms: C_21  and  C_22 
ROOT
HETATM    1  C   UNL     1      39.438  -8.979   4.342  1.00  0.00     0.131 A 
HETATM    2  N   UNL     1      40.212  -9.987   4.870  1.00  0.00    -0.319 N 
HETATM    3  C   UNL     1      39.376 -10.721   5.672  1.00  0.00     0.131 A 
HETATM    4  C   UNL     1      39.701 -12.005   6.348  1.00  0.00     0.108 C 
HETATM    5  C   UNL     1      40.269 -13.009   5.352  1.00  0.00     0.243 C 
HETATM    6  N   UNL     1      41.738 -12.754   4.994  1.00  0.00    -0.065 N 
HETATM    7  H   UNL     1      42.262 -13.390   5.613  1.00  0.00     0.280 HD
HETATM    8  C   UNL     1      42.291 -11.371   5.292  1.00  0.00     0.255 C 
HETATM    9  C   UNL     1      41.595 -10.239   4.538  1.00  0.00     0.159 C 
HETATM   10  N   UNL     1      38.191 -10.154   5.677  1.00  0.00    -0.135 NA
HETATM   11  N   UNL     1      38.230  -9.069   4.848  1.00  0.00    -0.135 NA
ENDROOT
BRANCH   1  12
HETATM   12  C   UNL     1      39.862  -8.005   3.298  1.00  0.00     0.100 C 
BRANCH  12  13
HETATM   13  C   UNL     1      39.273  -8.407   1.943  1.00  0.00     0.130 C 
BRANCH  13  14
HETATM   14  N   UNL     1      39.932  -9.557   1.346  1.00  0.00    -0.360 N 
HETATM   15  C   UNL     1      39.358 -10.805   1.344  1.00  0.00     0.223 C 
HETATM   16  O   UNL     1      38.295 -11.050   1.909  1.00  0.00    -0.273 OA
HETATM   17  H   UNL     1      40.779  -9.374   0.817  1.00  0.00     0.162 HD
BRANCH  15  18
HETATM   18  C   UNL     1      40.118 -11.857   0.544  1.00  0.00     0.103 C 
HETATM   19  C   UNL     1      40.232 -11.389  -0.908  1.00  0.00     0.248 C 
HETATM   20  N   UNL     1      40.958 -12.428  -1.741  1.00  0.00    -0.074 N 
HETATM   21  C   UNL     1      41.170 -11.954  -3.158  1.00  0.00     0.269 C 
HETATM   22  H   UNL     1      41.900 -12.555  -1.344  1.00  0.00     0.279 HD
HETATM   23  C   UNL     1      40.271 -13.773  -1.711  1.00  0.00     0.234 C 
HETATM   24  C   UNL     1      40.164 -14.248  -0.270  1.00  0.00     0.029 C 
HETATM   25  C   UNL     1      39.448 -13.233   0.619  1.00  0.00     0.017 C 
ENDBRANCH  15  18
ENDBRANCH  13  14
ENDBRANCH  12  13
ENDBRANCH   1  12
BRANCH   6  26
HETATM   26  C   UNL     1      42.079 -13.232   3.591  1.00  0.00     0.273 C 
BRANCH  26  27
HETATM   27  C   UNL     1      42.447 -14.687   3.526  1.00  0.00    -0.033 A 
HETATM   28  C   UNL     1      43.126 -15.298   4.588  1.00  0.00     0.010 A 
HETATM   29  C   UNL     1      43.475 -16.650   4.523  1.00  0.00     0.015 A 
HETATM   30  C   UNL     1      43.154 -17.428   3.401  1.00  0.00    -0.002 A 
HETATM   31  C   UNL     1      42.475 -16.812   2.343  1.00  0.00     0.015 A 
HETATM   32  C   UNL     1      42.127 -15.457   2.399  1.00  0.00     0.010 A 
BRANCH  30  33
HETATM   33  C   UNL     1      43.508 -18.844   3.341  1.00  0.00     0.085 A 
HETATM   34  O   UNL     1      43.853 -19.429   4.529  1.00  0.00    -0.322 OA
HETATM   35  C   UNL     1      44.147 -20.730   4.273  1.00  0.00     0.142 A 
HETATM   36  C   UNL     1      43.998 -20.999   2.935  1.00  0.00     0.027 A 
HETATM   37  C   UNL     1      43.588 -19.785   2.331  1.00  0.00     0.040 A 
ENDBRANCH  30  33
ENDBRANCH  26  27
ENDBRANCH   6  26
TORSDOF 7
ENDMDL
MODEL 8
REMARK VINA RESULT:      -8.4      1.562      2.130
REMARK  7 active torsions:
REMARK  status: ('A' for Active; 'I' for Inactive)
REMARK    1  A    between atoms: C_5  and  C_6 
REMARK       I    between atoms: C_6  and  N_7 
REMARK    2  A    between atoms: N_7  and  C_8 
REMARK    3  A    between atoms: C_8  and  C_9 
REMARK    4  A    between atoms: C_9  and  C_10 
REMARK    5  A    between atoms: N_15  and  C_17 
REMARK    6  A    between atoms: C_17  and  C_18 
REMARK    7  A    between atoms: C_21  and  C_22 
ROOT
HETATM    1  C   UNL     1      43.177  -9.588   9.514  1.00  0.00     0.131 A 
HETATM    2  N   UNL     1      43.424 -10.092   8.257  1.00  0.00    -0.319 N 
HETATM    3  C   UNL     1      44.703 -10.588   8.297  1.00  0.00     0.131 A 
HETATM    4  C   UNL     1      45.379 -11.371   7.230  1.00  0.00     0.108 C 
HETATM    5  C   UNL     1      44.515 -12.548   6.794  1.00  0.00     0.243 C 
HETATM    6  N   UNL     1      43.366 -12.152   5.860  1.00  0.00    -0.065 N 
HETATM    7  H   UNL     1      43.732 -12.343   4.916  1.00  0.00     0.280 HD
HETATM    8  C   UNL     1      42.968 -10.687   5.838  1.00  0.00     0.255 C 
HETATM    9  C   UNL     1      42.465 -10.151   7.178  1.00  0.00     0.159 C 
HETATM   10  N   UNL     1      45.214 -10.343   9.481  1.00  0.00    -0.135 NA
HETATM   11  N   UNL     1      44.263  -9.720  10.240  1.00  0.00    -0.135 NA
ENDROOT
BRANCH   1  12
HETATM   12  C   UNL     1      41.871  -9.070  10.008  1.00  0.00     0.100 C 
BRANCH  12  13
HETATM   13  C   UNL     1      41.544  -9.696  11.366  1.00  0.00     0.130 C 
BRANCH  13  14
HETATM   14  N   UNL     1      41.003  -8.745  12.324  1.00  0.00    -0.360 N 
HETATM   15  C   UNL     1      41.806  -8.071  13.213  1.00  0.00     0.223 C 
HETATM   16  O   UNL     1      43.013  -8.281  13.312  1.00  0.00    -0.273 OA
HETATM   17  H   UNL     1      40.023  -8.502  12.224  1.00  0.00     0.162 HD
BRANCH  15  18
HETATM   18  C   UNL     1      41.093  -7.004  14.036  1.00  0.00     0.103 C 
HETATM   19  C   UNL     1      40.961  -7.497  15.479  1.00  0.00     0.248 C 
HETATM   20  N   UNL     1      40.226  -6.471  16.321  1.00  0.00    -0.074 N 
HETATM   21  C   UNL     1      40.164  -6.885  17.770  1.00  0.00     0.269 C 
HETATM   22  H   UNL     1      40.769  -5.595  16.302  1.00  0.00     0.279 HD
HETATM   23  C   UNL     1      38.851  -6.161  15.780  1.00  0.00     0.234 C 
HETATM   24  C   UNL     1      38.976  -5.661  14.348  1.00  0.00     0.029 C 
HETATM   25  C   UNL     1      39.719  -6.654  13.456  1.00  0.00     0.017 C 
ENDBRANCH  15  18
ENDBRANCH  13  14
ENDBRANCH  12  13
ENDBRANCH   1  12
BRANCH   6  26
HETATM   26  C   UNL     1      42.170 -13.083   5.993  1.00  0.00     0.273 C 
BRANCH  26  27
HETATM   27  C   UNL     1      42.519 -14.535   5.833  1.00  0.00    -0.033 A 
HETATM   28  C   UNL     1      43.013 -15.019   4.614  1.00  0.00     0.010 A 
HETATM   29  C   UNL     1      43.329 -16.372   4.464  1.00  0.00     0.015 A 
HETATM   30  C   UNL     1      43.167 -17.276   5.523  1.00  0.00    -0.002 A 
HETATM   31  C   UNL     1      42.674 -16.787   6.740  1.00  0.00     0.015 A 
HETATM   32  C   UNL     1      42.349 -15.434   6.896  1.00  0.00     0.010 A 
BRANCH  30  33
HETATM   33  C   UNL     1      43.512 -18.688   5.369  1.00  0.00     0.085 A 
HETATM   34  O   UNL     1      43.874 -19.084   4.110  1.00  0.00    -0.322 OA
HETATM   35  C   UNL     1      44.152 -20.412   4.165  1.00  0.00     0.142 A 
HETATM   36  C   UNL     1      43.977 -20.885   5.441  1.00  0.00     0.027 A 
HETATM   37  C   UNL     1      43.562 -19.776   6.220  1.00  0.00     0.040 A 
ENDBRANCH  30  33
ENDBRANCH  26  27
ENDBRANCH   6  26
TORSDOF 7
ENDMDL
MODEL 9
REMARK VINA RESULT:      -8.2      4.286      6.136
REMARK  7 active torsions:
REMARK  status: ('A' for Active; 'I' for Inactive)
REMARK    1  A    between atoms: C_5  and  C_6 
REMARK       I    between atoms: C_6  and  N_7 
REMARK    2  A    between atoms: N_7  and  C_8 
REMARK    3  A    between atoms: C_8  and  C_9 
REMARK    4  A    between atoms: C_9  and  C_10 
REMARK    5  A    between atoms: N_15  and  C_17 
REMARK    6  A    between atoms: C_17  and  C_18 
REMARK    7  A    between atoms: C_21  and  C_22 
ROOT
HETATM    1  C   UNL     1      43.187 -13.032   6.283  1.00  0.00     0.131 A 
HETATM    2  N   UNL     1      43.085 -13.899   5.219  1.00  0.00    -0.319 N 
HETATM    3  C   UNL     1      43.432 -15.133   5.707  1.00  0.00     0.131 A 
HETATM    4  C   UNL     1      43.336 -16.428   4.982  1.00  0.00     0.108 C 
HETATM    5  C   UNL     1      41.941 -16.616   4.398  1.00  0.00     0.243 C 
HETATM    6  N   UNL     1      41.700 -15.811   3.116  1.00  0.00    -0.065 N 
HETATM    7  H   UNL     1      41.880 -16.484   2.357  1.00  0.00     0.280 HD
HETATM    8  C   UNL     1      42.642 -14.651   2.842  1.00  0.00     0.255 C 
HETATM    9  C   UNL     1      42.609 -13.549   3.901  1.00  0.00     0.159 C 
HETATM   10  N   UNL     1      43.781 -15.006   6.966  1.00  0.00    -0.135 NA
HETATM   11  N   UNL     1      43.628 -13.698   7.326  1.00  0.00    -0.135 NA
ENDROOT
BRANCH   1  12
HETATM   12  C   UNL     1      42.774 -11.601   6.289  1.00  0.00     0.100 C 
BRANCH  12  13
HETATM   13  C   UNL     1      43.710 -10.793   7.191  1.00  0.00     0.130 C 
BRANCH  13  14
HETATM   14  N   UNL     1      43.137 -10.490   8.493  1.00  0.00    -0.360 N 
HETATM   15  C   UNL     1      43.903 -10.447   9.633  1.00  0.00     0.223 C 
HETATM   16  O   UNL     1      45.097 -10.737   9.645  1.00  0.00    -0.273 OA
HETATM   17  H   UNL     1      42.169 -10.184   8.506  1.00  0.00     0.162 HD
BRANCH  15  18
HETATM   18  C   UNL     1      43.167  -9.966  10.879  1.00  0.00     0.103 C 
HETATM   19  C   UNL     1      41.760  -9.517  10.482  1.00  0.00     0.248 C 
HETATM   20  N   UNL     1      41.008  -9.003  11.695  1.00  0.00    -0.074 N 
HETATM   21  C   UNL     1      39.584  -8.641  11.352  1.00  0.00     0.269 C 
HETATM   22  H   UNL     1      40.946  -9.768  12.380  1.00  0.00     0.279 HD
HETATM   23  C   UNL     1      41.719  -7.852  12.366  1.00  0.00     0.234 C 
HETATM   24  C   UNL     1      43.117  -8.295  12.773  1.00  0.00     0.029 C 
HETATM   25  C   UNL     1      43.917  -8.834  11.588  1.00  0.00     0.017 C 
ENDBRANCH  15  18
ENDBRANCH  13  14
ENDBRANCH  12  13
ENDBRANCH   1  12
BRANCH   6  26
HETATM   26  C   UNL     1      40.237 -15.432   2.941  1.00  0.00     0.273 C 
BRANCH  26  27
HETATM   27  C   UNL     1      39.988 -14.527   1.769  1.00  0.00    -0.033 A 
HETATM   28  C   UNL     1      39.580 -13.202   1.967  1.00  0.00     0.010 A 
HETATM   29  C   UNL     1      39.340 -12.363   0.874  1.00  0.00     0.015 A 
HETATM   30  C   UNL     1      39.503 -12.820  -0.441  1.00  0.00    -0.002 A 
HETATM   31  C   UNL     1      39.912 -14.146  -0.632  1.00  0.00     0.015 A 
HETATM   32  C   UNL     1      40.148 -14.994   0.457  1.00  0.00     0.010 A 
BRANCH  30  33
HETATM   33  C   UNL     1      39.265 -11.938  -1.580  1.00  0.00     0.085 A 
HETATM   34  O   UNL     1      40.373 -11.355  -2.132  1.00  0.00    -0.322 OA
HETATM   35  C   UNL     1      39.955 -10.578  -3.164  1.00  0.00     0.142 A 
HETATM   36  C   UNL     1      38.590 -10.648  -3.293  1.00  0.00     0.027 A 
HETATM   37  C   UNL     1      38.142 -11.523  -2.271  1.00  0.00     0.040 A 
ENDBRANCH  30  33
ENDBRANCH  26  27
ENDBRANCH   6  26
TORSDOF 7
ENDMDL
MODEL 10
REMARK VINA RESULT:      -7.9      3.002      4.213
REMARK  7 active torsions:
REMARK  status: ('A' for Active; 'I' for Inactive)
REMARK    1  A    between atoms: C_5  and  C_6 
REMARK       I    between atoms: C_6  and  N_7 
REMARK    2  A    between atoms: N_7  and  C_8 
REMARK    3  A    between atoms: C_8  and  C_9 
REMARK    4  A    between atoms: C_9  and  C_10 
REMARK    5  A    between atoms: N_15  and  C_17 
REMARK    6  A    between atoms: C_17  and  C_18 
REMARK    7  A    between atoms: C_21  and  C_22 
ROOT
HETATM    1  C   UNL     1      39.070 -10.123   4.698  1.00  0.00     0.131 A 
HETATM    2  N   UNL     1      39.350 -11.076   3.745  1.00  0.00    -0.319 N 
HETATM    3  C   UNL     1      39.241 -10.439   2.535  1.00  0.00     0.131 A 
HETATM    4  C   UNL     1      39.594 -11.003   1.205  1.00  0.00     0.108 C 
HETATM    5  C   UNL     1      41.006 -11.576   1.220  1.00  0.00     0.243 C 
HETATM    6  N   UNL     1      41.103 -12.949   1.896  1.00  0.00    -0.065 N 
HETATM    7  H   UNL     1      41.065 -13.619   1.114  1.00  0.00     0.280 HD
HETATM    8  C   UNL     1      39.958 -13.350   2.811  1.00  0.00     0.255 C 
HETATM    9  C   UNL     1      39.765 -12.433   4.017  1.00  0.00     0.159 C 
HETATM   10  N   UNL     1      38.860  -9.200   2.743  1.00  0.00    -0.135 NA
HETATM   11  N   UNL     1      38.754  -9.003   4.090  1.00  0.00    -0.135 NA
ENDROOT
BRANCH   1  12
HETATM   12  C   UNL     1      39.200 -10.295   6.172  1.00  0.00     0.100 C 
BRANCH  12  13
HETATM   13  C   UNL     1      39.526  -8.949   6.825  1.00  0.00     0.130 C 
BRANCH  13  14
HETATM   14  N   UNL     1      39.252  -8.921   8.253  1.00  0.00    -0.360 N 
HETATM   15  C   UNL     1      40.253  -9.028   9.188  1.00  0.00     0.223 C 
HETATM   16  O   UNL     1      41.427  -9.232   8.887  1.00  0.00    -0.273 OA
HETATM   17  H   UNL     1      38.304  -8.690   8.532  1.00  0.00     0.162 HD
BRANCH  15  18
HETATM   18  C   UNL     1      39.803  -8.827  10.631  1.00  0.00     0.103 C 
HETATM   19  C   UNL     1      40.303  -7.467  11.121  1.00  0.00     0.248 C 
HETATM   20  N   UNL     1      39.898  -7.246  12.566  1.00  0.00    -0.074 N 
HETATM   21  C   UNL     1      40.293  -5.873  13.049  1.00  0.00     0.269 C 
HETATM   22  H   UNL     1      38.870  -7.276  12.618  1.00  0.00     0.279 HD
HETATM   23  C   UNL     1      40.428  -8.323  13.483  1.00  0.00     0.234 C 
HETATM   24  C   UNL     1      39.926  -9.678  13.006  1.00  0.00     0.029 C 
HETATM   25  C   UNL     1      40.299  -9.949  11.550  1.00  0.00     0.017 C 
ENDBRANCH  15  18
ENDBRANCH  13  14
ENDBRANCH  12  13
ENDBRANCH   1  12
BRANCH   6  26
HETATM   26  C   UNL     1      42.467 -13.185   2.526  1.00  0.00     0.273 C 
BRANCH  26  27
HETATM   27  C   UNL     1      42.772 -14.635   2.771  1.00  0.00    -0.033 A 
HETATM   28  C   UNL     1      42.892 -15.126   4.077  1.00  0.00     0.010 A 
HETATM   29  C   UNL     1      43.184 -16.475   4.304  1.00  0.00     0.015 A 
HETATM   30  C   UNL     1      43.360 -17.368   3.237  1.00  0.00    -0.002 A 
HETATM   31  C   UNL     1      43.238 -16.871   1.933  1.00  0.00     0.015 A 
HETATM   32  C   UNL     1      42.952 -15.521   1.699  1.00  0.00     0.010 A 
BRANCH  30  33
HETATM   33  C   UNL     1      43.651 -18.779   3.477  1.00  0.00     0.085 A 
HETATM   34  O   UNL     1      44.091 -19.098   4.733  1.00  0.00    -0.322 OA
HETATM   35  C   UNL     1      44.308 -20.438   4.761  1.00  0.00     0.142 A 
HETATM   36  C   UNL     1      44.015 -20.995   3.541  1.00  0.00     0.027 A 
HETATM   37  C   UNL     1      43.593 -19.928   2.710  1.00  0.00     0.040 A 
ENDBRANCH  30  33
ENDBRANCH  26  27
ENDBRANCH   6  26
TORSDOF 7
ENDMDL
