MODEL 1
REMARK VINA RESULT:      -8.1      0.000      0.000
REMARK  5 active torsions:
REMARK  status: ('A' for Active; 'I' for Inactive)
REMARK    1  A    between atoms: N_2  and  C_4 
REMARK    2  A    between atoms: C_4  and  C_5 
REMARK    3  A    between atoms: C_5  and  N_6 
REMARK    4  A    between atoms: C_11  and  C_12 
REMARK    5  A    between atoms: C_15  and  O_16 
ROOT
HETATM    1  N   UNL     1      41.847 -13.279   5.559  1.00  0.00    -0.332 N 
HETATM    2  C   UNL     1      42.726 -14.189   6.120  1.00  0.00     0.279 C 
HETATM    3  O   UNL     1      43.301 -14.050   7.182  1.00  0.00    -0.265 OA
HETATM    4  C   UNL     1      42.764 -15.355   5.221  1.00  0.00     0.156 A 
HETATM    5  C   UNL     1      41.829 -15.144   4.292  1.00  0.00     0.060 A 
HETATM    6  C   UNL     1      41.047 -13.903   4.504  1.00  0.00     0.161 C 
HETATM    7  O   UNL     1      43.597 -16.430   5.349  1.00  0.00    -0.303 OA
HETATM    8  C   UNL     1      43.513 -17.377   4.350  1.00  0.00     0.090 A 
HETATM    9  C   UNL     1      42.595 -17.286   3.292  1.00  0.00     0.051 A 
HETATM   10  C   UNL     1      41.635 -16.157   3.263  1.00  0.00     0.196 A 
HETATM   11  O   UNL     1      40.721 -16.086   2.456  1.00  0.00    -0.287 OA
HETATM   12  C   UNL     1      44.395 -18.456   4.424  1.00  0.00     0.041 A 
HETATM   13  C   UNL     1      44.372 -19.430   3.424  1.00  0.00     0.045 A 
HETATM   14  C   UNL     1      43.473 -19.315   2.364  1.00  0.00     0.117 A 
HETATM   15  F   UNL     1      43.470 -20.248   1.406  1.00  0.00    -0.206 F 
HETATM   16  C   UNL     1      42.578 -18.254   2.287  1.00  0.00     0.060 A 
ENDROOT
BRANCH   6  17
HETATM   17  C   UNL     1      40.773 -13.002   3.329  1.00  0.00    -0.030 A 
HETATM   18  C   UNL     1      39.450 -12.574   3.097  1.00  0.00     0.012 A 
HETATM   19  C   UNL     1      39.151 -11.688   2.061  1.00  0.00     0.037 A 
HETATM   20  C   UNL     1      40.177 -11.228   1.248  1.00  0.00     0.065 A 
HETATM   21  C   UNL     1      41.488 -11.645   1.450  1.00  0.00     0.037 A 
HETATM   22  C   UNL     1      41.788 -12.533   2.485  1.00  0.00     0.012 A 
BRANCH  20  23
HETATM   23  O   UNL     1      39.937 -10.353   0.231  1.00  0.00    -0.361 OA
HETATM   24  H   UNL     1      40.306 -10.713  -0.593  1.00  0.00     0.217 HD
ENDBRANCH  20  23
ENDBRANCH   6  17
BRANCH   1  25
HETATM   25  C   UNL     1      41.732 -11.890   6.000  1.00  0.00     0.155 C 
BRANCH  25  26
HETATM   26  C   UNL     1      42.981 -11.041   5.743  1.00  0.00     0.254 C 
BRANCH  26  27
HETATM   27  N   UNL     1      43.917 -11.023   6.936  1.00  0.00    -0.077 N 
HETATM   28  C   UNL     1      43.726  -9.788   7.769  1.00  0.00     0.269 C 
HETATM   29  H   UNL     1      43.687 -11.843   7.521  1.00  0.00     0.279 HD
HETATM   30  C   UNL     1      45.365 -11.215   6.569  1.00  0.00     0.269 C 
ENDBRANCH  26  27
ENDBRANCH  25  26
ENDBRANCH   1  25
TORSDOF 5
ENDMDL
MODEL 2
REMARK VINA RESULT:      -7.7      2.411      4.829
REMARK  5 active torsions:
REMARK  status: ('A' for Active; 'I' for Inactive)
REMARK    1  A    between atoms: N_2  and  C_4 
REMARK    2  A    between atoms: C_4  and  C_5 
REMARK    3  A    between atoms: C_5  and  N_6 
REMARK    4  A    between atoms: C_11  and  C_12 
REMARK    5  A    between atoms: C_15  and  O_16 
ROOT
HETATM    1  N   UNL     1      41.093 -13.387   1.901  1.00  0.00    -0.332 N 
HETATM    2  C   UNL     1      41.298 -14.502   1.106  1.00  0.00     0.279 C 
HETATM    3  O   UNL     1      40.983 -14.601  -0.063  1.00  0.00    -0.265 OA
HETATM    4  C   UNL     1      42.017 -15.488   1.932  1.00  0.00     0.156 A 
HETATM    5  C   UNL     1      42.319 -14.871   3.076  1.00  0.00     0.060 A 
HETATM    6  C   UNL     1      41.918 -13.444   3.109  1.00  0.00     0.161 C 
HETATM    7  O   UNL     1      42.311 -16.770   1.563  1.00  0.00    -0.303 OA
HETATM    8  C   UNL     1      42.928 -17.544   2.523  1.00  0.00     0.090 A 
HETATM    9  C   UNL     1      43.290 -17.046   3.785  1.00  0.00     0.051 A 
HETATM   10  C   UNL     1      43.053 -15.615   4.092  1.00  0.00     0.196 A 
HETATM   11  O   UNL     1      43.465 -15.079   5.109  1.00  0.00    -0.287 OA
HETATM   12  C   UNL     1      43.185 -18.875   2.194  1.00  0.00     0.041 A 
HETATM   13  C   UNL     1      43.784 -19.712   3.138  1.00  0.00     0.045 A 
HETATM   14  C   UNL     1      44.116 -19.211   4.396  1.00  0.00     0.117 A 
HETATM   15  F   UNL     1      44.677 -20.027   5.297  1.00  0.00    -0.206 F 
HETATM   16  C   UNL     1      43.880 -17.883   4.732  1.00  0.00     0.060 A 
ENDROOT
BRANCH   6  17
HETATM   17  C   UNL     1      41.241 -12.902   4.339  1.00  0.00    -0.030 A 
HETATM   18  C   UNL     1      41.665 -11.661   4.857  1.00  0.00     0.012 A 
HETATM   19  C   UNL     1      41.028 -11.084   5.957  1.00  0.00     0.037 A 
HETATM   20  C   UNL     1      39.965 -11.749   6.548  1.00  0.00     0.065 A 
HETATM   21  C   UNL     1      39.535 -12.980   6.063  1.00  0.00     0.037 A 
HETATM   22  C   UNL     1      40.173 -13.560   4.964  1.00  0.00     0.012 A 
BRANCH  20  23
HETATM   23  O   UNL     1      39.304 -11.222   7.616  1.00  0.00    -0.361 OA
HETATM   24  H   UNL     1      38.422 -11.625   7.676  1.00  0.00     0.217 HD
ENDBRANCH  20  23
ENDBRANCH   6  17
BRANCH   1  25
HETATM   25  C   UNL     1      40.188 -12.297   1.544  1.00  0.00     0.155 C 
BRANCH  25  26
HETATM   26  C   UNL     1      40.836 -11.183   0.717  1.00  0.00     0.254 C 
BRANCH  26  27
HETATM   27  N   UNL     1      40.773 -11.465  -0.773  1.00  0.00    -0.077 N 
HETATM   28  C   UNL     1      41.472 -10.400  -1.566  1.00  0.00     0.269 C 
HETATM   29  H   UNL     1      41.262 -12.360  -0.938  1.00  0.00     0.279 HD
HETATM   30  C   UNL     1      39.376 -11.698  -1.284  1.00  0.00     0.269 C 
ENDBRANCH  26  27
ENDBRANCH  25  26
ENDBRANCH   1  25
TORSDOF 5
ENDMDL
MODEL 3
REMARK VINA RESULT:      -7.7      1.513      1.988
REMARK  5 active torsions:
REMARK  status: ('A' for Active; 'I' for Inactive)
REMARK    1  A    between atoms: N_2  and  C_4 
REMARK    2  A    between atoms: C_4  and  C_5 
REMARK    3  A    between atoms: C_5  and  N_6 
REMARK    4  A    between atoms: C_11  and  C_12 
REMARK    5  A    between atoms: C_15  and  O_16 
ROOT
HETATM    1  N   UNL     1      41.157 -12.674   4.611  1.00  0.00    -0.332 N 
HETATM    2  C   UNL     1      42.067 -13.405   5.354  1.00  0.00     0.279 C 
HETATM    3  O   UNL     1      42.562 -13.052   6.407  1.00  0.00    -0.265 OA
HETATM    4  C   UNL     1      42.252 -14.689   4.657  1.00  0.00     0.156 A 
HETATM    5  C   UNL     1      41.364 -14.708   3.662  1.00  0.00     0.060 A 
HETATM    6  C   UNL     1      40.476 -13.522   3.632  1.00  0.00     0.161 C 
HETATM    7  O   UNL     1      43.157 -15.654   4.998  1.00  0.00    -0.303 OA
HETATM    8  C   UNL     1      43.210 -16.749   4.162  1.00  0.00     0.090 A 
HETATM    9  C   UNL     1      42.357 -16.905   3.058  1.00  0.00     0.051 A 
HETATM   10  C   UNL     1      41.315 -15.883   2.800  1.00  0.00     0.196 A 
HETATM   11  O   UNL     1      40.451 -16.018   1.948  1.00  0.00    -0.287 OA
HETATM   12  C   UNL     1      44.167 -17.722   4.452  1.00  0.00     0.041 A 
HETATM   13  C   UNL     1      44.283 -18.839   3.622  1.00  0.00     0.045 A 
HETATM   14  C   UNL     1      43.446 -18.970   2.514  1.00  0.00     0.117 A 
HETATM   15  F   UNL     1      43.577 -20.038   1.718  1.00  0.00    -0.206 F 
HETATM   16  C   UNL     1      42.478 -18.016   2.223  1.00  0.00     0.060 A 
ENDROOT
BRANCH   6  17
HETATM   17  C   UNL     1      40.207 -12.843   2.315  1.00  0.00    -0.030 A 
HETATM   18  C   UNL     1      41.275 -12.661   1.414  1.00  0.00     0.012 A 
HETATM   19  C   UNL     1      41.067 -12.096   0.155  1.00  0.00     0.037 A 
HETATM   20  C   UNL     1      39.787 -11.705  -0.208  1.00  0.00     0.065 A 
HETATM   21  C   UNL     1      38.718 -11.863   0.668  1.00  0.00     0.037 A 
HETATM   22  C   UNL     1      38.925 -12.426   1.929  1.00  0.00     0.012 A 
BRANCH  20  23
HETATM   23  O   UNL     1      39.532 -11.159  -1.430  1.00  0.00    -0.361 OA
HETATM   24  H   UNL     1      39.615 -11.848  -2.110  1.00  0.00     0.217 HD
ENDBRANCH  20  23
ENDBRANCH   6  17
BRANCH   1  25
HETATM   25  C   UNL     1      40.907 -11.248   4.817  1.00  0.00     0.155 C 
BRANCH  25  26
HETATM   26  C   UNL     1      39.821 -10.941   5.851  1.00  0.00     0.254 C 
BRANCH  26  27
HETATM   27  N   UNL     1      40.402 -10.620   7.215  1.00  0.00    -0.077 N 
HETATM   28  C   UNL     1      39.377 -10.002   8.122  1.00  0.00     0.269 C 
HETATM   29  H   UNL     1      40.708 -11.512   7.637  1.00  0.00     0.279 HD
HETATM   30  C   UNL     1      41.653  -9.783   7.155  1.00  0.00     0.269 C 
ENDBRANCH  26  27
ENDBRANCH  25  26
ENDBRANCH   1  25
TORSDOF 5
ENDMDL
MODEL 4
REMARK VINA RESULT:      -7.2     15.722     16.989
REMARK  5 active torsions:
REMARK  status: ('A' for Active; 'I' for Inactive)
REMARK    1  A    between atoms: N_2  and  C_4 
REMARK    2  A    between atoms: C_4  and  C_5 
REMARK    3  A    between atoms: C_5  and  N_6 
REMARK    4  A    between atoms: C_11  and  C_12 
REMARK    5  A    between atoms: C_15  and  O_16 
ROOT
HETATM    1  N   UNL     1      46.806 -29.024   0.525  1.00  0.00    -0.332 N 
HETATM    2  C   UNL     1      46.733 -29.597   1.783  1.00  0.00     0.279 C 
HETATM    3  O   UNL     1      47.661 -29.711   2.559  1.00  0.00    -0.265 OA
HETATM    4  C   UNL     1      45.324 -29.966   2.001  1.00  0.00     0.156 A 
HETATM    5  C   UNL     1      44.641 -29.475   0.965  1.00  0.00     0.060 A 
HETATM    6  C   UNL     1      45.473 -28.693   0.020  1.00  0.00     0.161 C 
HETATM    7  O   UNL     1      44.843 -30.665   3.072  1.00  0.00    -0.303 OA
HETATM    8  C   UNL     1      43.498 -30.965   3.038  1.00  0.00     0.090 A 
HETATM    9  C   UNL     1      42.650 -30.538   2.004  1.00  0.00     0.051 A 
HETATM   10  C   UNL     1      43.199 -29.684   0.924  1.00  0.00     0.196 A 
HETATM   11  O   UNL     1      42.499 -29.162   0.071  1.00  0.00    -0.287 OA
HETATM   12  C   UNL     1      42.992 -31.729   4.090  1.00  0.00     0.041 A 
HETATM   13  C   UNL     1      41.642 -32.085   4.092  1.00  0.00     0.045 A 
HETATM   14  C   UNL     1      40.815 -31.676   3.046  1.00  0.00     0.117 A 
HETATM   15  F   UNL     1      39.526 -32.036   3.053  1.00  0.00    -0.206 F 
HETATM   16  C   UNL     1      41.303 -30.902   2.000  1.00  0.00     0.060 A 
ENDROOT
BRANCH   6  17
HETATM   17  C   UNL     1      45.305 -28.916  -1.460  1.00  0.00    -0.030 A 
HETATM   18  C   UNL     1      45.177 -30.236  -1.936  1.00  0.00     0.012 A 
HETATM   19  C   UNL     1      44.955 -30.495  -3.290  1.00  0.00     0.037 A 
HETATM   20  C   UNL     1      44.864 -29.432  -4.176  1.00  0.00     0.065 A 
HETATM   21  C   UNL     1      44.998 -28.121  -3.731  1.00  0.00     0.037 A 
HETATM   22  C   UNL     1      45.222 -27.860  -2.378  1.00  0.00     0.012 A 
BRANCH  20  23
HETATM   23  O   UNL     1      44.637 -29.633  -5.504  1.00  0.00    -0.361 OA
HETATM   24  H   UNL     1      43.777 -30.071  -5.618  1.00  0.00     0.217 HD
ENDBRANCH  20  23
ENDBRANCH   6  17
BRANCH   1  25
HETATM   25  C   UNL     1      48.064 -28.767  -0.174  1.00  0.00     0.155 C 
BRANCH  25  26
HETATM   26  C   UNL     1      48.726 -30.017  -0.761  1.00  0.00     0.254 C 
BRANCH  26  27
HETATM   27  N   UNL     1      50.230 -30.015  -0.565  1.00  0.00    -0.077 N 
HETATM   28  C   UNL     1      50.933 -30.742  -1.675  1.00  0.00     0.269 C 
HETATM   29  H   UNL     1      50.541 -29.030  -0.580  1.00  0.00     0.279 HD
HETATM   30  C   UNL     1      50.664 -30.527   0.784  1.00  0.00     0.269 C 
ENDBRANCH  26  27
ENDBRANCH  25  26
ENDBRANCH   1  25
TORSDOF 5
ENDMDL
MODEL 5
REMARK VINA RESULT:      -7.1      3.183      6.342
REMARK  5 active torsions:
REMARK  status: ('A' for Active; 'I' for Inactive)
REMARK    1  A    between atoms: N_2  and  C_4 
REMARK    2  A    between atoms: C_4  and  C_5 
REMARK    3  A    between atoms: C_5  and  N_6 
REMARK    4  A    between atoms: C_11  and  C_12 
REMARK    5  A    between atoms: C_15  and  O_16 
ROOT
HETATM    1  N   UNL     1      42.574 -15.831   3.874  1.00  0.00    -0.332 N 
HETATM    2  C   UNL     1      42.127 -16.380   2.684  1.00  0.00     0.279 C 
HETATM    3  O   UNL     1      42.367 -17.506   2.294  1.00  0.00    -0.265 OA
HETATM    4  C   UNL     1      41.272 -15.367   2.042  1.00  0.00     0.156 A 
HETATM    5  C   UNL     1      41.142 -14.372   2.922  1.00  0.00     0.060 A 
HETATM    6  C   UNL     1      41.807 -14.634   4.221  1.00  0.00     0.161 C 
HETATM    7  O   UNL     1      40.726 -15.465   0.794  1.00  0.00    -0.303 OA
HETATM    8  C   UNL     1      40.016 -14.364   0.362  1.00  0.00     0.090 A 
HETATM    9  C   UNL     1      39.810 -13.230   1.163  1.00  0.00     0.051 A 
HETATM   10  C   UNL     1      40.327 -13.222   2.553  1.00  0.00     0.196 A 
HETATM   11  O   UNL     1      40.068 -12.335   3.350  1.00  0.00    -0.287 OA
HETATM   12  C   UNL     1      39.497 -14.413  -0.932  1.00  0.00     0.041 A 
HETATM   13  C   UNL     1      38.794 -13.315  -1.431  1.00  0.00     0.045 A 
HETATM   14  C   UNL     1      38.617 -12.184  -0.634  1.00  0.00     0.117 A 
HETATM   15  F   UNL     1      37.953 -11.133  -1.129  1.00  0.00    -0.206 F 
HETATM   16  C   UNL     1      39.115 -12.129   0.662  1.00  0.00     0.060 A 
ENDROOT
BRANCH   6  17
HETATM   17  C   UNL     1      42.628 -13.543   4.856  1.00  0.00    -0.030 A 
HETATM   18  C   UNL     1      42.718 -13.493   6.262  1.00  0.00     0.012 A 
HETATM   19  C   UNL     1      43.517 -12.542   6.899  1.00  0.00     0.037 A 
HETATM   20  C   UNL     1      44.227 -11.631   6.130  1.00  0.00     0.065 A 
HETATM   21  C   UNL     1      44.145 -11.654   4.742  1.00  0.00     0.037 A 
HETATM   22  C   UNL     1      43.344 -12.603   4.103  1.00  0.00     0.012 A 
BRANCH  20  23
HETATM   23  O   UNL     1      45.029 -10.692   6.705  1.00  0.00    -0.361 OA
HETATM   24  H   UNL     1      44.527 -10.219   7.390  1.00  0.00     0.217 HD
ENDBRANCH  20  23
ENDBRANCH   6  17
BRANCH   1  25
HETATM   25  C   UNL     1      43.653 -16.408   4.674  1.00  0.00     0.155 C 
BRANCH  25  26
HETATM   26  C   UNL     1      43.211 -17.537   5.609  1.00  0.00     0.254 C 
BRANCH  26  27
HETATM   27  N   UNL     1      43.538 -18.908   5.046  1.00  0.00    -0.077 N 
HETATM   28  C   UNL     1      43.602 -19.948   6.127  1.00  0.00     0.269 C 
HETATM   29  H   UNL     1      42.776 -19.165   4.399  1.00  0.00     0.279 HD
HETATM   30  C   UNL     1      44.780 -18.929   4.194  1.00  0.00     0.269 C 
ENDBRANCH  26  27
ENDBRANCH  25  26
ENDBRANCH   1  25
TORSDOF 5
ENDMDL
MODEL 6
REMARK VINA RESULT:      -7.0      2.548      4.393
REMARK  5 active torsions:
REMARK  status: ('A' for Active; 'I' for Inactive)
REMARK    1  A    between atoms: N_2  and  C_4 
REMARK    2  A    between atoms: C_4  and  C_5 
REMARK    3  A    between atoms: C_5  and  N_6 
REMARK    4  A    between atoms: C_11  and  C_12 
REMARK    5  A    between atoms: C_15  and  O_16 
ROOT
HETATM    1  N   UNL     1      42.699 -13.249   2.882  1.00  0.00    -0.332 N 
HETATM    2  C   UNL     1      43.177 -14.432   2.346  1.00  0.00     0.279 C 
HETATM    3  O   UNL     1      43.501 -14.600   1.187  1.00  0.00    -0.265 OA
HETATM    4  C   UNL     1      43.271 -15.396   3.457  1.00  0.00     0.156 A 
HETATM    5  C   UNL     1      42.999 -14.713   4.571  1.00  0.00     0.060 A 
HETATM    6  C   UNL     1      42.775 -13.266   4.344  1.00  0.00     0.161 C 
HETATM    7  O   UNL     1      43.591 -16.718   3.335  1.00  0.00    -0.303 OA
HETATM    8  C   UNL     1      43.549 -17.455   4.500  1.00  0.00     0.090 A 
HETATM    9  C   UNL     1      43.256 -16.885   5.750  1.00  0.00     0.051 A 
HETATM   10  C   UNL     1      43.030 -15.423   5.843  1.00  0.00     0.196 A 
HETATM   11  O   UNL     1      42.909 -14.839   6.908  1.00  0.00    -0.287 OA
HETATM   12  C   UNL     1      43.812 -18.821   4.396  1.00  0.00     0.041 A 
HETATM   13  C   UNL     1      43.757 -19.620   5.540  1.00  0.00     0.045 A 
HETATM   14  C   UNL     1      43.440 -19.047   6.771  1.00  0.00     0.117 A 
HETATM   15  F   UNL     1      43.377 -19.825   7.858  1.00  0.00    -0.206 F 
HETATM   16  C   UNL     1      43.191 -17.684   6.892  1.00  0.00     0.060 A 
ENDROOT
BRANCH   6  17
HETATM   17  C   UNL     1      41.616 -12.589   5.026  1.00  0.00    -0.030 A 
HETATM   18  C   UNL     1      40.336 -13.171   4.926  1.00  0.00     0.012 A 
HETATM   19  C   UNL     1      39.240 -12.619   5.592  1.00  0.00     0.037 A 
HETATM   20  C   UNL     1      39.420 -11.478   6.359  1.00  0.00     0.065 A 
HETATM   21  C   UNL     1      40.670 -10.879   6.464  1.00  0.00     0.037 A 
HETATM   22  C   UNL     1      41.767 -11.428   5.797  1.00  0.00     0.012 A 
BRANCH  20  23
HETATM   23  O   UNL     1      38.384 -10.909   7.037  1.00  0.00    -0.361 OA
HETATM   24  H   UNL     1      38.110 -11.502   7.757  1.00  0.00     0.217 HD
ENDBRANCH  20  23
ENDBRANCH   6  17
BRANCH   1  25
HETATM   25  C   UNL     1      42.214 -12.133   2.072  1.00  0.00     0.155 C 
BRANCH  25  26
HETATM   26  C   UNL     1      40.877 -12.395   1.374  1.00  0.00     0.254 C 
BRANCH  26  27
HETATM   27  N   UNL     1      39.831 -11.355   1.731  1.00  0.00    -0.077 N 
HETATM   28  C   UNL     1      39.087 -10.881   0.517  1.00  0.00     0.269 C 
HETATM   29  H   UNL     1      39.153 -11.806   2.367  1.00  0.00     0.279 HD
HETATM   30  C   UNL     1      40.378 -10.197   2.523  1.00  0.00     0.269 C 
ENDBRANCH  26  27
ENDBRANCH  25  26
ENDBRANCH   1  25
TORSDOF 5
ENDMDL
MODEL 7
REMARK VINA RESULT:      -7.0     15.804     17.565
REMARK  5 active torsions:
REMARK  status: ('A' for Active; 'I' for Inactive)
REMARK    1  A    between atoms: N_2  and  C_4 
REMARK    2  A    between atoms: C_4  and  C_5 
REMARK    3  A    between atoms: C_5  and  N_6 
REMARK    4  A    between atoms: C_11  and  C_12 
REMARK    5  A    between atoms: C_15  and  O_16 
ROOT
HETATM    1  N   UNL     1      45.334 -29.163  -1.287  1.00  0.00    -0.332 N 
HETATM    2  C   UNL     1      46.697 -29.176  -1.522  1.00  0.00     0.279 C 
HETATM    3  O   UNL     1      47.227 -29.012  -2.604  1.00  0.00    -0.265 OA
HETATM    4  C   UNL     1      47.353 -29.358  -0.216  1.00  0.00     0.156 A 
HETATM    5  C   UNL     1      46.387 -29.294   0.702  1.00  0.00     0.060 A 
HETATM    6  C   UNL     1      45.048 -29.000   0.139  1.00  0.00     0.161 C 
HETATM    7  O   UNL     1      48.693 -29.542  -0.019  1.00  0.00    -0.303 OA
HETATM    8  C   UNL     1      49.082 -29.766   1.285  1.00  0.00     0.090 A 
HETATM    9  C   UNL     1      48.180 -29.752   2.361  1.00  0.00     0.051 A 
HETATM   10  C   UNL     1      46.755 -29.433   2.106  1.00  0.00     0.196 A 
HETATM   11  O   UNL     1      45.943 -29.266   3.002  1.00  0.00    -0.287 OA
HETATM   12  C   UNL     1      50.436 -30.016   1.508  1.00  0.00     0.041 A 
HETATM   13  C   UNL     1      50.882 -30.276   2.805  1.00  0.00     0.045 A 
HETATM   14  C   UNL     1      49.972 -30.285   3.862  1.00  0.00     0.117 A 
HETATM   15  F   UNL     1      50.409 -30.549   5.099  1.00  0.00    -0.206 F 
HETATM   16  C   UNL     1      48.623 -30.021   3.656  1.00  0.00     0.060 A 
ENDROOT
BRANCH   6  17
HETATM   17  C   UNL     1      43.862 -29.792   0.622  1.00  0.00    -0.030 A 
HETATM   18  C   UNL     1      43.894 -31.197   0.512  1.00  0.00     0.012 A 
HETATM   19  C   UNL     1      42.849 -31.982   1.001  1.00  0.00     0.037 A 
HETATM   20  C   UNL     1      41.762 -31.363   1.601  1.00  0.00     0.065 A 
HETATM   21  C   UNL     1      41.702 -29.978   1.711  1.00  0.00     0.037 A 
HETATM   22  C   UNL     1      42.746 -29.191   1.220  1.00  0.00     0.012 A 
BRANCH  20  23
HETATM   23  O   UNL     1      40.724 -32.086   2.105  1.00  0.00    -0.361 OA
HETATM   24  H   UNL     1      40.911 -32.311   3.032  1.00  0.00     0.217 HD
ENDBRANCH  20  23
ENDBRANCH   6  17
BRANCH   1  25
HETATM   25  C   UNL     1      44.331 -29.270  -2.345  1.00  0.00     0.155 C 
BRANCH  25  26
HETATM   26  C   UNL     1      44.377 -30.585  -3.127  1.00  0.00     0.254 C 
BRANCH  26  27
HETATM   27  N   UNL     1      44.996 -30.413  -4.501  1.00  0.00    -0.077 N 
HETATM   28  C   UNL     1      43.949 -30.330  -5.573  1.00  0.00     0.269 C 
HETATM   29  H   UNL     1      45.520 -29.523  -4.494  1.00  0.00     0.279 HD
HETATM   30  C   UNL     1      46.032 -31.457  -4.831  1.00  0.00     0.269 C 
ENDBRANCH  26  27
ENDBRANCH  25  26
ENDBRANCH   1  25
TORSDOF 5
ENDMDL
MODEL 8
REMARK VINA RESULT:      -6.8      3.299      6.178
REMARK  5 active torsions:
REMARK  status: ('A' for Active; 'I' for Inactive)
REMARK    1  A    between atoms: N_2  and  C_4 
REMARK    2  A    between atoms: C_4  and  C_5 
REMARK    3  A    between atoms: C_5  and  N_6 
REMARK    4  A    between atoms: C_11  and  C_12 
REMARK    5  A    between atoms: C_15  and  O_16 
ROOT
HETATM    1  N   UNL     1      40.867 -14.980   3.565  1.00  0.00    -0.332 N 
HETATM    2  C   UNL     1      40.843 -15.670   2.365  1.00  0.00     0.279 C 
HETATM    3  O   UNL     1      41.147 -16.837   2.218  1.00  0.00    -0.265 OA
HETATM    4  C   UNL     1      40.323 -14.739   1.348  1.00  0.00     0.156 A 
HETATM    5  C   UNL     1      39.941 -13.641   2.004  1.00  0.00     0.060 A 
HETATM    6  C   UNL     1      40.089 -13.743   3.475  1.00  0.00     0.161 C 
HETATM    7  O   UNL     1      40.249 -14.989   0.008  1.00  0.00    -0.303 OA
HETATM    8  C   UNL     1      39.795 -13.946  -0.772  1.00  0.00     0.090 A 
HETATM    9  C   UNL     1      39.377 -12.719  -0.233  1.00  0.00     0.051 A 
HETATM   10  C   UNL     1      39.369 -12.541   1.238  1.00  0.00     0.196 A 
HETATM   11  O   UNL     1      38.891 -11.559   1.784  1.00  0.00    -0.287 OA
HETATM   12  C   UNL     1      39.765 -14.153  -2.152  1.00  0.00     0.041 A 
HETATM   13  C   UNL     1      39.340 -13.121  -2.991  1.00  0.00     0.045 A 
HETATM   14  C   UNL     1      38.952 -11.898  -2.445  1.00  0.00     0.117 A 
HETATM   15  F   UNL     1      38.559 -10.913  -3.262  1.00  0.00    -0.206 F 
HETATM   16  C   UNL     1      38.961 -11.684  -1.072  1.00  0.00     0.060 A 
ENDROOT
BRANCH   6  17
HETATM   17  C   UNL     1      40.687 -12.586   4.232  1.00  0.00    -0.030 A 
HETATM   18  C   UNL     1      40.032 -12.123   5.391  1.00  0.00     0.012 A 
HETATM   19  C   UNL     1      40.577 -11.097   6.164  1.00  0.00     0.037 A 
HETATM   20  C   UNL     1      41.781 -10.526   5.779  1.00  0.00     0.065 A 
HETATM   21  C   UNL     1      42.441 -10.959   4.634  1.00  0.00     0.037 A 
HETATM   22  C   UNL     1      41.896 -11.984   3.857  1.00  0.00     0.012 A 
BRANCH  20  23
HETATM   23  O   UNL     1      42.359  -9.530   6.507  1.00  0.00    -0.361 OA
HETATM   24  H   UNL     1      43.322  -9.663   6.522  1.00  0.00     0.217 HD
ENDBRANCH  20  23
ENDBRANCH   6  17
BRANCH   1  25
HETATM   25  C   UNL     1      41.563 -15.458   4.758  1.00  0.00     0.155 C 
BRANCH  25  26
HETATM   26  C   UNL     1      43.089 -15.470   4.636  1.00  0.00     0.254 C 
BRANCH  26  27
HETATM   27  N   UNL     1      43.706 -16.699   5.277  1.00  0.00    -0.077 N 
HETATM   28  C   UNL     1      43.866 -17.817   4.288  1.00  0.00     0.269 C 
HETATM   29  H   UNL     1      44.645 -16.432   5.614  1.00  0.00     0.279 HD
HETATM   30  C   UNL     1      42.980 -17.164   6.512  1.00  0.00     0.269 C 
ENDBRANCH  26  27
ENDBRANCH  25  26
ENDBRANCH   1  25
TORSDOF 5
ENDMDL
MODEL 9
REMARK VINA RESULT:      -6.8      4.491      7.383
REMARK  5 active torsions:
REMARK  status: ('A' for Active; 'I' for Inactive)
REMARK    1  A    between atoms: N_2  and  C_4 
REMARK    2  A    between atoms: C_4  and  C_5 
REMARK    3  A    between atoms: C_5  and  N_6 
REMARK    4  A    between atoms: C_11  and  C_12 
REMARK    5  A    between atoms: C_15  and  O_16 
ROOT
HETATM    1  N   UNL     1      40.603 -10.244  -1.068  1.00  0.00    -0.332 N 
HETATM    2  C   UNL     1      41.572  -9.795  -0.187  1.00  0.00     0.279 C 
HETATM    3  O   UNL     1      42.222  -8.776  -0.315  1.00  0.00    -0.265 OA
HETATM    4  C   UNL     1      41.601 -10.748   0.936  1.00  0.00     0.156 A 
HETATM    5  C   UNL     1      40.585 -11.591   0.741  1.00  0.00     0.060 A 
HETATM    6  C   UNL     1      39.757 -11.262  -0.444  1.00  0.00     0.161 C 
HETATM    7  O   UNL     1      42.499 -10.734   1.966  1.00  0.00    -0.303 OA
HETATM    8  C   UNL     1      42.387 -11.766   2.873  1.00  0.00     0.090 A 
HETATM    9  C   UNL     1      41.384 -12.745   2.791  1.00  0.00     0.051 A 
HETATM   10  C   UNL     1      40.364 -12.648   1.719  1.00  0.00     0.196 A 
HETATM   11  O   UNL     1      39.387 -13.377   1.668  1.00  0.00    -0.287 OA
HETATM   12  C   UNL     1      43.328 -11.811   3.902  1.00  0.00     0.041 A 
HETATM   13  C   UNL     1      43.279 -12.850   4.833  1.00  0.00     0.045 A 
HETATM   14  C   UNL     1      42.293 -13.830   4.726  1.00  0.00     0.117 A 
HETATM   15  F   UNL     1      42.264 -14.828   5.617  1.00  0.00    -0.206 F 
HETATM   16  C   UNL     1      41.339 -13.789   3.716  1.00  0.00     0.060 A 
ENDROOT
BRANCH   6  17
HETATM   17  C   UNL     1      39.341 -12.369  -1.375  1.00  0.00    -0.030 A 
HETATM   18  C   UNL     1      37.986 -12.467  -1.750  1.00  0.00     0.012 A 
HETATM   19  C   UNL     1      37.559 -13.435  -2.661  1.00  0.00     0.037 A 
HETATM   20  C   UNL     1      38.488 -14.314  -3.199  1.00  0.00     0.065 A 
HETATM   21  C   UNL     1      39.828 -14.244  -2.836  1.00  0.00     0.037 A 
HETATM   22  C   UNL     1      40.257 -13.278  -1.923  1.00  0.00     0.012 A 
BRANCH  20  23
HETATM   23  O   UNL     1      38.122 -15.268  -4.100  1.00  0.00    -0.361 OA
HETATM   24  H   UNL     1      37.939 -14.845  -4.956  1.00  0.00     0.217 HD
ENDBRANCH  20  23
ENDBRANCH   6  17
BRANCH   1  25
HETATM   25  C   UNL     1      40.449  -9.732  -2.428  1.00  0.00     0.155 C 
BRANCH  25  26
HETATM   26  C   UNL     1      39.150  -8.957  -2.667  1.00  0.00     0.254 C 
BRANCH  26  27
HETATM   27  N   UNL     1      38.386  -9.476  -3.871  1.00  0.00    -0.077 N 
HETATM   28  C   UNL     1      38.780  -8.756  -5.128  1.00  0.00     0.269 C 
HETATM   29  H   UNL     1      38.630 -10.474  -3.983  1.00  0.00     0.279 HD
HETATM   30  C   UNL     1      36.892  -9.471  -3.684  1.00  0.00     0.269 C 
ENDBRANCH  26  27
ENDBRANCH  25  26
ENDBRANCH   1  25
TORSDOF 5
ENDMDL
MODEL 10
REMARK VINA RESULT:      -6.5      3.369      7.128
REMARK  5 active torsions:
REMARK  status: ('A' for Active; 'I' for Inactive)
REMARK    1  A    between atoms: N_2  and  C_4 
REMARK    2  A    between atoms: C_4  and  C_5 
REMARK    3  A    between atoms: C_5  and  N_6 
REMARK    4  A    between atoms: C_11  and  C_12 
REMARK    5  A    between atoms: C_15  and  O_16 
ROOT
HETATM    1  N   UNL     1      42.034 -14.793   3.184  1.00  0.00    -0.332 N 
HETATM    2  C   UNL     1      41.266 -14.778   2.032  1.00  0.00     0.279 C 
HETATM    3  O   UNL     1      41.283 -15.629   1.164  1.00  0.00    -0.265 OA
HETATM    4  C   UNL     1      40.402 -13.588   2.111  1.00  0.00     0.156 A 
HETATM    5  C   UNL     1      40.590 -13.066   3.325  1.00  0.00     0.060 A 
HETATM    6  C   UNL     1      41.505 -13.859   4.180  1.00  0.00     0.161 C 
HETATM    7  O   UNL     1      39.574 -13.142   1.121  1.00  0.00    -0.303 OA
HETATM    8  C   UNL     1      38.909 -11.962   1.382  1.00  0.00     0.090 A 
HETATM    9  C   UNL     1      39.021 -11.280   2.604  1.00  0.00     0.051 A 
HETATM   10  C   UNL     1      39.843 -11.869   3.687  1.00  0.00     0.196 A 
HETATM   11  O   UNL     1      39.876 -11.409   4.818  1.00  0.00    -0.287 OA
HETATM   12  C   UNL     1      38.102 -11.452   0.364  1.00  0.00     0.041 A 
HETATM   13  C   UNL     1      37.426 -10.246   0.564  1.00  0.00     0.045 A 
HETATM   14  C   UNL     1      37.566  -9.565   1.773  1.00  0.00     0.117 A 
HETATM   15  F   UNL     1      36.924  -8.404   1.947  1.00  0.00    -0.206 F 
HETATM   16  C   UNL     1      38.353 -10.071   2.801  1.00  0.00     0.060 A 
ENDROOT
BRANCH   6  17
HETATM   17  C   UNL     1      42.566 -13.146   4.975  1.00  0.00    -0.030 A 
HETATM   18  C   UNL     1      42.806 -13.551   6.303  1.00  0.00     0.012 A 
HETATM   19  C   UNL     1      43.820 -12.966   7.063  1.00  0.00     0.037 A 
HETATM   20  C   UNL     1      44.599 -11.968   6.497  1.00  0.00     0.065 A 
HETATM   21  C   UNL     1      44.374 -11.543   5.192  1.00  0.00     0.037 A 
HETATM   22  C   UNL     1      43.358 -12.125   4.431  1.00  0.00     0.012 A 
BRANCH  20  23
HETATM   23  O   UNL     1      45.608 -11.375   7.194  1.00  0.00    -0.361 OA
HETATM   24  H   UNL     1      45.998 -10.669   6.651  1.00  0.00     0.217 HD
ENDBRANCH  20  23
ENDBRANCH   6  17
BRANCH   1  25
HETATM   25  C   UNL     1      43.199 -15.656   3.367  1.00  0.00     0.155 C 
BRANCH  25  26
HETATM   26  C   UNL     1      42.882 -17.021   3.984  1.00  0.00     0.254 C 
BRANCH  26  27
HETATM   27  N   UNL     1      44.004 -17.523   4.873  1.00  0.00    -0.077 N 
HETATM   28  C   UNL     1      44.398 -18.929   4.527  1.00  0.00     0.269 C 
HETATM   29  H   UNL     1      44.822 -16.912   4.712  1.00  0.00     0.279 HD
HETATM   30  C   UNL     1      43.715 -17.384   6.345  1.00  0.00     0.269 C 
ENDBRANCH  26  27
ENDBRANCH  25  26
ENDBRANCH   1  25
TORSDOF 5
ENDMDL
