MODEL 1
REMARK VINA RESULT:      -9.4      0.000      0.000
REMARK  5 active torsions:
REMARK  status: ('A' for Active; 'I' for Inactive)
REMARK    1  A    between atoms: C_2  and  N_3 
REMARK       I    between atoms: N_3  and  C_4 
REMARK       I    between atoms: C_4  and  N_5 
REMARK    2  A    between atoms: N_5  and  C_6 
REMARK    3  A    between atoms: C_9  and  C_10 
REMARK    4  A    between atoms: C_10  and  C_11 
REMARK       I    between atoms: C_11  and  N_12 
REMARK    5  A    between atoms: N_12  and  C_13 
ROOT
HETATM    1  C   UNL     1      43.218 -13.248   6.614  1.00  0.00     0.174 A 
HETATM    2  S   UNL     1      42.103 -12.183   5.887  1.00  0.00    -0.062 SA
HETATM    3  C   UNL     1      42.933 -10.859   6.602  1.00  0.00     0.081 A 
HETATM    4  C   UNL     1      44.018 -11.317   7.331  1.00  0.00     0.052 A 
HETATM    5  N   UNL     1      44.170 -12.698   7.324  1.00  0.00    -0.228 NA
ENDROOT
BRANCH   1   6
HETATM    6  N   UNL     1      43.006 -14.569   6.346  1.00  0.00    -0.287 N 
HETATM    7  C   UNL     1      43.047 -15.515   7.323  1.00  0.00     0.326 C 
HETATM    8  N   UNL     1      42.925 -16.818   6.921  1.00  0.00    -0.309 N 
HETATM    9  O   UNL     1      43.096 -15.294   8.532  1.00  0.00    -0.247 OA
HETATM   10  H   UNL     1      42.692 -17.422   7.701  1.00  0.00     0.170 HD
HETATM   11  H   UNL     1      42.574 -14.798   5.466  1.00  0.00     0.172 HD
BRANCH   8  12
HETATM   12  C   UNL     1      43.190 -17.451   5.694  1.00  0.00     0.036 A 
HETATM   13  C   UNL     1      42.911 -16.886   4.446  1.00  0.00     0.032 A 
HETATM   14  C   UNL     1      43.249 -17.568   3.273  1.00  0.00     0.044 A 
HETATM   15  C   UNL     1      43.876 -18.807   3.350  1.00  0.00     0.116 A 
HETATM   16  C   UNL     1      44.181 -19.372   4.580  1.00  0.00     0.044 A 
HETATM   17  F   UNL     1      44.204 -19.453   2.224  1.00  0.00    -0.206 F 
HETATM   18  C   UNL     1      43.847 -18.689   5.752  1.00  0.00     0.032 A 
ENDBRANCH   8  12
ENDBRANCH   1   6
BRANCH   4  19
HETATM   19  C   UNL     1      45.032 -10.492   8.052  1.00  0.00     0.163 C 
BRANCH  19  20
HETATM   20  C   UNL     1      44.761 -10.319   9.540  1.00  0.00     0.227 C 
HETATM   21  N   UNL     1      43.638  -9.570   9.840  1.00  0.00    -0.327 N 
HETATM   22  H   UNL     1      43.228  -9.049   9.057  1.00  0.00     0.169 HD
HETATM   23  O   UNL     1      45.478 -10.892  10.360  1.00  0.00    -0.273 OA
BRANCH  21  24
HETATM   24  C   UNL     1      43.043  -9.371  11.100  1.00  0.00     0.036 A 
HETATM   25  C   UNL     1      41.873 -10.006  11.522  1.00  0.00     0.055 A 
HETATM   26  C   UNL     1      41.327  -9.729  12.784  1.00  0.00     0.058 A 
HETATM   27 CL   UNL     1      39.864 -10.539  13.225  1.00  0.00    -0.082 Cl
HETATM   28  C   UNL     1      41.957  -8.816  13.636  1.00  0.00     0.055 A 
HETATM   29 CL   UNL     1      41.342  -8.426  15.204  1.00  0.00    -0.083 Cl
HETATM   30  C   UNL     1      43.126  -8.181  13.221  1.00  0.00     0.028 A 
HETATM   31  C   UNL     1      43.661  -8.454  11.959  1.00  0.00     0.031 A 
ENDBRANCH  21  24
ENDBRANCH  19  20
ENDBRANCH   4  19
TORSDOF 5
ENDMDL
MODEL 2
REMARK VINA RESULT:      -9.3      1.511      1.715
REMARK  5 active torsions:
REMARK  status: ('A' for Active; 'I' for Inactive)
REMARK    1  A    between atoms: C_2  and  N_3 
REMARK       I    between atoms: N_3  and  C_4 
REMARK       I    between atoms: C_4  and  N_5 
REMARK    2  A    between atoms: N_5  and  C_6 
REMARK    3  A    between atoms: C_9  and  C_10 
REMARK    4  A    between atoms: C_10  and  C_11 
REMARK       I    between atoms: C_11  and  N_12 
REMARK    5  A    between atoms: N_12  and  C_13 
ROOT
HETATM    1  C   UNL     1      42.078 -12.227   5.710  1.00  0.00     0.174 A 
HETATM    2  S   UNL     1      41.036 -10.934   5.327  1.00  0.00    -0.062 SA
HETATM    3  C   UNL     1      42.011  -9.892   6.284  1.00  0.00     0.081 A 
HETATM    4  C   UNL     1      43.078 -10.597   6.815  1.00  0.00     0.052 A 
HETATM    5  N   UNL     1      43.104 -11.942   6.471  1.00  0.00    -0.228 NA
ENDROOT
BRANCH   1   6
HETATM    6  N   UNL     1      41.736 -13.423   5.148  1.00  0.00    -0.287 N 
HETATM    7  C   UNL     1      40.731 -14.190   5.652  1.00  0.00     0.326 C 
HETATM    8  N   UNL     1      40.547 -15.417   5.073  1.00  0.00    -0.309 N 
HETATM    9  O   UNL     1      39.927 -13.842   6.515  1.00  0.00    -0.247 OA
HETATM   10  H   UNL     1      39.638 -15.799   5.305  1.00  0.00     0.170 HD
HETATM   11  H   UNL     1      42.067 -13.607   4.216  1.00  0.00     0.172 HD
BRANCH   8  12
HETATM   12  C   UNL     1      41.418 -16.258   4.358  1.00  0.00     0.036 A 
HETATM   13  C   UNL     1      41.342 -16.471   2.978  1.00  0.00     0.032 A 
HETATM   14  C   UNL     1      42.278 -17.291   2.340  1.00  0.00     0.044 A 
HETATM   15  C   UNL     1      43.293 -17.887   3.080  1.00  0.00     0.116 A 
HETATM   16  C   UNL     1      43.397 -17.668   4.446  1.00  0.00     0.044 A 
HETATM   17  F   UNL     1      44.190 -18.666   2.463  1.00  0.00    -0.206 F 
HETATM   18  C   UNL     1      42.465 -16.846   5.083  1.00  0.00     0.032 A 
ENDBRANCH   8  12
ENDBRANCH   1   6
BRANCH   4  19
HETATM   19  C   UNL     1      44.191 -10.053   7.648  1.00  0.00     0.163 C 
BRANCH  19  20
HETATM   20  C   UNL     1      43.978 -10.186   9.149  1.00  0.00     0.227 C 
HETATM   21  N   UNL     1      43.224  -9.175   9.718  1.00  0.00    -0.327 N 
HETATM   22  H   UNL     1      43.063  -8.353   9.126  1.00  0.00     0.169 HD
HETATM   23  O   UNL     1      44.402 -11.180   9.739  1.00  0.00    -0.273 OA
BRANCH  21  24
HETATM   24  C   UNL     1      42.726  -9.104  11.033  1.00  0.00     0.036 A 
HETATM   25  C   UNL     1      41.596  -9.792  11.481  1.00  0.00     0.055 A 
HETATM   26  C   UNL     1      41.146  -9.642  12.800  1.00  0.00     0.058 A 
HETATM   27 CL   UNL     1      39.727 -10.511  13.273  1.00  0.00    -0.082 Cl
HETATM   28  C   UNL     1      41.834  -8.805  13.685  1.00  0.00     0.055 A 
HETATM   29 CL   UNL     1      41.338  -8.572  15.324  1.00  0.00    -0.083 Cl
HETATM   30  C   UNL     1      42.963  -8.117  13.245  1.00  0.00     0.028 A 
HETATM   31  C   UNL     1      43.401  -8.263  11.925  1.00  0.00     0.031 A 
ENDBRANCH  21  24
ENDBRANCH  19  20
ENDBRANCH   4  19
TORSDOF 5
ENDMDL
MODEL 3
REMARK VINA RESULT:      -9.3      5.635      9.860
REMARK  5 active torsions:
REMARK  status: ('A' for Active; 'I' for Inactive)
REMARK    1  A    between atoms: C_2  and  N_3 
REMARK       I    between atoms: N_3  and  C_4 
REMARK       I    between atoms: C_4  and  N_5 
REMARK    2  A    between atoms: N_5  and  C_6 
REMARK    3  A    between atoms: C_9  and  C_10 
REMARK    4  A    between atoms: C_10  and  C_11 
REMARK       I    between atoms: C_11  and  N_12 
REMARK    5  A    between atoms: N_12  and  C_13 
ROOT
HETATM    1  C   UNL     1      42.066 -11.987   3.520  1.00  0.00     0.174 A 
HETATM    2  S   UNL     1      41.642 -10.552   2.702  1.00  0.00    -0.062 SA
HETATM    3  C   UNL     1      41.150 -11.493   1.351  1.00  0.00     0.081 A 
HETATM    4  C   UNL     1      41.323 -12.839   1.623  1.00  0.00     0.052 A 
HETATM    5  N   UNL     1      41.848 -13.107   2.881  1.00  0.00    -0.228 NA
ENDROOT
BRANCH   1   6
HETATM    6  N   UNL     1      42.563 -11.802   4.778  1.00  0.00    -0.287 N 
HETATM    7  C   UNL     1      41.752 -11.764   5.871  1.00  0.00     0.326 C 
HETATM    8  N   UNL     1      42.349 -11.468   7.066  1.00  0.00    -0.309 N 
HETATM    9  O   UNL     1      40.558 -12.057   5.887  1.00  0.00    -0.247 OA
HETATM   10  H   UNL     1      41.754 -11.724   7.846  1.00  0.00     0.170 HD
HETATM   11  H   UNL     1      43.550 -11.945   4.911  1.00  0.00     0.172 HD
BRANCH   8  12
HETATM   12  C   UNL     1      43.531 -10.775   7.380  1.00  0.00     0.036 A 
HETATM   13  C   UNL     1      43.562  -9.491   7.934  1.00  0.00     0.032 A 
HETATM   14  C   UNL     1      44.785  -8.893   8.256  1.00  0.00     0.044 A 
HETATM   15  C   UNL     1      45.971  -9.583   8.035  1.00  0.00     0.116 A 
HETATM   16  C   UNL     1      45.958 -10.867   7.508  1.00  0.00     0.044 A 
HETATM   17  F   UNL     1      47.138  -9.009   8.352  1.00  0.00    -0.206 F 
HETATM   18  C   UNL     1      44.737 -11.466   7.189  1.00  0.00     0.032 A 
ENDBRANCH   8  12
ENDBRANCH   1   6
BRANCH   4  19
HETATM   19  C   UNL     1      40.959 -13.990   0.743  1.00  0.00     0.163 C 
BRANCH  19  20
HETATM   20  C   UNL     1      41.173 -15.358   1.375  1.00  0.00     0.227 C 
HETATM   21  N   UNL     1      42.489 -15.656   1.677  1.00  0.00    -0.327 N 
HETATM   22  H   UNL     1      43.192 -15.030   1.271  1.00  0.00     0.169 HD
HETATM   23  O   UNL     1      40.201 -16.064   1.642  1.00  0.00    -0.273 OA
BRANCH  21  24
HETATM   24  C   UNL     1      42.981 -16.758   2.404  1.00  0.00     0.036 A 
HETATM   25  C   UNL     1      43.095 -18.049   1.887  1.00  0.00     0.055 A 
HETATM   26  C   UNL     1      43.567 -19.099   2.688  1.00  0.00     0.058 A 
HETATM   27 CL   UNL     1      43.660 -20.675   1.981  1.00  0.00    -0.082 Cl
HETATM   28  C   UNL     1      43.935 -18.858   4.016  1.00  0.00     0.055 A 
HETATM   29 CL   UNL     1      44.523 -20.102   5.062  1.00  0.00    -0.083 Cl
HETATM   30  C   UNL     1      43.824 -17.570   4.538  1.00  0.00     0.028 A 
HETATM   31  C   UNL     1      43.345 -16.529   3.737  1.00  0.00     0.031 A 
ENDBRANCH  21  24
ENDBRANCH  19  20
ENDBRANCH   4  19
TORSDOF 5
ENDMDL
MODEL 4
REMARK VINA RESULT:      -9.2      6.658      9.078
REMARK  5 active torsions:
REMARK  status: ('A' for Active; 'I' for Inactive)
REMARK    1  A    between atoms: C_2  and  N_3 
REMARK       I    between atoms: N_3  and  C_4 
REMARK       I    between atoms: C_4  and  N_5 
REMARK    2  A    between atoms: N_5  and  C_6 
REMARK    3  A    between atoms: C_9  and  C_10 
REMARK    4  A    between atoms: C_10  and  C_11 
REMARK       I    between atoms: C_11  and  N_12 
REMARK    5  A    between atoms: N_12  and  C_13 
ROOT
HETATM    1  C   UNL     1      41.702 -14.736   5.029  1.00  0.00     0.174 A 
HETATM    2  S   UNL     1      40.605 -14.527   6.317  1.00  0.00    -0.062 SA
HETATM    3  C   UNL     1      40.260 -12.946   5.740  1.00  0.00     0.081 A 
HETATM    4  C   UNL     1      40.990 -12.691   4.591  1.00  0.00     0.052 A 
HETATM    5  N   UNL     1      41.814 -13.736   4.192  1.00  0.00    -0.228 NA
ENDROOT
BRANCH   1   6
HETATM    6  N   UNL     1      42.325 -15.949   4.999  1.00  0.00    -0.287 N 
HETATM    7  C   UNL     1      43.534 -16.149   5.592  1.00  0.00     0.326 C 
HETATM    8  N   UNL     1      44.112 -17.376   5.407  1.00  0.00    -0.309 N 
HETATM    9  O   UNL     1      44.104 -15.358   6.342  1.00  0.00    -0.247 OA
HETATM   10  H   UNL     1      44.850 -17.539   6.082  1.00  0.00     0.170 HD
HETATM   11  H   UNL     1      41.767 -16.750   4.754  1.00  0.00     0.172 HD
BRANCH   8  12
HETATM   12  C   UNL     1      43.957 -18.345   4.401  1.00  0.00     0.036 A 
HETATM   13  C   UNL     1      44.115 -19.719   4.607  1.00  0.00     0.032 A 
HETATM   14  C   UNL     1      43.898 -20.619   3.558  1.00  0.00     0.044 A 
HETATM   15  C   UNL     1      43.514 -20.144   2.310  1.00  0.00     0.116 A 
HETATM   16  C   UNL     1      43.330 -18.786   2.093  1.00  0.00     0.044 A 
HETATM   17  F   UNL     1      43.301 -21.009   1.310  1.00  0.00    -0.206 F 
HETATM   18  C   UNL     1      43.543 -17.888   3.141  1.00  0.00     0.032 A 
ENDBRANCH   8  12
ENDBRANCH   1   6
BRANCH   4  19
HETATM   19  C   UNL     1      40.934 -11.464   3.742  1.00  0.00     0.163 C 
BRANCH  19  20
HETATM   20  C   UNL     1      40.868 -11.736   2.245  1.00  0.00     0.227 C 
HETATM   21  N   UNL     1      39.922 -12.671   1.869  1.00  0.00    -0.327 N 
HETATM   22  H   UNL     1      39.514 -13.223   2.631  1.00  0.00     0.169 HD
HETATM   23  O   UNL     1      41.574 -11.083   1.477  1.00  0.00    -0.273 OA
BRANCH  21  24
HETATM   24  C   UNL     1      39.516 -13.013   0.564  1.00  0.00     0.036 A 
HETATM   25  C   UNL     1      38.698 -12.213  -0.236  1.00  0.00     0.055 A 
HETATM   26  C   UNL     1      38.314 -12.641  -1.515  1.00  0.00     0.058 A 
HETATM   27 CL   UNL     1      37.283 -11.603  -2.437  1.00  0.00    -0.082 Cl
HETATM   28  C   UNL     1      38.754 -13.876  -2.004  1.00  0.00     0.055 A 
HETATM   29 CL   UNL     1      38.320 -14.468  -3.568  1.00  0.00    -0.083 Cl
HETATM   30  C   UNL     1      39.572 -14.679  -1.210  1.00  0.00     0.028 A 
HETATM   31  C   UNL     1      39.944 -14.250   0.068  1.00  0.00     0.031 A 
ENDBRANCH  21  24
ENDBRANCH  19  20
ENDBRANCH   4  19
TORSDOF 5
ENDMDL
MODEL 5
REMARK VINA RESULT:      -8.8      1.882      2.305
REMARK  5 active torsions:
REMARK  status: ('A' for Active; 'I' for Inactive)
REMARK    1  A    between atoms: C_2  and  N_3 
REMARK       I    between atoms: N_3  and  C_4 
REMARK       I    between atoms: C_4  and  N_5 
REMARK    2  A    between atoms: N_5  and  C_6 
REMARK    3  A    between atoms: C_9  and  C_10 
REMARK    4  A    between atoms: C_10  and  C_11 
REMARK       I    between atoms: C_11  and  N_12 
REMARK    5  A    between atoms: N_12  and  C_13 
ROOT
HETATM    1  C   UNL     1      43.246 -12.758   5.785  1.00  0.00     0.174 A 
HETATM    2  S   UNL     1      42.516 -11.358   5.144  1.00  0.00    -0.062 SA
HETATM    3  C   UNL     1      43.441 -10.402   6.231  1.00  0.00     0.081 A 
HETATM    4  C   UNL     1      44.261 -11.214   6.996  1.00  0.00     0.052 A 
HETATM    5  N   UNL     1      44.139 -12.571   6.724  1.00  0.00    -0.228 NA
ENDROOT
BRANCH   1   6
HETATM    6  N   UNL     1      42.833 -13.929   5.219  1.00  0.00    -0.287 N 
HETATM    7  C   UNL     1      41.753 -14.611   5.690  1.00  0.00     0.326 C 
HETATM    8  N   UNL     1      41.496 -15.825   5.113  1.00  0.00    -0.309 N 
HETATM    9  O   UNL     1      40.947 -14.193   6.519  1.00  0.00    -0.247 OA
HETATM   10  H   UNL     1      40.552 -16.134   5.313  1.00  0.00     0.170 HD
HETATM   11  H   UNL     1      43.184 -14.148   4.302  1.00  0.00     0.172 HD
BRANCH   8  12
HETATM   12  C   UNL     1      42.325 -16.739   4.437  1.00  0.00     0.036 A 
HETATM   13  C   UNL     1      43.326 -17.493   5.057  1.00  0.00     0.032 A 
HETATM   14  C   UNL     1      44.075 -18.413   4.316  1.00  0.00     0.044 A 
HETATM   15  C   UNL     1      43.814 -18.584   2.962  1.00  0.00     0.116 A 
HETATM   16  C   UNL     1      42.809 -17.861   2.335  1.00  0.00     0.044 A 
HETATM   17  F   UNL     1      44.529 -19.471   2.258  1.00  0.00    -0.206 F 
HETATM   18  C   UNL     1      42.058 -16.946   3.076  1.00  0.00     0.032 A 
ENDBRANCH   8  12
ENDBRANCH   1   6
BRANCH   4  19
HETATM   19  C   UNL     1      45.265 -10.779   8.012  1.00  0.00     0.163 C 
BRANCH  19  20
HETATM   20  C   UNL     1      44.912  -9.486   8.733  1.00  0.00     0.227 C 
HETATM   21  N   UNL     1      43.853  -9.587   9.616  1.00  0.00    -0.327 N 
HETATM   22  H   UNL     1      43.296 -10.445   9.547  1.00  0.00     0.169 HD
HETATM   23  O   UNL     1      45.604  -8.483   8.559  1.00  0.00    -0.273 OA
BRANCH  21  24
HETATM   24  C   UNL     1      43.399  -8.622  10.536  1.00  0.00     0.036 A 
HETATM   25  C   UNL     1      42.827  -7.401  10.173  1.00  0.00     0.055 A 
HETATM   26  C   UNL     1      42.429  -6.481  11.153  1.00  0.00     0.058 A 
HETATM   27 CL   UNL     1      41.747  -4.982  10.623  1.00  0.00    -0.082 Cl
HETATM   28  C   UNL     1      42.596  -6.783  12.509  1.00  0.00     0.055 A 
HETATM   29 CL   UNL     1      42.130  -5.697  13.770  1.00  0.00    -0.083 Cl
HETATM   30  C   UNL     1      43.166  -8.000  12.878  1.00  0.00     0.028 A 
HETATM   31  C   UNL     1      43.569  -8.910  11.895  1.00  0.00     0.031 A 
ENDBRANCH  21  24
ENDBRANCH  19  20
ENDBRANCH   4  19
TORSDOF 5
ENDMDL
MODEL 6
REMARK VINA RESULT:      -8.7      5.226      9.725
REMARK  5 active torsions:
REMARK  status: ('A' for Active; 'I' for Inactive)
REMARK    1  A    between atoms: C_2  and  N_3 
REMARK       I    between atoms: N_3  and  C_4 
REMARK       I    between atoms: C_4  and  N_5 
REMARK    2  A    between atoms: N_5  and  C_6 
REMARK    3  A    between atoms: C_9  and  C_10 
REMARK    4  A    between atoms: C_10  and  C_11 
REMARK       I    between atoms: C_11  and  N_12 
REMARK    5  A    between atoms: N_12  and  C_13 
ROOT
HETATM    1  C   UNL     1      42.273 -11.174   6.324  1.00  0.00     0.174 A 
HETATM    2  S   UNL     1      42.471 -10.229   4.919  1.00  0.00    -0.062 SA
HETATM    3  C   UNL     1      41.458 -11.324   4.066  1.00  0.00     0.081 A 
HETATM    4  C   UNL     1      41.021 -12.326   4.916  1.00  0.00     0.052 A 
HETATM    5  N   UNL     1      41.497 -12.222   6.217  1.00  0.00    -0.228 NA
ENDROOT
BRANCH   1   6
HETATM    6  N   UNL     1      42.932 -10.707   7.424  1.00  0.00    -0.287 N 
HETATM    7  C   UNL     1      44.161 -11.175   7.776  1.00  0.00     0.326 C 
HETATM    8  N   UNL     1      44.678 -10.712   8.956  1.00  0.00    -0.309 N 
HETATM    9  O   UNL     1      44.874 -11.903   7.088  1.00  0.00    -0.247 OA
HETATM   10  H   UNL     1      45.676 -10.882   9.010  1.00  0.00     0.170 HD
HETATM   11  H   UNL     1      42.609  -9.841   7.824  1.00  0.00     0.172 HD
BRANCH   8  12
HETATM   12  C   UNL     1      44.067 -10.189  10.109  1.00  0.00     0.036 A 
HETATM   13  C   UNL     1      43.611 -10.971  11.176  1.00  0.00     0.032 A 
HETATM   14  C   UNL     1      43.054 -10.364  12.306  1.00  0.00     0.044 A 
HETATM   15  C   UNL     1      42.964  -8.978  12.372  1.00  0.00     0.116 A 
HETATM   16  C   UNL     1      43.432  -8.187  11.334  1.00  0.00     0.044 A 
HETATM   17  F   UNL     1      42.437  -8.402  13.459  1.00  0.00    -0.206 F 
HETATM   18  C   UNL     1      43.992  -8.792  10.206  1.00  0.00     0.032 A 
ENDBRANCH   8  12
ENDBRANCH   1   6
BRANCH   4  19
HETATM   19  C   UNL     1      40.076 -13.436   4.590  1.00  0.00     0.163 C 
BRANCH  19  20
HETATM   20  C   UNL     1      40.752 -14.741   4.193  1.00  0.00     0.227 C 
HETATM   21  N   UNL     1      41.765 -15.150   5.041  1.00  0.00    -0.327 N 
HETATM   22  H   UNL     1      42.088 -14.450   5.717  1.00  0.00     0.169 HD
HETATM   23  O   UNL     1      40.329 -15.375   3.226  1.00  0.00    -0.273 OA
BRANCH  21  24
HETATM   24  C   UNL     1      42.458 -16.376   5.032  1.00  0.00     0.036 A 
HETATM   25  C   UNL     1      42.945 -16.992   3.878  1.00  0.00     0.055 A 
HETATM   26  C   UNL     1      43.598 -18.230   3.953  1.00  0.00     0.058 A 
HETATM   27 CL   UNL     1      44.155 -18.939   2.476  1.00  0.00    -0.082 Cl
HETATM   28  C   UNL     1      43.775 -18.857   5.191  1.00  0.00     0.055 A 
HETATM   29 CL   UNL     1      44.569 -20.383   5.359  1.00  0.00    -0.083 Cl
HETATM   30  C   UNL     1      43.292 -18.247   6.347  1.00  0.00     0.028 A 
HETATM   31  C   UNL     1      42.633 -17.016   6.265  1.00  0.00     0.031 A 
ENDBRANCH  21  24
ENDBRANCH  19  20
ENDBRANCH   4  19
TORSDOF 5
ENDMDL
MODEL 7
REMARK VINA RESULT:      -8.6      5.470      9.839
REMARK  5 active torsions:
REMARK  status: ('A' for Active; 'I' for Inactive)
REMARK    1  A    between atoms: C_2  and  N_3 
REMARK       I    between atoms: N_3  and  C_4 
REMARK       I    between atoms: C_4  and  N_5 
REMARK    2  A    between atoms: N_5  and  C_6 
REMARK    3  A    between atoms: C_9  and  C_10 
REMARK    4  A    between atoms: C_10  and  C_11 
REMARK       I    between atoms: C_11  and  N_12 
REMARK    5  A    between atoms: N_12  and  C_13 
ROOT
HETATM    1  C   UNL     1      41.406 -11.740   5.085  1.00  0.00     0.174 A 
HETATM    2  S   UNL     1      39.808 -12.330   5.150  1.00  0.00    -0.062 SA
HETATM    3  C   UNL     1      40.066 -13.133   3.654  1.00  0.00     0.081 A 
HETATM    4  C   UNL     1      41.361 -12.914   3.215  1.00  0.00     0.052 A 
HETATM    5  N   UNL     1      42.122 -12.112   4.055  1.00  0.00    -0.228 NA
ENDROOT
BRANCH   1   6
HETATM    6  N   UNL     1      41.771 -10.961   6.145  1.00  0.00    -0.287 N 
HETATM    7  C   UNL     1      41.843  -9.605   6.046  1.00  0.00     0.326 C 
HETATM    8  N   UNL     1      42.323  -8.936   7.140  1.00  0.00    -0.309 N 
HETATM    9  O   UNL     1      41.436  -8.933   5.101  1.00  0.00    -0.247 OA
HETATM   10  H   UNL     1      42.093  -7.950   7.096  1.00  0.00     0.170 HD
HETATM   11  H   UNL     1      41.743 -11.381   7.059  1.00  0.00     0.172 HD
BRANCH   8  12
HETATM   12  C   UNL     1      43.160  -9.339   8.195  1.00  0.00     0.036 A 
HETATM   13  C   UNL     1      42.716  -9.571   9.501  1.00  0.00     0.032 A 
HETATM   14  C   UNL     1      43.611 -10.013  10.481  1.00  0.00     0.044 A 
HETATM   15  C   UNL     1      44.943 -10.233  10.151  1.00  0.00     0.116 A 
HETATM   16  C   UNL     1      45.396 -10.031   8.855  1.00  0.00     0.044 A 
HETATM   17  F   UNL     1      45.794 -10.663  11.090  1.00  0.00    -0.206 F 
HETATM   18  C   UNL     1      44.502  -9.593   7.875  1.00  0.00     0.032 A 
ENDBRANCH   8  12
ENDBRANCH   1   6
BRANCH   4  19
HETATM   19  C   UNL     1      42.008 -13.485   1.996  1.00  0.00     0.163 C 
BRANCH  19  20
HETATM   20  C   UNL     1      42.925 -14.669   2.266  1.00  0.00     0.227 C 
HETATM   21  N   UNL     1      42.471 -15.543   3.236  1.00  0.00    -0.327 N 
HETATM   22  H   UNL     1      41.687 -15.208   3.806  1.00  0.00     0.169 HD
HETATM   23  O   UNL     1      43.938 -14.822   1.583  1.00  0.00    -0.273 OA
BRANCH  21  24
HETATM   24  C   UNL     1      43.006 -16.797   3.590  1.00  0.00     0.036 A 
HETATM   25  C   UNL     1      43.120 -17.876   2.711  1.00  0.00     0.055 A 
HETATM   26  C   UNL     1      43.637 -19.102   3.151  1.00  0.00     0.058 A 
HETATM   27 CL   UNL     1      43.727 -20.397   2.008  1.00  0.00    -0.082 Cl
HETATM   28  C   UNL     1      44.051 -19.254   4.479  1.00  0.00     0.055 A 
HETATM   29 CL   UNL     1      44.697 -20.735   5.091  1.00  0.00    -0.083 Cl
HETATM   30  C   UNL     1      43.942 -18.180   5.361  1.00  0.00     0.028 A 
HETATM   31  C   UNL     1      43.417 -16.962   4.918  1.00  0.00     0.031 A 
ENDBRANCH  21  24
ENDBRANCH  19  20
ENDBRANCH   4  19
TORSDOF 5
ENDMDL
MODEL 8
REMARK VINA RESULT:      -8.5      5.343      9.697
REMARK  5 active torsions:
REMARK  status: ('A' for Active; 'I' for Inactive)
REMARK    1  A    between atoms: C_2  and  N_3 
REMARK       I    between atoms: N_3  and  C_4 
REMARK       I    between atoms: C_4  and  N_5 
REMARK    2  A    between atoms: N_5  and  C_6 
REMARK    3  A    between atoms: C_9  and  C_10 
REMARK    4  A    between atoms: C_10  and  C_11 
REMARK       I    between atoms: C_11  and  N_12 
REMARK    5  A    between atoms: N_12  and  C_13 
ROOT
HETATM    1  C   UNL     1      42.142  -9.478   7.864  1.00  0.00     0.174 A 
HETATM    2  S   UNL     1      40.466  -9.182   7.764  1.00  0.00    -0.062 SA
HETATM    3  C   UNL     1      40.535  -9.482   6.074  1.00  0.00     0.081 A 
HETATM    4  C   UNL     1      41.828  -9.807   5.702  1.00  0.00     0.052 A 
HETATM    5  N   UNL     1      42.742  -9.805   6.748  1.00  0.00    -0.228 NA
ENDROOT
BRANCH   1   6
HETATM    6  N   UNL     1      42.669  -9.368   9.118  1.00  0.00    -0.287 N 
HETATM    7  C   UNL     1      43.522 -10.301   9.622  1.00  0.00     0.326 C 
HETATM    8  N   UNL     1      43.902 -10.142  10.927  1.00  0.00    -0.309 N 
HETATM    9  O   UNL     1      44.042 -11.215   8.984  1.00  0.00    -0.247 OA
HETATM   10  H   UNL     1      44.724 -10.695  11.139  1.00  0.00     0.170 HD
HETATM   11  H   UNL     1      42.616  -8.467   9.564  1.00  0.00     0.172 HD
BRANCH   8  12
HETATM   12  C   UNL     1      43.294  -9.482  12.009  1.00  0.00     0.036 A 
HETATM   13  C   UNL     1      43.653  -8.203  12.446  1.00  0.00     0.032 A 
HETATM   14  C   UNL     1      42.965  -7.602  13.505  1.00  0.00     0.044 A 
HETATM   15  C   UNL     1      41.913  -8.275  14.116  1.00  0.00     0.116 A 
HETATM   16  C   UNL     1      41.528  -9.534  13.680  1.00  0.00     0.044 A 
HETATM   17  F   UNL     1      41.252  -7.692  15.124  1.00  0.00    -0.206 F 
HETATM   18  C   UNL     1      42.213 -10.134  12.620  1.00  0.00     0.032 A 
ENDBRANCH   8  12
ENDBRANCH   1   6
BRANCH   4  19
HETATM   19  C   UNL     1      42.303 -10.200   4.342  1.00  0.00     0.163 C 
BRANCH  19  20
HETATM   20  C   UNL     1      43.124 -11.481   4.307  1.00  0.00     0.227 C 
HETATM   21  N   UNL     1      42.466 -12.603   4.778  1.00  0.00    -0.327 N 
HETATM   22  H   UNL     1      41.590 -12.426   5.280  1.00  0.00     0.169 HD
HETATM   23  O   UNL     1      44.251 -11.468   3.812  1.00  0.00    -0.273 OA
BRANCH  21  24
HETATM   24  C   UNL     1      42.895 -13.943   4.724  1.00  0.00     0.036 A 
HETATM   25  C   UNL     1      42.882 -14.724   3.567  1.00  0.00     0.055 A 
HETATM   26  C   UNL     1      43.299 -16.062   3.605  1.00  0.00     0.058 A 
HETATM   27 CL   UNL     1      43.233 -16.969   2.134  1.00  0.00    -0.082 Cl
HETATM   28  C   UNL     1      43.739 -16.626   4.807  1.00  0.00     0.055 A 
HETATM   29 CL   UNL     1      44.265 -18.268   4.929  1.00  0.00    -0.083 Cl
HETATM   30  C   UNL     1      43.755 -15.852   5.966  1.00  0.00     0.028 A 
HETATM   31  C   UNL     1      43.331 -14.520   5.923  1.00  0.00     0.031 A 
ENDBRANCH  21  24
ENDBRANCH  19  20
ENDBRANCH   4  19
TORSDOF 5
ENDMDL
MODEL 9
REMARK VINA RESULT:      -8.5      6.176     10.258
REMARK  5 active torsions:
REMARK  status: ('A' for Active; 'I' for Inactive)
REMARK    1  A    between atoms: C_2  and  N_3 
REMARK       I    between atoms: N_3  and  C_4 
REMARK       I    between atoms: C_4  and  N_5 
REMARK    2  A    between atoms: N_5  and  C_6 
REMARK    3  A    between atoms: C_9  and  C_10 
REMARK    4  A    between atoms: C_10  and  C_11 
REMARK       I    between atoms: C_11  and  N_12 
REMARK    5  A    between atoms: N_12  and  C_13 
ROOT
HETATM    1  C   UNL     1      42.346 -14.006   6.449  1.00  0.00     0.174 A 
HETATM    2  S   UNL     1      43.108 -15.230   7.359  1.00  0.00    -0.062 SA
HETATM    3  C   UNL     1      42.248 -16.409   6.454  1.00  0.00     0.081 A 
HETATM    4  C   UNL     1      41.452 -15.791   5.505  1.00  0.00     0.052 A 
HETATM    5  N   UNL     1      41.524 -14.404   5.513  1.00  0.00    -0.228 NA
ENDROOT
BRANCH   1   6
HETATM    6  N   UNL     1      42.708 -12.734   6.786  1.00  0.00    -0.287 N 
HETATM    7  C   UNL     1      43.565 -12.006   6.020  1.00  0.00     0.326 C 
HETATM    8  N   UNL     1      43.939 -10.784   6.511  1.00  0.00    -0.309 N 
HETATM    9  O   UNL     1      43.959 -12.313   4.896  1.00  0.00    -0.247 OA
HETATM   10  H   UNL     1      44.341 -10.204   5.783  1.00  0.00     0.170 HD
HETATM   11  H   UNL     1      42.141 -12.257   7.467  1.00  0.00     0.172 HD
BRANCH   8  12
HETATM   12  C   UNL     1      43.985 -10.271   7.818  1.00  0.00     0.036 A 
HETATM   13  C   UNL     1      42.900  -9.663   8.459  1.00  0.00     0.032 A 
HETATM   14  C   UNL     1      43.020  -9.219   9.780  1.00  0.00     0.044 A 
HETATM   15  C   UNL     1      44.219  -9.395  10.461  1.00  0.00     0.116 A 
HETATM   16  C   UNL     1      45.299 -10.016   9.849  1.00  0.00     0.044 A 
HETATM   17  F   UNL     1      44.328  -8.975  11.727  1.00  0.00    -0.206 F 
HETATM   18  C   UNL     1      45.178 -10.463   8.531  1.00  0.00     0.032 A 
ENDBRANCH   8  12
ENDBRANCH   1   6
BRANCH   4  19
HETATM   19  C   UNL     1      40.597 -16.454   4.475  1.00  0.00     0.163 C 
BRANCH  19  20
HETATM   20  C   UNL     1      40.893 -16.031   3.043  1.00  0.00     0.227 C 
HETATM   21  N   UNL     1      40.071 -15.031   2.555  1.00  0.00    -0.327 N 
HETATM   22  H   UNL     1      39.239 -14.825   3.117  1.00  0.00     0.169 HD
HETATM   23  O   UNL     1      41.852 -16.522   2.449  1.00  0.00    -0.273 OA
BRANCH  21  24
HETATM   24  C   UNL     1      40.197 -14.325   1.343  1.00  0.00     0.036 A 
HETATM   25  C   UNL     1      39.779 -14.815   0.104  1.00  0.00     0.055 A 
HETATM   26  C   UNL     1      39.968 -14.059  -1.062  1.00  0.00     0.058 A 
HETATM   27 CL   UNL     1      39.442 -14.743  -2.561  1.00  0.00    -0.082 Cl
HETATM   28  C   UNL     1      40.574 -12.800  -0.992  1.00  0.00     0.055 A 
HETATM   29 CL   UNL     1      40.840 -11.814  -2.386  1.00  0.00    -0.083 Cl
HETATM   30  C   UNL     1      40.992 -12.305   0.242  1.00  0.00     0.028 A 
HETATM   31  C   UNL     1      40.808 -13.067   1.400  1.00  0.00     0.031 A 
ENDBRANCH  21  24
ENDBRANCH  19  20
ENDBRANCH   4  19
TORSDOF 5
ENDMDL
MODEL 10
REMARK VINA RESULT:      -8.3      4.938      9.585
REMARK  5 active torsions:
REMARK  status: ('A' for Active; 'I' for Inactive)
REMARK    1  A    between atoms: C_2  and  N_3 
REMARK       I    between atoms: N_3  and  C_4 
REMARK       I    between atoms: C_4  and  N_5 
REMARK    2  A    between atoms: N_5  and  C_6 
REMARK    3  A    between atoms: C_9  and  C_10 
REMARK    4  A    between atoms: C_10  and  C_11 
REMARK       I    between atoms: C_11  and  N_12 
REMARK    5  A    between atoms: N_12  and  C_13 
ROOT
HETATM    1  C   UNL     1      41.562  -9.887   6.911  1.00  0.00     0.174 A 
HETATM    2  S   UNL     1      41.393  -8.632   5.769  1.00  0.00    -0.062 SA
HETATM    3  C   UNL     1      40.417  -9.669   4.807  1.00  0.00     0.081 A 
HETATM    4  C   UNL     1      40.269 -10.896   5.431  1.00  0.00     0.052 A 
HETATM    5  N   UNL     1      40.933 -11.003   6.647  1.00  0.00    -0.228 NA
ENDROOT
BRANCH   1   6
HETATM    6  N   UNL     1      42.321  -9.570   8.001  1.00  0.00    -0.287 N 
HETATM    7  C   UNL     1      43.621  -9.959   8.107  1.00  0.00     0.326 C 
HETATM    8  N   UNL     1      44.250  -9.677   9.289  1.00  0.00    -0.309 N 
HETATM    9  O   UNL     1      44.295 -10.460   7.208  1.00  0.00    -0.247 OA
HETATM   10  H   UNL     1      45.257  -9.743   9.193  1.00  0.00     0.170 HD
HETATM   11  H   UNL     1      41.983  -8.837   8.602  1.00  0.00     0.172 HD
BRANCH   8  12
HETATM   12  C   UNL     1      43.757  -9.455  10.586  1.00  0.00     0.036 A 
HETATM   13  C   UNL     1      43.574  -8.187  11.148  1.00  0.00     0.032 A 
HETATM   14  C   UNL     1      43.036  -8.057  12.432  1.00  0.00     0.044 A 
HETATM   15  C   UNL     1      42.671  -9.192  13.146  1.00  0.00     0.116 A 
HETATM   16  C   UNL     1      42.824 -10.456  12.596  1.00  0.00     0.044 A 
HETATM   17  F   UNL     1      42.149  -9.062  14.373  1.00  0.00    -0.206 F 
HETATM   18  C   UNL     1      43.358 -10.587  11.312  1.00  0.00     0.032 A 
ENDBRANCH   8  12
ENDBRANCH   1   6
BRANCH   4  19
HETATM   19  C   UNL     1      39.449 -12.052   4.963  1.00  0.00     0.163 C 
BRANCH  19  20
HETATM   20  C   UNL     1      40.070 -13.415   5.232  1.00  0.00     0.227 C 
HETATM   21  N   UNL     1      40.954 -13.849   4.261  1.00  0.00    -0.327 N 
HETATM   22  H   UNL     1      40.946 -13.319   3.383  1.00  0.00     0.169 HD
HETATM   23  O   UNL     1      39.824 -13.999   6.287  1.00  0.00    -0.273 OA
BRANCH  21  24
HETATM   24  C   UNL     1      41.798 -14.976   4.301  1.00  0.00     0.036 A 
HETATM   25  C   UNL     1      42.806 -15.165   5.248  1.00  0.00     0.055 A 
HETATM   26  C   UNL     1      43.624 -16.303   5.200  1.00  0.00     0.058 A 
HETATM   27 CL   UNL     1      44.865 -16.455   6.396  1.00  0.00    -0.082 Cl
HETATM   28  C   UNL     1      43.432 -17.265   4.203  1.00  0.00     0.055 A 
HETATM   29 CL   UNL     1      44.402 -18.690   4.082  1.00  0.00    -0.083 Cl
HETATM   30  C   UNL     1      42.425 -17.082   3.256  1.00  0.00     0.028 A 
HETATM   31  C   UNL     1      41.619 -15.942   3.304  1.00  0.00     0.031 A 
ENDBRANCH  21  24
ENDBRANCH  19  20
ENDBRANCH   4  19
TORSDOF 5
ENDMDL
