MODEL 1
REMARK VINA RESULT:      -8.8      0.000      0.000
REMARK  6 active torsions:
REMARK  status: ('A' for Active; 'I' for Inactive)
REMARK    1  A    between atoms: C_6  and  C_7 
REMARK    2  A    between atoms: C_7  and  N_8 
REMARK       I    between atoms: N_8  and  C_9 
REMARK    3  A    between atoms: N_8  and  C_19 
REMARK    4  A    between atoms: C_9  and  C_10 
REMARK    5  A    between atoms: C_12  and  O_13 
REMARK    6  A    between atoms: C_19  and  C_20 
ROOT
HETATM    1  N   UNL     1      41.747 -14.409   3.738  1.00  0.00    -0.341 N 
HETATM    2  C   UNL     1      41.343 -15.728   3.961  1.00  0.00     0.254 C 
HETATM    3  O   UNL     1      40.168 -16.087   3.886  1.00  0.00    -0.267 OA
ENDROOT
BRANCH   1   4
HETATM    4  C   UNL     1      40.707 -13.453   3.333  1.00  0.00     0.170 C 
BRANCH   4   5
HETATM    5  C   UNL     1      40.583 -13.293   1.843  1.00  0.00     0.029 A 
HETATM    6  C   UNL     1      40.015 -14.142   0.968  1.00  0.00     0.028 A 
HETATM    7  C   UNL     1      39.934 -13.821  -0.458  1.00  0.00    -0.008 A 
HETATM    8  C   UNL     1      40.457 -12.606  -0.923  1.00  0.00     0.051 A 
HETATM    9  C   UNL     1      39.329 -14.702  -1.358  1.00  0.00     0.014 A 
HETATM   10  C   UNL     1      40.382 -12.260  -2.284  1.00  0.00    -0.034 A 
HETATM   11  N   UNL     1      41.058 -11.743   0.004  1.00  0.00    -0.322 N 
HETATM   12  C   UNL     1      40.920 -10.960  -2.808  1.00  0.00     0.050 C 
HETATM   13  C   UNL     1      39.769 -13.159  -3.170  1.00  0.00     0.009 A 
HETATM   14  C   UNL     1      39.248 -14.370  -2.710  1.00  0.00     0.002 A 
HETATM   15  C   UNL     1      41.164 -12.008   1.340  1.00  0.00     0.253 A 
HETATM   16  H   UNL     1      41.451 -10.863  -0.293  1.00  0.00     0.169 HD
HETATM   17  O   UNL     1      41.726 -11.217   2.095  1.00  0.00    -0.268 OA
ENDBRANCH   4   5
ENDBRANCH   1   4
BRANCH   1  18
HETATM   18  C   UNL     1      43.087 -13.869   4.026  1.00  0.00     0.158 C 
BRANCH  18  19
HETATM   19  C   UNL     1      43.154 -12.864   5.188  1.00  0.00     0.139 C 
HETATM   20  O   UNL     1      43.960 -11.731   4.797  1.00  0.00    -0.384 OA
HETATM   21  C   UNL     1      44.843 -11.408   5.882  1.00  0.00     0.168 C 
HETATM   22  C   UNL     1      44.329 -12.154   7.093  1.00  0.00     0.029 C 
HETATM   23  C   UNL     1      43.779 -13.409   6.464  1.00  0.00     0.035 C 
ENDBRANCH  18  19
ENDBRANCH   1  18
BRANCH   2  24
HETATM   24  C   UNL     1      42.330 -16.778   4.305  1.00  0.00     0.034 A 
HETATM   25  C   UNL     1      42.851 -17.553   3.258  1.00  0.00     0.053 A 
HETATM   26  C   UNL     1      43.821 -18.519   3.524  1.00  0.00     0.069 A 
HETATM   27  C   UNL     1      44.251 -18.718   4.838  1.00  0.00     0.037 A 
HETATM   28  C   UNL     1      43.760 -17.924   5.877  1.00  0.00     0.004 A 
HETATM   29  C   UNL     1      42.815 -16.935   5.608  1.00  0.00     0.017 A 
BRANCH  26  30
HETATM   30  O   UNL     1      44.411 -19.332   2.594  1.00  0.00    -0.356 OA
HETATM   31  C   UNL     1      43.567 -20.301   1.979  1.00  0.00     0.210 C 
ENDBRANCH  26  30
ENDBRANCH   2  24
TORSDOF 6
ENDMDL
MODEL 2
REMARK VINA RESULT:      -8.7      3.901      7.457
REMARK  6 active torsions:
REMARK  status: ('A' for Active; 'I' for Inactive)
REMARK    1  A    between atoms: C_6  and  C_7 
REMARK    2  A    between atoms: C_7  and  N_8 
REMARK       I    between atoms: N_8  and  C_9 
REMARK    3  A    between atoms: N_8  and  C_19 
REMARK    4  A    between atoms: C_9  and  C_10 
REMARK    5  A    between atoms: C_12  and  O_13 
REMARK    6  A    between atoms: C_19  and  C_20 
ROOT
HETATM    1  N   UNL     1      42.043 -13.563   6.392  1.00  0.00    -0.341 N 
HETATM    2  C   UNL     1      40.658 -13.588   6.198  1.00  0.00     0.254 C 
HETATM    3  O   UNL     1      39.953 -14.536   6.544  1.00  0.00    -0.267 OA
ENDROOT
BRANCH   1   4
HETATM    4  C   UNL     1      42.636 -14.704   7.103  1.00  0.00     0.170 C 
BRANCH   4   5
HETATM    5  C   UNL     1      42.902 -15.891   6.220  1.00  0.00     0.029 A 
HETATM    6  C   UNL     1      42.674 -16.003   4.899  1.00  0.00     0.028 A 
HETATM    7  C   UNL     1      43.029 -17.219   4.166  1.00  0.00    -0.008 A 
HETATM    8  C   UNL     1      43.620 -18.291   4.852  1.00  0.00     0.051 A 
HETATM    9  C   UNL     1      42.801 -17.321   2.792  1.00  0.00     0.014 A 
HETATM   10  C   UNL     1      43.987 -19.467   4.177  1.00  0.00    -0.034 A 
HETATM   11  N   UNL     1      43.834 -18.158   6.231  1.00  0.00    -0.322 N 
HETATM   12  C   UNL     1      44.634 -20.625   4.883  1.00  0.00     0.050 C 
HETATM   13  C   UNL     1      43.751 -19.547   2.796  1.00  0.00     0.009 A 
HETATM   14  C   UNL     1      43.162 -18.483   2.110  1.00  0.00     0.002 A 
HETATM   15  C   UNL     1      43.508 -17.046   6.955  1.00  0.00     0.253 A 
HETATM   16  H   UNL     1      44.251 -18.909   6.761  1.00  0.00     0.169 HD
HETATM   17  O   UNL     1      43.702 -17.005   8.168  1.00  0.00    -0.268 OA
ENDBRANCH   4   5
ENDBRANCH   1   4
BRANCH   1  18
HETATM   18  C   UNL     1      42.966 -12.574   5.809  1.00  0.00     0.158 C 
BRANCH  18  19
HETATM   19  C   UNL     1      44.294 -12.394   6.560  1.00  0.00     0.139 C 
HETATM   20  O   UNL     1      44.031 -11.902   7.893  1.00  0.00    -0.384 OA
HETATM   21  C   UNL     1      44.963 -10.848   8.179  1.00  0.00     0.168 C 
HETATM   22  C   UNL     1      46.040 -10.926   7.121  1.00  0.00     0.029 C 
HETATM   23  C   UNL     1      45.255 -11.400   5.924  1.00  0.00     0.035 C 
ENDBRANCH  18  19
ENDBRANCH   1  18
BRANCH   2  24
HETATM   24  C   UNL     1      39.960 -12.451   5.554  1.00  0.00     0.034 A 
HETATM   25  C   UNL     1      39.518 -11.405   6.377  1.00  0.00     0.053 A 
HETATM   26  C   UNL     1      38.900 -10.289   5.813  1.00  0.00     0.069 A 
HETATM   27  C   UNL     1      38.713 -10.234   4.430  1.00  0.00     0.037 A 
HETATM   28  C   UNL     1      39.184 -11.258   3.604  1.00  0.00     0.004 A 
HETATM   29  C   UNL     1      39.830 -12.359   4.164  1.00  0.00     0.017 A 
BRANCH  26  30
HETATM   30  O   UNL     1      38.433  -9.204   6.503  1.00  0.00    -0.356 OA
HETATM   31  C   UNL     1      39.198  -8.008   6.390  1.00  0.00     0.210 C 
ENDBRANCH  26  30
ENDBRANCH   2  24
TORSDOF 6
ENDMDL
MODEL 3
REMARK VINA RESULT:      -8.6      2.357      7.107
REMARK  6 active torsions:
REMARK  status: ('A' for Active; 'I' for Inactive)
REMARK    1  A    between atoms: C_6  and  C_7 
REMARK    2  A    between atoms: C_7  and  N_8 
REMARK       I    between atoms: N_8  and  C_9 
REMARK    3  A    between atoms: N_8  and  C_19 
REMARK    4  A    between atoms: C_9  and  C_10 
REMARK    5  A    between atoms: C_12  and  O_13 
REMARK    6  A    between atoms: C_19  and  C_20 
ROOT
HETATM    1  N   UNL     1      41.956 -13.925   3.893  1.00  0.00    -0.341 N 
HETATM    2  C   UNL     1      42.370 -13.359   2.684  1.00  0.00     0.254 C 
HETATM    3  O   UNL     1      43.551 -13.307   2.342  1.00  0.00    -0.267 OA
ENDROOT
BRANCH   1   4
HETATM    4  C   UNL     1      42.996 -14.533   4.734  1.00  0.00     0.170 C 
BRANCH   4   5
HETATM    5  C   UNL     1      43.185 -16.004   4.488  1.00  0.00     0.029 A 
HETATM    6  C   UNL     1      43.018 -16.675   3.334  1.00  0.00     0.028 A 
HETATM    7  C   UNL     1      43.285 -18.111   3.243  1.00  0.00    -0.008 A 
HETATM    8  C   UNL     1      43.725 -18.804   4.381  1.00  0.00     0.051 A 
HETATM    9  C   UNL     1      43.123 -18.796   2.038  1.00  0.00     0.014 A 
HETATM   10  C   UNL     1      44.005 -20.180   4.326  1.00  0.00    -0.034 A 
HETATM   11  N   UNL     1      43.877 -18.088   5.577  1.00  0.00    -0.322 N 
HETATM   12  C   UNL     1      44.490 -20.946   5.524  1.00  0.00     0.050 C 
HETATM   13  C   UNL     1      43.836 -20.849   3.104  1.00  0.00     0.009 A 
HETATM   14  C   UNL     1      43.398 -20.162   1.970  1.00  0.00     0.002 A 
HETATM   15  C   UNL     1      43.629 -16.751   5.707  1.00  0.00     0.253 A 
HETATM   16  H   UNL     1      44.186 -18.553   6.418  1.00  0.00     0.169 HD
HETATM   17  O   UNL     1      43.761 -16.190   6.793  1.00  0.00    -0.268 OA
ENDBRANCH   4   5
ENDBRANCH   1   4
BRANCH   1  18
HETATM   18  C   UNL     1      40.601 -13.821   4.462  1.00  0.00     0.158 C 
BRANCH  18  19
HETATM   19  C   UNL     1      40.474 -12.912   5.695  1.00  0.00     0.139 C 
HETATM   20  O   UNL     1      39.077 -12.683   5.981  1.00  0.00    -0.384 OA
HETATM   21  C   UNL     1      38.897 -11.287   6.267  1.00  0.00     0.168 C 
HETATM   22  C   UNL     1      40.277 -10.711   6.489  1.00  0.00     0.029 C 
HETATM   23  C   UNL     1      41.106 -11.537   5.539  1.00  0.00     0.035 C 
ENDBRANCH  18  19
ENDBRANCH   1  18
BRANCH   2  24
HETATM   24  C   UNL     1      41.386 -12.784   1.738  1.00  0.00     0.034 A 
HETATM   25  C   UNL     1      40.810 -13.643   0.791  1.00  0.00     0.053 A 
HETATM   26  C   UNL     1      39.841 -13.161  -0.089  1.00  0.00     0.069 A 
HETATM   27  C   UNL     1      39.466 -11.817  -0.027  1.00  0.00     0.037 A 
HETATM   28  C   UNL     1      40.012 -10.967   0.937  1.00  0.00     0.004 A 
HETATM   29  C   UNL     1      40.956 -11.456   1.838  1.00  0.00     0.017 A 
BRANCH  26  30
HETATM   30  O   UNL     1      39.201 -13.896  -1.050  1.00  0.00    -0.356 OA
HETATM   31  C   UNL     1      38.250 -13.198  -1.847  1.00  0.00     0.210 C 
ENDBRANCH  26  30
ENDBRANCH   2  24
TORSDOF 6
ENDMDL
MODEL 4
REMARK VINA RESULT:      -8.5      2.684      6.963
REMARK  6 active torsions:
REMARK  status: ('A' for Active; 'I' for Inactive)
REMARK    1  A    between atoms: C_6  and  C_7 
REMARK    2  A    between atoms: C_7  and  N_8 
REMARK       I    between atoms: N_8  and  C_9 
REMARK    3  A    between atoms: N_8  and  C_19 
REMARK    4  A    between atoms: C_9  and  C_10 
REMARK    5  A    between atoms: C_12  and  O_13 
REMARK    6  A    between atoms: C_19  and  C_20 
ROOT
HETATM    1  N   UNL     1      42.398 -13.306   5.752  1.00  0.00    -0.341 N 
HETATM    2  C   UNL     1      41.000 -13.340   5.761  1.00  0.00     0.254 C 
HETATM    3  O   UNL     1      40.358 -14.209   6.351  1.00  0.00    -0.267 OA
ENDROOT
BRANCH   1   4
HETATM    4  C   UNL     1      43.094 -14.326   6.548  1.00  0.00     0.170 C 
BRANCH   4   5
HETATM    5  C   UNL     1      43.243 -15.644   5.839  1.00  0.00     0.029 A 
HETATM    6  C   UNL     1      43.071 -15.899   4.530  1.00  0.00     0.028 A 
HETATM    7  C   UNL     1      43.297 -17.236   3.979  1.00  0.00    -0.008 A 
HETATM    8  C   UNL     1      43.703 -18.274   4.832  1.00  0.00     0.051 A 
HETATM    9  C   UNL     1      43.130 -17.489   2.616  1.00  0.00     0.014 A 
HETATM   10  C   UNL     1      43.945 -19.566   4.335  1.00  0.00    -0.034 A 
HETATM   11  N   UNL     1      43.862 -17.988   6.195  1.00  0.00    -0.322 N 
HETATM   12  C   UNL     1      44.393 -20.692   5.221  1.00  0.00     0.050 C 
HETATM   13  C   UNL     1      43.771 -19.797   2.962  1.00  0.00     0.009 A 
HETATM   14  C   UNL     1      43.366 -18.767   2.110  1.00  0.00     0.002 A 
HETATM   15  C   UNL     1      43.651 -16.758   6.751  1.00  0.00     0.253 A 
HETATM   16  H   UNL     1      44.147 -18.710   6.842  1.00  0.00     0.169 HD
HETATM   17  O   UNL     1      43.786 -16.583   7.960  1.00  0.00    -0.268 OA
ENDBRANCH   4   5
ENDBRANCH   1   4
BRANCH   1  18
HETATM   18  C   UNL     1      43.223 -12.438   4.894  1.00  0.00     0.158 C 
BRANCH  18  19
HETATM   19  C   UNL     1      43.892 -11.253   5.607  1.00  0.00     0.139 C 
HETATM   20  O   UNL     1      45.257 -11.596   5.933  1.00  0.00    -0.384 OA
HETATM   21  C   UNL     1      45.523 -11.168   7.277  1.00  0.00     0.168 C 
HETATM   22  C   UNL     1      44.395 -10.240   7.666  1.00  0.00     0.029 C 
HETATM   23  C   UNL     1      43.234 -10.845   6.917  1.00  0.00     0.035 C 
ENDBRANCH  18  19
ENDBRANCH   1  18
BRANCH   2  24
HETATM   24  C   UNL     1      40.211 -12.311   5.046  1.00  0.00     0.034 A 
HETATM   25  C   UNL     1      39.766 -12.613   3.750  1.00  0.00     0.053 A 
HETATM   26  C   UNL     1      38.976 -11.698   3.054  1.00  0.00     0.069 A 
HETATM   27  C   UNL     1      38.650 -10.478   3.652  1.00  0.00     0.037 A 
HETATM   28  C   UNL     1      39.062 -10.189   4.955  1.00  0.00     0.004 A 
HETATM   29  C   UNL     1      39.824 -11.117   5.663  1.00  0.00     0.017 A 
BRANCH  26  30
HETATM   30  O   UNL     1      38.476 -11.875   1.792  1.00  0.00    -0.356 OA
HETATM   31  C   UNL     1      39.425 -12.183   0.776  1.00  0.00     0.210 C 
ENDBRANCH  26  30
ENDBRANCH   2  24
TORSDOF 6
ENDMDL
MODEL 5
REMARK VINA RESULT:      -8.5      1.998      2.401
REMARK  6 active torsions:
REMARK  status: ('A' for Active; 'I' for Inactive)
REMARK    1  A    between atoms: C_6  and  C_7 
REMARK    2  A    between atoms: C_7  and  N_8 
REMARK       I    between atoms: N_8  and  C_9 
REMARK    3  A    between atoms: N_8  and  C_19 
REMARK    4  A    between atoms: C_9  and  C_10 
REMARK    5  A    between atoms: C_12  and  O_13 
REMARK    6  A    between atoms: C_19  and  C_20 
ROOT
HETATM    1  N   UNL     1      41.829 -14.215   2.644  1.00  0.00    -0.341 N 
HETATM    2  C   UNL     1      43.000 -14.950   2.434  1.00  0.00     0.254 C 
HETATM    3  O   UNL     1      43.867 -14.608   1.630  1.00  0.00    -0.267 OA
ENDROOT
BRANCH   1   4
HETATM    4  C   UNL     1      41.695 -12.951   1.907  1.00  0.00     0.170 C 
BRANCH   4   5
HETATM    5  C   UNL     1      40.735 -13.026   0.753  1.00  0.00     0.029 A 
HETATM    6  C   UNL     1      40.537 -14.056  -0.089  1.00  0.00     0.028 A 
HETATM    7  C   UNL     1      39.526 -13.991  -1.146  1.00  0.00    -0.008 A 
HETATM    8  C   UNL     1      38.748 -12.833  -1.286  1.00  0.00     0.051 A 
HETATM    9  C   UNL     1      39.318 -15.072  -2.006  1.00  0.00     0.014 A 
HETATM   10  C   UNL     1      37.758 -12.743  -2.280  1.00  0.00    -0.034 A 
HETATM   11  N   UNL     1      38.982 -11.766  -0.408  1.00  0.00    -0.322 N 
HETATM   12  C   UNL     1      36.900 -11.522  -2.444  1.00  0.00     0.050 C 
HETATM   13  C   UNL     1      37.564 -13.841  -3.132  1.00  0.00     0.009 A 
HETATM   14  C   UNL     1      38.339 -14.995  -2.997  1.00  0.00     0.002 A 
HETATM   15  C   UNL     1      39.921 -11.781   0.585  1.00  0.00     0.253 A 
HETATM   16  H   UNL     1      38.446 -10.913  -0.480  1.00  0.00     0.169 HD
HETATM   17  O   UNL     1      40.090 -10.800   1.305  1.00  0.00    -0.268 OA
ENDBRANCH   4   5
ENDBRANCH   1   4
BRANCH   1  18
HETATM   18  C   UNL     1      40.661 -14.676   3.414  1.00  0.00     0.158 C 
BRANCH  18  19
HETATM   19  C   UNL     1      40.313 -13.831   4.649  1.00  0.00     0.139 C 
HETATM   20  O   UNL     1      39.417 -12.764   4.264  1.00  0.00    -0.384 OA
HETATM   21  C   UNL     1      39.863 -11.551   4.890  1.00  0.00     0.168 C 
HETATM   22  C   UNL     1      40.860 -11.955   5.953  1.00  0.00     0.029 C 
HETATM   23  C   UNL     1      41.504 -13.162   5.319  1.00  0.00     0.035 C 
ENDBRANCH  18  19
ENDBRANCH   1  18
BRANCH   2  24
HETATM   24  C   UNL     1      43.256 -16.202   3.183  1.00  0.00     0.034 A 
HETATM   25  C   UNL     1      43.252 -17.406   2.463  1.00  0.00     0.053 A 
HETATM   26  C   UNL     1      43.538 -18.607   3.113  1.00  0.00     0.069 A 
HETATM   27  C   UNL     1      43.809 -18.597   4.484  1.00  0.00     0.037 A 
HETATM   28  C   UNL     1      43.847 -17.396   5.196  1.00  0.00     0.004 A 
HETATM   29  C   UNL     1      43.594 -16.193   4.540  1.00  0.00     0.017 A 
BRANCH  26  30
HETATM   30  O   UNL     1      43.573 -19.842   2.526  1.00  0.00    -0.356 OA
HETATM   31  C   UNL     1      43.872 -20.939   3.384  1.00  0.00     0.210 C 
ENDBRANCH  26  30
ENDBRANCH   2  24
TORSDOF 6
ENDMDL
MODEL 6
REMARK VINA RESULT:      -8.4      2.659      7.725
REMARK  6 active torsions:
REMARK  status: ('A' for Active; 'I' for Inactive)
REMARK    1  A    between atoms: C_6  and  C_7 
REMARK    2  A    between atoms: C_7  and  N_8 
REMARK       I    between atoms: N_8  and  C_9 
REMARK    3  A    between atoms: N_8  and  C_19 
REMARK    4  A    between atoms: C_9  and  C_10 
REMARK    5  A    between atoms: C_12  and  O_13 
REMARK    6  A    between atoms: C_19  and  C_20 
ROOT
HETATM    1  N   UNL     1      41.804 -13.495   3.706  1.00  0.00    -0.341 N 
HETATM    2  C   UNL     1      41.850 -12.253   4.345  1.00  0.00     0.254 C 
HETATM    3  O   UNL     1      42.904 -11.658   4.573  1.00  0.00    -0.267 OA
ENDROOT
BRANCH   1   4
HETATM    4  C   UNL     1      43.081 -14.052   3.241  1.00  0.00     0.170 C 
BRANCH   4   5
HETATM    5  C   UNL     1      43.193 -15.540   3.425  1.00  0.00     0.029 A 
HETATM    6  C   UNL     1      43.118 -16.495   2.480  1.00  0.00     0.028 A 
HETATM    7  C   UNL     1      43.290 -17.910   2.813  1.00  0.00    -0.008 A 
HETATM    8  C   UNL     1      43.541 -18.279   4.143  1.00  0.00     0.051 A 
HETATM    9  C   UNL     1      43.225 -18.893   1.824  1.00  0.00     0.014 A 
HETATM   10  C   UNL     1      43.727 -19.627   4.496  1.00  0.00    -0.034 A 
HETATM   11  N   UNL     1      43.600 -17.269   5.113  1.00  0.00    -0.322 N 
HETATM   12  C   UNL     1      44.009 -20.052   5.908  1.00  0.00     0.050 C 
HETATM   13  C   UNL     1      43.658 -20.599   3.485  1.00  0.00     0.009 A 
HETATM   14  C   UNL     1      43.408 -20.234   2.161  1.00  0.00     0.002 A 
HETATM   15  C   UNL     1      43.434 -15.940   4.847  1.00  0.00     0.253 A 
HETATM   16  H   UNL     1      43.772 -17.496   6.082  1.00  0.00     0.169 HD
HETATM   17  O   UNL     1      43.475 -15.107   5.751  1.00  0.00    -0.268 OA
ENDBRANCH   4   5
ENDBRANCH   1   4
BRANCH   1  18
HETATM   18  C   UNL     1      40.613 -14.357   3.604  1.00  0.00     0.158 C 
BRANCH  18  19
HETATM   19  C   UNL     1      39.807 -14.212   2.304  1.00  0.00     0.139 C 
HETATM   20  O   UNL     1      39.757 -15.485   1.625  1.00  0.00    -0.384 OA
HETATM   21  C   UNL     1      40.010 -15.264   0.229  1.00  0.00     0.168 C 
HETATM   22  C   UNL     1      39.878 -13.776  -0.003  1.00  0.00     0.029 C 
HETATM   23  C   UNL     1      40.385 -13.221   1.304  1.00  0.00     0.035 C 
ENDBRANCH  18  19
ENDBRANCH   1  18
BRANCH   2  24
HETATM   24  C   UNL     1      40.607 -11.579   4.788  1.00  0.00     0.034 A 
HETATM   25  C   UNL     1      40.262 -11.671   6.145  1.00  0.00     0.053 A 
HETATM   26  C   UNL     1      39.129 -11.013   6.621  1.00  0.00     0.069 A 
HETATM   27  C   UNL     1      38.337 -10.280   5.734  1.00  0.00     0.037 A 
HETATM   28  C   UNL     1      38.697 -10.158   4.390  1.00  0.00     0.004 A 
HETATM   29  C   UNL     1      39.848 -10.788   3.920  1.00  0.00     0.017 A 
BRANCH  26  30
HETATM   30  O   UNL     1      38.691 -11.018   7.918  1.00  0.00    -0.356 OA
HETATM   31  C   UNL     1      39.167  -9.963   8.748  1.00  0.00     0.210 C 
ENDBRANCH  26  30
ENDBRANCH   2  24
TORSDOF 6
ENDMDL
MODEL 7
REMARK VINA RESULT:      -8.1      2.724      7.271
REMARK  6 active torsions:
REMARK  status: ('A' for Active; 'I' for Inactive)
REMARK    1  A    between atoms: C_6  and  C_7 
REMARK    2  A    between atoms: C_7  and  N_8 
REMARK       I    between atoms: N_8  and  C_9 
REMARK    3  A    between atoms: N_8  and  C_19 
REMARK    4  A    between atoms: C_9  and  C_10 
REMARK    5  A    between atoms: C_12  and  O_13 
REMARK    6  A    between atoms: C_19  and  C_20 
ROOT
HETATM    1  N   UNL     1      42.465 -13.269   4.301  1.00  0.00    -0.341 N 
HETATM    2  C   UNL     1      42.388 -13.032   5.677  1.00  0.00     0.254 C 
HETATM    3  O   UNL     1      41.575 -13.599   6.407  1.00  0.00    -0.267 OA
ENDROOT
BRANCH   1   4
HETATM    4  C   UNL     1      41.568 -14.295   3.751  1.00  0.00     0.170 C 
BRANCH   4   5
HETATM    5  C   UNL     1      42.175 -15.670   3.715  1.00  0.00     0.029 A 
HETATM    6  C   UNL     1      42.636 -16.394   4.751  1.00  0.00     0.028 A 
HETATM    7  C   UNL     1      43.164 -17.746   4.559  1.00  0.00    -0.008 A 
HETATM    8  C   UNL     1      43.189 -18.300   3.271  1.00  0.00     0.051 A 
HETATM    9  C   UNL     1      43.627 -18.496   5.642  1.00  0.00     0.014 A 
HETATM   10  C   UNL     1      43.674 -19.601   3.052  1.00  0.00    -0.034 A 
HETATM   11  N   UNL     1      42.718 -17.522   2.204  1.00  0.00    -0.322 N 
HETATM   12  C   UNL     1      43.701 -20.225   1.687  1.00  0.00     0.050 C 
HETATM   13  C   UNL     1      44.134 -20.337   4.155  1.00  0.00     0.009 A 
HETATM   14  C   UNL     1      44.111 -19.788   5.439  1.00  0.00     0.002 A 
HETATM   15  C   UNL     1      42.228 -16.253   2.338  1.00  0.00     0.253 A 
HETATM   16  H   UNL     1      42.725 -17.883   1.262  1.00  0.00     0.169 HD
HETATM   17  O   UNL     1      41.853 -15.617   1.355  1.00  0.00    -0.268 OA
ENDBRANCH   4   5
ENDBRANCH   1   4
BRANCH   1  18
HETATM   18  C   UNL     1      43.250 -12.473   3.342  1.00  0.00     0.158 C 
BRANCH  18  19
HETATM   19  C   UNL     1      42.477 -11.350   2.633  1.00  0.00     0.139 C 
HETATM   20  O   UNL     1      41.567 -10.728   3.567  1.00  0.00    -0.384 OA
HETATM   21  C   UNL     1      40.301 -10.548   2.915  1.00  0.00     0.168 C 
HETATM   22  C   UNL     1      40.544 -10.759   1.437  1.00  0.00     0.029 C 
HETATM   23  C   UNL     1      41.628 -11.806   1.456  1.00  0.00     0.035 C 
ENDBRANCH  18  19
ENDBRANCH   1  18
BRANCH   2  24
HETATM   24  C   UNL     1      43.299 -12.066   6.333  1.00  0.00     0.034 A 
HETATM   25  C   UNL     1      42.755 -10.852   6.777  1.00  0.00     0.053 A 
HETATM   26  C   UNL     1      43.560  -9.931   7.447  1.00  0.00     0.069 A 
HETATM   27  C   UNL     1      44.911 -10.223   7.653  1.00  0.00     0.037 A 
HETATM   28  C   UNL     1      45.448 -11.445   7.243  1.00  0.00     0.004 A 
HETATM   29  C   UNL     1      44.636 -12.380   6.603  1.00  0.00     0.017 A 
BRANCH  26  30
HETATM   30  O   UNL     1      43.150  -8.720   7.934  1.00  0.00    -0.356 OA
HETATM   31  C   UNL     1      44.072  -8.035   8.776  1.00  0.00     0.210 C 
ENDBRANCH  26  30
ENDBRANCH   2  24
TORSDOF 6
ENDMDL
MODEL 8
REMARK VINA RESULT:      -8.1      3.086      7.007
REMARK  6 active torsions:
REMARK  status: ('A' for Active; 'I' for Inactive)
REMARK    1  A    between atoms: C_6  and  C_7 
REMARK    2  A    between atoms: C_7  and  N_8 
REMARK       I    between atoms: N_8  and  C_9 
REMARK    3  A    between atoms: N_8  and  C_19 
REMARK    4  A    between atoms: C_9  and  C_10 
REMARK    5  A    between atoms: C_12  and  O_13 
REMARK    6  A    between atoms: C_19  and  C_20 
ROOT
HETATM    1  N   UNL     1      41.317 -12.550   4.222  1.00  0.00    -0.341 N 
HETATM    2  C   UNL     1      42.185 -13.097   3.271  1.00  0.00     0.254 C 
HETATM    3  O   UNL     1      42.998 -12.419   2.643  1.00  0.00    -0.267 OA
ENDROOT
BRANCH   1   4
HETATM    4  C   UNL     1      41.458 -11.115   4.505  1.00  0.00     0.170 C 
BRANCH   4   5
HETATM    5  C   UNL     1      42.234 -10.822   5.759  1.00  0.00     0.029 A 
HETATM    6  C   UNL     1      43.558 -10.953   5.958  1.00  0.00     0.028 A 
HETATM    7  C   UNL     1      44.175 -10.582   7.233  1.00  0.00    -0.008 A 
HETATM    8  C   UNL     1      43.372 -10.079   8.268  1.00  0.00     0.051 A 
HETATM    9  C   UNL     1      45.552 -10.708   7.427  1.00  0.00     0.014 A 
HETATM   10  C   UNL     1      43.934  -9.699   9.499  1.00  0.00    -0.034 A 
HETATM   11  N   UNL     1      41.993  -9.965   8.043  1.00  0.00    -0.322 N 
HETATM   12  C   UNL     1      43.102  -9.145  10.619  1.00  0.00     0.050 C 
HETATM   13  C   UNL     1      45.320  -9.833   9.671  1.00  0.00     0.009 A 
HETATM   14  C   UNL     1      46.122 -10.334   8.643  1.00  0.00     0.002 A 
HETATM   15  C   UNL     1      41.376 -10.310   6.873  1.00  0.00     0.253 A 
HETATM   16  H   UNL     1      41.382  -9.613   8.765  1.00  0.00     0.169 HD
HETATM   17  O   UNL     1      40.157 -10.206   6.752  1.00  0.00    -0.268 OA
ENDBRANCH   4   5
ENDBRANCH   1   4
BRANCH   1  18
HETATM   18  C   UNL     1      40.180 -13.253   4.841  1.00  0.00     0.158 C 
BRANCH  18  19
HETATM   19  C   UNL     1      40.521 -14.078   6.092  1.00  0.00     0.139 C 
HETATM   20  O   UNL     1      41.875 -13.790   6.505  1.00  0.00    -0.384 OA
HETATM   21  C   UNL     1      42.524 -15.030   6.824  1.00  0.00     0.168 C 
HETATM   22  C   UNL     1      41.435 -16.073   6.931  1.00  0.00     0.029 C 
HETATM   23  C   UNL     1      40.449 -15.586   5.899  1.00  0.00     0.035 C 
ENDBRANCH  18  19
ENDBRANCH   1  18
BRANCH   2  24
HETATM   24  C   UNL     1      42.165 -14.547   2.969  1.00  0.00     0.034 A 
HETATM   25  C   UNL     1      43.157 -15.349   3.552  1.00  0.00     0.053 A 
HETATM   26  C   UNL     1      43.152 -16.727   3.339  1.00  0.00     0.069 A 
HETATM   27  C   UNL     1      42.164 -17.293   2.530  1.00  0.00     0.037 A 
HETATM   28  C   UNL     1      41.154 -16.502   1.977  1.00  0.00     0.004 A 
HETATM   29  C   UNL     1      41.140 -15.129   2.216  1.00  0.00     0.017 A 
BRANCH  26  30
HETATM   30  O   UNL     1      44.056 -17.616   3.854  1.00  0.00    -0.356 OA
HETATM   31  C   UNL     1      44.183 -18.856   3.165  1.00  0.00     0.210 C 
ENDBRANCH  26  30
ENDBRANCH   2  24
TORSDOF 6
ENDMDL
MODEL 9
REMARK VINA RESULT:      -7.8      2.766      7.609
REMARK  6 active torsions:
REMARK  status: ('A' for Active; 'I' for Inactive)
REMARK    1  A    between atoms: C_6  and  C_7 
REMARK    2  A    between atoms: C_7  and  N_8 
REMARK       I    between atoms: N_8  and  C_9 
REMARK    3  A    between atoms: N_8  and  C_19 
REMARK    4  A    between atoms: C_9  and  C_10 
REMARK    5  A    between atoms: C_12  and  O_13 
REMARK    6  A    between atoms: C_19  and  C_20 
ROOT
HETATM    1  N   UNL     1      41.974 -12.260   4.233  1.00  0.00    -0.341 N 
HETATM    2  C   UNL     1      43.099 -12.781   3.586  1.00  0.00     0.254 C 
HETATM    3  O   UNL     1      44.067 -12.088   3.272  1.00  0.00    -0.267 OA
ENDROOT
BRANCH   1   4
HETATM    4  C   UNL     1      42.014 -10.838   4.598  1.00  0.00     0.170 C 
BRANCH   4   5
HETATM    5  C   UNL     1      42.456 -10.591   6.014  1.00  0.00     0.029 A 
HETATM    6  C   UNL     1      43.701 -10.685   6.516  1.00  0.00     0.028 A 
HETATM    7  C   UNL     1      43.981 -10.368   7.918  1.00  0.00    -0.008 A 
HETATM    8  C   UNL     1      42.933  -9.959   8.755  1.00  0.00     0.051 A 
HETATM    9  C   UNL     1      45.278 -10.454   8.427  1.00  0.00     0.014 A 
HETATM   10  C   UNL     1      43.169  -9.633  10.102  1.00  0.00    -0.034 A 
HETATM   11  N   UNL     1      41.642  -9.883   8.214  1.00  0.00    -0.322 N 
HETATM   12  C   UNL     1      42.069  -9.178  11.018  1.00  0.00     0.050 C 
HETATM   13  C   UNL     1      44.480  -9.725  10.592  1.00  0.00     0.009 A 
HETATM   14  C   UNL     1      45.526 -10.133   9.762  1.00  0.00     0.002 A 
HETATM   15  C   UNL     1      41.336 -10.180   6.916  1.00  0.00     0.253 A 
HETATM   16  H   UNL     1      40.860  -9.599   8.787  1.00  0.00     0.169 HD
HETATM   17  O   UNL     1      40.176 -10.115   6.513  1.00  0.00    -0.268 OA
ENDBRANCH   4   5
ENDBRANCH   1   4
BRANCH   1  18
HETATM   18  C   UNL     1      40.702 -12.975   4.435  1.00  0.00     0.158 C 
BRANCH  18  19
HETATM   19  C   UNL     1      39.757 -12.987   3.223  1.00  0.00     0.139 C 
HETATM   20  O   UNL     1      39.768 -14.298   2.617  1.00  0.00    -0.384 OA
HETATM   21  C   UNL     1      39.853 -14.139   1.193  1.00  0.00     0.168 C 
HETATM   22  C   UNL     1      39.547 -12.686   0.903  1.00  0.00     0.029 C 
HETATM   23  C   UNL     1      40.125 -12.007   2.119  1.00  0.00     0.035 C 
ENDBRANCH  18  19
ENDBRANCH   1  18
BRANCH   2  24
HETATM   24  C   UNL     1      43.180 -14.219   3.241  1.00  0.00     0.034 A 
HETATM   25  C   UNL     1      43.117 -15.147   4.290  1.00  0.00     0.053 A 
HETATM   26  C   UNL     1      43.138 -16.514   4.013  1.00  0.00     0.069 A 
HETATM   27  C   UNL     1      43.240 -16.944   2.687  1.00  0.00     0.037 A 
HETATM   28  C   UNL     1      43.268 -16.022   1.638  1.00  0.00     0.004 A 
HETATM   29  C   UNL     1      43.214 -14.657   1.912  1.00  0.00     0.017 A 
BRANCH  26  30
HETATM   30  O   UNL     1      43.075 -17.516   4.942  1.00  0.00    -0.356 OA
HETATM   31  C   UNL     1      42.811 -17.116   6.283  1.00  0.00     0.210 C 
ENDBRANCH  26  30
ENDBRANCH   2  24
TORSDOF 6
ENDMDL
MODEL 10
REMARK VINA RESULT:      -7.8      1.812      2.168
REMARK  6 active torsions:
REMARK  status: ('A' for Active; 'I' for Inactive)
REMARK    1  A    between atoms: C_6  and  C_7 
REMARK    2  A    between atoms: C_7  and  N_8 
REMARK       I    between atoms: N_8  and  C_9 
REMARK    3  A    between atoms: N_8  and  C_19 
REMARK    4  A    between atoms: C_9  and  C_10 
REMARK    5  A    between atoms: C_12  and  O_13 
REMARK    6  A    between atoms: C_19  and  C_20 
ROOT
HETATM    1  N   UNL     1      41.622 -13.146   5.046  1.00  0.00    -0.341 N 
HETATM    2  C   UNL     1      41.155 -14.262   5.747  1.00  0.00     0.254 C 
HETATM    3  O   UNL     1      39.980 -14.388   6.094  1.00  0.00    -0.267 OA
ENDROOT
BRANCH   1   4
HETATM    4  C   UNL     1      40.627 -12.135   4.666  1.00  0.00     0.170 C 
BRANCH   4   5
HETATM    5  C   UNL     1      40.153 -12.260   3.245  1.00  0.00     0.029 A 
HETATM    6  C   UNL     1      40.401 -13.260   2.379  1.00  0.00     0.028 A 
HETATM    7  C   UNL     1      39.828 -13.259   1.032  1.00  0.00    -0.008 A 
HETATM    8  C   UNL     1      39.002 -12.197   0.634  1.00  0.00     0.051 A 
HETATM    9  C   UNL     1      40.079 -14.308   0.145  1.00  0.00     0.014 A 
HETATM   10  C   UNL     1      38.423 -12.171  -0.646  1.00  0.00    -0.034 A 
HETATM   11  N   UNL     1      38.770 -11.159   1.547  1.00  0.00    -0.322 N 
HETATM   12  C   UNL     1      37.525 -11.055  -1.095  1.00  0.00     0.050 C 
HETATM   13  C   UNL     1      38.688 -13.236  -1.521  1.00  0.00     0.009 A 
HETATM   14  C   UNL     1      39.510 -14.294  -1.129  1.00  0.00     0.002 A 
HETATM   15  C   UNL     1      39.293 -11.115   2.808  1.00  0.00     0.253 A 
HETATM   16  H   UNL     1      38.186 -10.374   1.296  1.00  0.00     0.169 HD
HETATM   17  O   UNL     1      39.067 -10.162   3.550  1.00  0.00    -0.268 OA
ENDBRANCH   4   5
ENDBRANCH   1   4
BRANCH   1  18
HETATM   18  C   UNL     1      43.039 -12.828   4.799  1.00  0.00     0.158 C 
BRANCH  18  19
HETATM   19  C   UNL     1      43.641 -11.756   5.721  1.00  0.00     0.139 C 
HETATM   20  O   UNL     1      44.884 -11.282   5.158  1.00  0.00    -0.384 OA
HETATM   21  C   UNL     1      45.857 -11.201   6.211  1.00  0.00     0.168 C 
HETATM   22  C   UNL     1      45.093 -11.309   7.512  1.00  0.00     0.029 C 
HETATM   23  C   UNL     1      43.969 -12.238   7.127  1.00  0.00     0.035 C 
ENDBRANCH  18  19
ENDBRANCH   1  18
BRANCH   2  24
HETATM   24  C   UNL     1      42.070 -15.367   6.114  1.00  0.00     0.034 A 
HETATM   25  C   UNL     1      42.460 -16.256   5.101  1.00  0.00     0.053 A 
HETATM   26  C   UNL     1      43.360 -17.283   5.383  1.00  0.00     0.069 A 
HETATM   27  C   UNL     1      43.852 -17.426   6.683  1.00  0.00     0.037 A 
HETATM   28  C   UNL     1      43.493 -16.522   7.686  1.00  0.00     0.004 A 
HETATM   29  C   UNL     1      42.619 -15.475   7.396  1.00  0.00     0.017 A 
BRANCH  26  30
HETATM   30  O   UNL     1      43.822 -18.207   4.486  1.00  0.00    -0.356 OA
HETATM   31  C   UNL     1      43.415 -18.028   3.133  1.00  0.00     0.210 C 
ENDBRANCH  26  30
ENDBRANCH   2  24
TORSDOF 6
ENDMDL
