MODEL 1
REMARK VINA RESULT:      -9.7      0.000      0.000
REMARK  6 active torsions:
REMARK  status: ('A' for Active; 'I' for Inactive)
REMARK       I    between atoms: N_2  and  C_3 
REMARK    1  A    between atoms: N_2  and  C_15 
REMARK       I    between atoms: C_3  and  N_4 
REMARK    2  A    between atoms: N_4  and  C_5 
REMARK    3  A    between atoms: C_15  and  C_16 
REMARK    4  A    between atoms: C_16  and  C_17 
REMARK    5  A    between atoms: C_17  and  C_18 
REMARK    6  A    between atoms: C_22  and  C_23 
ROOT
HETATM    1  C   UNL     1      44.052 -13.219   6.535  1.00  0.00     0.127 C 
ENDROOT
BRANCH   1   2
HETATM    2  N   UNL     1      42.716 -13.567   6.040  1.00  0.00    -0.338 N 
HETATM    3  C   UNL     1      41.748 -12.475   6.012  1.00  0.00     0.154 C 
HETATM    4  C   UNL     1      42.431 -14.660   5.221  1.00  0.00     0.322 C 
HETATM    5  N   UNL     1      43.299 -15.717   5.339  1.00  0.00    -0.309 N 
HETATM    6  O   UNL     1      41.508 -14.605   4.411  1.00  0.00    -0.247 OA
HETATM    7  H   UNL     1      43.851 -15.745   6.179  1.00  0.00     0.170 HD
BRANCH   5   8
HETATM    8  C   UNL     1      43.400 -16.852   4.504  1.00  0.00     0.036 A 
HETATM    9  C   UNL     1      43.660 -18.144   4.971  1.00  0.00     0.039 A 
HETATM   10  C   UNL     1      43.719 -19.186   4.057  1.00  0.00    -0.024 A 
HETATM   11  C   UNL     1      43.501 -18.978   2.706  1.00  0.00    -0.026 A 
HETATM   12  C   UNL     1      43.981 -20.628   4.297  1.00  0.00     0.207 C 
HETATM   13  C   UNL     1      43.584 -20.275   1.992  1.00  0.00     0.207 C 
HETATM   14  C   UNL     1      43.229 -17.714   2.218  1.00  0.00     0.012 A 
HETATM   15  O   UNL     1      44.111 -21.198   2.973  1.00  0.00    -0.382 OA
HETATM   16  C   UNL     1      43.189 -16.649   3.125  1.00  0.00     0.030 A 
ENDBRANCH   5   8
ENDBRANCH   1   2
BRANCH   1  17
HETATM   17  C   UNL     1      44.386 -11.723   6.428  1.00  0.00     0.026 C 
BRANCH  17  18
HETATM   18  C   UNL     1      45.088 -11.151   7.664  1.00  0.00     0.060 C 
BRANCH  18  19
HETATM   19  C   UNL     1      44.157 -10.599   8.686  1.00  0.00     0.030 A 
HETATM   20  N   UNL     1      42.887 -10.166   8.415  1.00  0.00    -0.282 N 
HETATM   21  H   UNL     1      42.385 -10.170   7.531  1.00  0.00     0.189 HD
HETATM   22  N   UNL     1      42.253  -9.665   9.487  1.00  0.00    -0.174 NA
HETATM   23  C   UNL     1      43.140  -9.745  10.491  1.00  0.00     0.089 A 
HETATM   24  C   UNL     1      44.341 -10.350  10.029  1.00  0.00     0.060 A 
BRANCH  23  25
HETATM   25  C   UNL     1      42.829  -9.236  11.833  1.00  0.00    -0.005 A 
HETATM   26  C   UNL     1      43.506  -8.127  12.369  1.00  0.00     0.017 A 
HETATM   27  C   UNL     1      43.183  -7.642  13.641  1.00  0.00     0.043 A 
HETATM   28  C   UNL     1      42.185  -8.263  14.382  1.00  0.00     0.116 A 
HETATM   29  F   UNL     1      41.877  -7.794  15.597  1.00  0.00    -0.206 F 
HETATM   30  C   UNL     1      41.502  -9.361  13.877  1.00  0.00     0.043 A 
HETATM   31  C   UNL     1      41.824  -9.845  12.606  1.00  0.00     0.017 A 
ENDBRANCH  23  25
ENDBRANCH  18  19
ENDBRANCH  17  18
ENDBRANCH   1  17
TORSDOF 6
ENDMDL
MODEL 2
REMARK VINA RESULT:      -9.5      4.532     11.415
REMARK  6 active torsions:
REMARK  status: ('A' for Active; 'I' for Inactive)
REMARK       I    between atoms: N_2  and  C_3 
REMARK    1  A    between atoms: N_2  and  C_15 
REMARK       I    between atoms: C_3  and  N_4 
REMARK    2  A    between atoms: N_4  and  C_5 
REMARK    3  A    between atoms: C_15  and  C_16 
REMARK    4  A    between atoms: C_16  and  C_17 
REMARK    5  A    between atoms: C_17  and  C_18 
REMARK    6  A    between atoms: C_22  and  C_23 
ROOT
HETATM    1  C   UNL     1      43.083 -10.006   7.434  1.00  0.00     0.127 C 
ENDROOT
BRANCH   1   2
HETATM    2  N   UNL     1      43.974 -10.644   8.408  1.00  0.00    -0.338 N 
HETATM    3  C   UNL     1      45.232 -11.158   7.874  1.00  0.00     0.154 C 
HETATM    4  C   UNL     1      43.940 -10.419   9.785  1.00  0.00     0.322 C 
HETATM    5  N   UNL     1      42.719 -10.034  10.280  1.00  0.00    -0.309 N 
HETATM    6  O   UNL     1      44.969 -10.493  10.452  1.00  0.00    -0.247 OA
HETATM    7  H   UNL     1      41.922 -10.238   9.702  1.00  0.00     0.170 HD
BRANCH   5   8
HETATM    8  C   UNL     1      42.426  -9.532  11.568  1.00  0.00     0.036 A 
HETATM    9  C   UNL     1      43.130  -8.490  12.178  1.00  0.00     0.039 A 
HETATM   10  C   UNL     1      42.739  -8.070  13.443  1.00  0.00    -0.024 A 
HETATM   11  C   UNL     1      41.658  -8.640  14.093  1.00  0.00    -0.026 A 
HETATM   12  C   UNL     1      43.319  -7.001  14.294  1.00  0.00     0.207 C 
HETATM   13  C   UNL     1      41.457  -7.958  15.395  1.00  0.00     0.207 C 
HETATM   14  C   UNL     1      40.937  -9.663  13.508  1.00  0.00     0.012 A 
HETATM   15  O   UNL     1      42.637  -7.137  15.563  1.00  0.00    -0.382 OA
HETATM   16  C   UNL     1      41.333 -10.113  12.244  1.00  0.00     0.030 A 
ENDBRANCH   5   8
ENDBRANCH   1   2
BRANCH   1  17
HETATM   17  C   UNL     1      43.006 -10.740   6.086  1.00  0.00     0.026 C 
BRANCH  17  18
HETATM   18  C   UNL     1      41.863 -11.755   5.992  1.00  0.00     0.060 C 
BRANCH  18  19
HETATM   19  C   UNL     1      42.318 -13.167   5.872  1.00  0.00     0.030 A 
HETATM   20  N   UNL     1      42.888 -13.880   6.892  1.00  0.00    -0.282 N 
HETATM   21  H   UNL     1      43.064 -13.594   7.852  1.00  0.00     0.189 HD
HETATM   22  N   UNL     1      43.262 -15.119   6.534  1.00  0.00    -0.174 NA
HETATM   23  C   UNL     1      42.953 -15.218   5.232  1.00  0.00     0.089 A 
HETATM   24  C   UNL     1      42.335 -14.017   4.787  1.00  0.00     0.060 A 
BRANCH  23  25
HETATM   25  C   UNL     1      43.265 -16.427   4.458  1.00  0.00    -0.005 A 
HETATM   26  C   UNL     1      42.736 -16.628   3.172  1.00  0.00     0.017 A 
HETATM   27  C   UNL     1      43.060 -17.775   2.440  1.00  0.00     0.043 A 
HETATM   28  C   UNL     1      43.911 -18.725   2.990  1.00  0.00     0.116 A 
HETATM   29  F   UNL     1      44.221 -19.821   2.284  1.00  0.00    -0.206 F 
HETATM   30  C   UNL     1      44.446 -18.553   4.258  1.00  0.00     0.043 A 
HETATM   31  C   UNL     1      44.123 -17.406   4.990  1.00  0.00     0.017 A 
ENDBRANCH  23  25
ENDBRANCH  18  19
ENDBRANCH  17  18
ENDBRANCH   1  17
TORSDOF 6
ENDMDL
MODEL 3
REMARK VINA RESULT:      -9.4      4.565     11.526
REMARK  6 active torsions:
REMARK  status: ('A' for Active; 'I' for Inactive)
REMARK       I    between atoms: N_2  and  C_3 
REMARK    1  A    between atoms: N_2  and  C_15 
REMARK       I    between atoms: C_3  and  N_4 
REMARK    2  A    between atoms: N_4  and  C_5 
REMARK    3  A    between atoms: C_15  and  C_16 
REMARK    4  A    between atoms: C_16  and  C_17 
REMARK    5  A    between atoms: C_17  and  C_18 
REMARK    6  A    between atoms: C_22  and  C_23 
ROOT
HETATM    1  C   UNL     1      43.067 -11.052   6.446  1.00  0.00     0.127 C 
ENDROOT
BRANCH   1   2
HETATM    2  N   UNL     1      44.270 -11.197   7.273  1.00  0.00    -0.338 N 
HETATM    3  C   UNL     1      45.498 -11.520   6.553  1.00  0.00     0.154 C 
HETATM    4  C   UNL     1      44.433 -10.646   8.545  1.00  0.00     0.322 C 
HETATM    5  N   UNL     1      43.269 -10.445   9.244  1.00  0.00    -0.309 N 
HETATM    6  O   UNL     1      45.547 -10.307   8.936  1.00  0.00    -0.247 OA
HETATM    7  H   UNL     1      42.469 -10.969   8.933  1.00  0.00     0.170 HD
BRANCH   5   8
HETATM    8  C   UNL     1      43.094  -9.717  10.442  1.00  0.00     0.036 A 
HETATM    9  C   UNL     1      42.868  -8.338  10.492  1.00  0.00     0.039 A 
HETATM   10  C   UNL     1      42.693  -7.734  11.729  1.00  0.00    -0.024 A 
HETATM   11  C   UNL     1      42.711  -8.468  12.903  1.00  0.00    -0.026 A 
HETATM   12  C   UNL     1      42.447  -6.305  12.045  1.00  0.00     0.207 C 
HETATM   13  C   UNL     1      42.452  -7.563  14.048  1.00  0.00     0.207 C 
HETATM   14  C   UNL     1      42.918  -9.834  12.882  1.00  0.00     0.012 A 
HETATM   15  O   UNL     1      42.538  -6.231  13.489  1.00  0.00    -0.382 OA
HETATM   16  C   UNL     1      43.120 -10.454  11.644  1.00  0.00     0.030 A 
ENDBRANCH   5   8
ENDBRANCH   1   2
BRANCH   1  17
HETATM   17  C   UNL     1      43.260 -11.487   4.985  1.00  0.00     0.026 C 
BRANCH  17  18
HETATM   18  C   UNL     1      42.154 -12.406   4.456  1.00  0.00     0.060 C 
BRANCH  18  19
HETATM   19  C   UNL     1      42.657 -13.669   3.850  1.00  0.00     0.030 A 
HETATM   20  N   UNL     1      43.132 -13.772   2.572  1.00  0.00    -0.282 N 
HETATM   21  H   UNL     1      43.240 -13.045   1.869  1.00  0.00     0.189 HD
HETATM   22  N   UNL     1      43.485 -15.022   2.231  1.00  0.00    -0.174 NA
HETATM   23  C   UNL     1      43.210 -15.772   3.310  1.00  0.00     0.089 A 
HETATM   24  C   UNL     1      42.710 -14.950   4.357  1.00  0.00     0.060 A 
BRANCH  23  25
HETATM   25  C   UNL     1      43.413 -17.227   3.305  1.00  0.00    -0.005 A 
HETATM   26  C   UNL     1      42.990 -18.020   2.225  1.00  0.00     0.017 A 
HETATM   27  C   UNL     1      43.209 -19.401   2.227  1.00  0.00     0.043 A 
HETATM   28  C   UNL     1      43.850 -19.995   3.307  1.00  0.00     0.116 A 
HETATM   29  F   UNL     1      44.061 -21.318   3.304  1.00  0.00    -0.206 F 
HETATM   30  C   UNL     1      44.276 -19.235   4.387  1.00  0.00     0.043 A 
HETATM   31  C   UNL     1      44.057 -17.855   4.386  1.00  0.00     0.017 A 
ENDBRANCH  23  25
ENDBRANCH  18  19
ENDBRANCH  17  18
ENDBRANCH   1  17
TORSDOF 6
ENDMDL
MODEL 4
REMARK VINA RESULT:      -9.2      1.848      2.909
REMARK  6 active torsions:
REMARK  status: ('A' for Active; 'I' for Inactive)
REMARK       I    between atoms: N_2  and  C_3 
REMARK    1  A    between atoms: N_2  and  C_15 
REMARK       I    between atoms: C_3  and  N_4 
REMARK    2  A    between atoms: N_4  and  C_5 
REMARK    3  A    between atoms: C_15  and  C_16 
REMARK    4  A    between atoms: C_16  and  C_17 
REMARK    5  A    between atoms: C_17  and  C_18 
REMARK    6  A    between atoms: C_22  and  C_23 
ROOT
HETATM    1  C   UNL     1      42.318 -12.875   2.432  1.00  0.00     0.127 C 
ENDROOT
BRANCH   1   2
HETATM    2  N   UNL     1      41.428 -13.530   3.395  1.00  0.00    -0.338 N 
HETATM    3  C   UNL     1      40.128 -12.896   3.589  1.00  0.00     0.154 C 
HETATM    4  C   UNL     1      41.519 -14.868   3.782  1.00  0.00     0.322 C 
HETATM    5  N   UNL     1      42.774 -15.415   3.687  1.00  0.00    -0.309 N 
HETATM    6  O   UNL     1      40.510 -15.493   4.100  1.00  0.00    -0.247 OA
HETATM    7  H   UNL     1      43.540 -14.765   3.650  1.00  0.00     0.170 HD
BRANCH   5   8
HETATM    8  C   UNL     1      43.136 -16.777   3.794  1.00  0.00     0.036 A 
HETATM    9  C   UNL     1      43.157 -17.666   2.716  1.00  0.00     0.039 A 
HETATM   10  C   UNL     1      43.547 -18.980   2.940  1.00  0.00    -0.024 A 
HETATM   11  C   UNL     1      43.937 -19.415   4.195  1.00  0.00    -0.026 A 
HETATM   12  C   UNL     1      43.648 -20.103   1.975  1.00  0.00     0.207 C 
HETATM   13  C   UNL     1      44.337 -20.841   4.114  1.00  0.00     0.207 C 
HETATM   14  C   UNL     1      43.938 -18.555   5.276  1.00  0.00     0.012 A 
HETATM   15  O   UNL     1      43.915 -21.265   2.797  1.00  0.00    -0.382 OA
HETATM   16  C   UNL     1      43.525 -17.234   5.070  1.00  0.00     0.030 A 
ENDBRANCH   5   8
ENDBRANCH   1   2
BRANCH   1  17
HETATM   17  C   UNL     1      42.900 -11.543   2.928  1.00  0.00     0.026 C 
BRANCH  17  18
HETATM   18  C   UNL     1      43.908 -11.689   4.073  1.00  0.00     0.060 C 
BRANCH  18  19
HETATM   19  C   UNL     1      43.426 -11.148   5.374  1.00  0.00     0.030 A 
HETATM   20  N   UNL     1      42.127 -10.803   5.629  1.00  0.00    -0.282 N 
HETATM   21  H   UNL     1      41.314 -10.875   5.021  1.00  0.00     0.189 HD
HETATM   22  N   UNL     1      41.940 -10.293   6.856  1.00  0.00    -0.174 NA
HETATM   23  C   UNL     1      43.158 -10.277   7.420  1.00  0.00     0.089 A 
HETATM   24  C   UNL     1      44.114 -10.831   6.525  1.00  0.00     0.060 A 
BRANCH  23  25
HETATM   25  C   UNL     1      43.374  -9.729   8.766  1.00  0.00    -0.005 A 
HETATM   26  C   UNL     1      43.068  -8.391   9.068  1.00  0.00     0.017 A 
HETATM   27  C   UNL     1      43.260  -7.891  10.359  1.00  0.00     0.043 A 
HETATM   28  C   UNL     1      43.759  -8.723  11.354  1.00  0.00     0.116 A 
HETATM   29  F   UNL     1      43.938  -8.241  12.590  1.00  0.00    -0.206 F 
HETATM   30  C   UNL     1      44.070 -10.048  11.082  1.00  0.00     0.043 A 
HETATM   31  C   UNL     1      43.878 -10.549   9.791  1.00  0.00     0.017 A 
ENDBRANCH  23  25
ENDBRANCH  18  19
ENDBRANCH  17  18
ENDBRANCH   1  17
TORSDOF 6
ENDMDL
MODEL 5
REMARK VINA RESULT:      -9.1      5.840      9.386
REMARK  6 active torsions:
REMARK  status: ('A' for Active; 'I' for Inactive)
REMARK       I    between atoms: N_2  and  C_3 
REMARK    1  A    between atoms: N_2  and  C_15 
REMARK       I    between atoms: C_3  and  N_4 
REMARK    2  A    between atoms: N_4  and  C_5 
REMARK    3  A    between atoms: C_15  and  C_16 
REMARK    4  A    between atoms: C_16  and  C_17 
REMARK    5  A    between atoms: C_17  and  C_18 
REMARK    6  A    between atoms: C_22  and  C_23 
ROOT
HETATM    1  C   UNL     1      39.753 -10.982   0.764  1.00  0.00     0.127 C 
ENDROOT
BRANCH   1   2
HETATM    2  N   UNL     1      39.305 -10.478   2.067  1.00  0.00    -0.338 N 
HETATM    3  C   UNL     1      38.105  -9.648   2.045  1.00  0.00     0.154 C 
HETATM    4  C   UNL     1      39.632 -11.051   3.297  1.00  0.00     0.322 C 
HETATM    5  N   UNL     1      40.817 -11.743   3.319  1.00  0.00    -0.309 N 
HETATM    6  O   UNL     1      38.848 -10.983   4.241  1.00  0.00    -0.247 OA
HETATM    7  H   UNL     1      41.468 -11.530   2.583  1.00  0.00     0.170 HD
BRANCH   5   8
HETATM    8  C   UNL     1      41.301 -12.598   4.334  1.00  0.00     0.036 A 
HETATM    9  C   UNL     1      40.629 -13.741   4.779  1.00  0.00     0.039 A 
HETATM   10  C   UNL     1      41.213 -14.515   5.772  1.00  0.00    -0.024 A 
HETATM   11  C   UNL     1      42.449 -14.195   6.307  1.00  0.00    -0.026 A 
HETATM   12  C   UNL     1      40.705 -15.756   6.410  1.00  0.00     0.207 C 
HETATM   13  C   UNL     1      42.828 -15.223   7.307  1.00  0.00     0.207 C 
HETATM   14  C   UNL     1      43.141 -13.080   5.877  1.00  0.00     0.012 A 
HETATM   15  O   UNL     1      41.629 -16.010   7.496  1.00  0.00    -0.382 OA
HETATM   16  C   UNL     1      42.555 -12.276   4.893  1.00  0.00     0.030 A 
ENDBRANCH   5   8
ENDBRANCH   1   2
BRANCH   1  17
HETATM   17  C   UNL     1      39.371 -12.447   0.498  1.00  0.00     0.026 C 
BRANCH  17  18
HETATM   18  C   UNL     1      40.531 -13.315   0.002  1.00  0.00     0.060 C 
BRANCH  18  19
HETATM   19  C   UNL     1      40.785 -14.519   0.840  1.00  0.00     0.030 A 
HETATM   20  N   UNL     1      39.814 -15.200   1.522  1.00  0.00    -0.282 N 
HETATM   21  H   UNL     1      38.812 -15.027   1.551  1.00  0.00     0.189 HD
HETATM   22  N   UNL     1      40.288 -16.224   2.248  1.00  0.00    -0.174 NA
HETATM   23  C   UNL     1      41.617 -16.204   2.061  1.00  0.00     0.089 A 
HETATM   24  C   UNL     1      41.964 -15.159   1.161  1.00  0.00     0.060 A 
BRANCH  23  25
HETATM   25  C   UNL     1      42.504 -17.154   2.745  1.00  0.00    -0.005 A 
HETATM   26  C   UNL     1      42.732 -18.442   2.230  1.00  0.00     0.017 A 
HETATM   27  C   UNL     1      43.596 -19.327   2.883  1.00  0.00     0.043 A 
HETATM   28  C   UNL     1      44.234 -18.930   4.051  1.00  0.00     0.116 A 
HETATM   29  F   UNL     1      45.063 -19.780   4.671  1.00  0.00    -0.206 F 
HETATM   30  C   UNL     1      44.026 -17.665   4.582  1.00  0.00     0.043 A 
HETATM   31  C   UNL     1      43.163 -16.780   3.930  1.00  0.00     0.017 A 
ENDBRANCH  23  25
ENDBRANCH  18  19
ENDBRANCH  17  18
ENDBRANCH   1  17
TORSDOF 6
ENDMDL
MODEL 6
REMARK VINA RESULT:      -9.1      5.917      9.143
REMARK  6 active torsions:
REMARK  status: ('A' for Active; 'I' for Inactive)
REMARK       I    between atoms: N_2  and  C_3 
REMARK    1  A    between atoms: N_2  and  C_15 
REMARK       I    between atoms: C_3  and  N_4 
REMARK    2  A    between atoms: N_4  and  C_5 
REMARK    3  A    between atoms: C_15  and  C_16 
REMARK    4  A    between atoms: C_16  and  C_17 
REMARK    5  A    between atoms: C_17  and  C_18 
REMARK    6  A    between atoms: C_22  and  C_23 
ROOT
HETATM    1  C   UNL     1      43.403 -11.275   3.895  1.00  0.00     0.127 C 
ENDROOT
BRANCH   1   2
HETATM    2  N   UNL     1      42.049 -10.748   3.692  1.00  0.00    -0.338 N 
HETATM    3  C   UNL     1      41.764  -9.470   4.338  1.00  0.00     0.154 C 
HETATM    4  C   UNL     1      41.207 -11.102   2.637  1.00  0.00     0.322 C 
HETATM    5  N   UNL     1      41.429 -12.350   2.111  1.00  0.00    -0.309 N 
HETATM    6  O   UNL     1      40.396 -10.293   2.192  1.00  0.00    -0.247 OA
HETATM    7  H   UNL     1      41.935 -12.993   2.695  1.00  0.00     0.170 HD
BRANCH   5   8
HETATM    8  C   UNL     1      40.898 -12.895   0.920  1.00  0.00     0.036 A 
HETATM    9  C   UNL     1      40.967 -12.264  -0.325  1.00  0.00     0.039 A 
HETATM   10  C   UNL     1      40.423 -12.905  -1.430  1.00  0.00    -0.024 A 
HETATM   11  C   UNL     1      39.843 -14.158  -1.327  1.00  0.00    -0.026 A 
HETATM   12  C   UNL     1      40.367 -12.450  -2.842  1.00  0.00     0.207 C 
HETATM   13  C   UNL     1      39.397 -14.600  -2.671  1.00  0.00     0.207 C 
HETATM   14  C   UNL     1      39.772 -14.810  -0.111  1.00  0.00     0.012 A 
HETATM   15  O   UNL     1      39.527 -13.425  -3.505  1.00  0.00    -0.382 OA
HETATM   16  C   UNL     1      40.295 -14.166   1.016  1.00  0.00     0.030 A 
ENDBRANCH   5   8
ENDBRANCH   1   2
BRANCH   1  17
HETATM   17  C   UNL     1      43.778 -11.474   5.372  1.00  0.00     0.026 C 
BRANCH  17  18
HETATM   18  C   UNL     1      42.778 -12.324   6.161  1.00  0.00     0.060 C 
BRANCH  18  19
HETATM   19  C   UNL     1      42.901 -13.787   5.913  1.00  0.00     0.030 A 
HETATM   20  N   UNL     1      43.076 -14.721   6.897  1.00  0.00    -0.282 N 
HETATM   21  H   UNL     1      43.124 -14.589   7.904  1.00  0.00     0.189 HD
HETATM   22  N   UNL     1      43.209 -15.972   6.428  1.00  0.00    -0.174 NA
HETATM   23  C   UNL     1      43.146 -15.857   5.093  1.00  0.00     0.089 A 
HETATM   24  C   UNL     1      42.928 -14.499   4.733  1.00  0.00     0.060 A 
BRANCH  23  25
HETATM   25  C   UNL     1      43.308 -17.022   4.213  1.00  0.00    -0.005 A 
HETATM   26  C   UNL     1      44.109 -18.115   4.588  1.00  0.00     0.017 A 
HETATM   27  C   UNL     1      44.237 -19.225   3.748  1.00  0.00     0.043 A 
HETATM   28  C   UNL     1      43.567 -19.249   2.530  1.00  0.00     0.116 A 
HETATM   29  F   UNL     1      43.689 -20.316   1.731  1.00  0.00    -0.206 F 
HETATM   30  C   UNL     1      42.771 -18.183   2.135  1.00  0.00     0.043 A 
HETATM   31  C   UNL     1      42.643 -17.073   2.975  1.00  0.00     0.017 A 
ENDBRANCH  23  25
ENDBRANCH  18  19
ENDBRANCH  17  18
ENDBRANCH   1  17
TORSDOF 6
ENDMDL
MODEL 7
REMARK VINA RESULT:      -9.0      5.310      9.732
REMARK  6 active torsions:
REMARK  status: ('A' for Active; 'I' for Inactive)
REMARK       I    between atoms: N_2  and  C_3 
REMARK    1  A    between atoms: N_2  and  C_15 
REMARK       I    between atoms: C_3  and  N_4 
REMARK    2  A    between atoms: N_4  and  C_5 
REMARK    3  A    between atoms: C_15  and  C_16 
REMARK    4  A    between atoms: C_16  and  C_17 
REMARK    5  A    between atoms: C_17  and  C_18 
REMARK    6  A    between atoms: C_22  and  C_23 
ROOT
HETATM    1  C   UNL     1      39.825 -11.026   0.091  1.00  0.00     0.127 C 
ENDROOT
BRANCH   1   2
HETATM    2  N   UNL     1      39.070 -11.042   1.348  1.00  0.00    -0.338 N 
HETATM    3  C   UNL     1      37.628 -11.227   1.218  1.00  0.00     0.154 C 
HETATM    4  C   UNL     1      39.614 -11.334   2.600  1.00  0.00     0.322 C 
HETATM    5  N   UNL     1      40.952 -11.057   2.730  1.00  0.00    -0.309 N 
HETATM    6  O   UNL     1      38.928 -11.873   3.465  1.00  0.00    -0.247 OA
HETATM    7  H   UNL     1      41.338 -10.413   2.061  1.00  0.00     0.170 HD
BRANCH   5   8
HETATM    8  C   UNL     1      41.817 -11.438   3.780  1.00  0.00     0.036 A 
HETATM    9  C   UNL     1      42.178 -10.597   4.837  1.00  0.00     0.039 A 
HETATM   10  C   UNL     1      43.024 -11.088   5.822  1.00  0.00    -0.024 A 
HETATM   11  C   UNL     1      43.490 -12.391   5.793  1.00  0.00    -0.026 A 
HETATM   12  C   UNL     1      43.551 -10.403   7.029  1.00  0.00     0.207 C 
HETATM   13  C   UNL     1      44.328 -12.637   6.992  1.00  0.00     0.207 C 
HETATM   14  C   UNL     1      43.138 -13.248   4.768  1.00  0.00     0.012 A 
HETATM   15  O   UNL     1      44.521 -11.328   7.577  1.00  0.00    -0.382 OA
HETATM   16  C   UNL     1      42.306 -12.760   3.754  1.00  0.00     0.030 A 
ENDBRANCH   5   8
ENDBRANCH   1   2
BRANCH   1  17
HETATM   17  C   UNL     1      40.590 -12.327  -0.193  1.00  0.00     0.026 C 
BRANCH  17  18
HETATM   18  C   UNL     1      39.723 -13.589  -0.125  1.00  0.00     0.060 C 
BRANCH  18  19
HETATM   19  C   UNL     1      40.139 -14.551   0.932  1.00  0.00     0.030 A 
HETATM   20  N   UNL     1      39.428 -14.792   2.075  1.00  0.00    -0.282 N 
HETATM   21  H   UNL     1      38.537 -14.400   2.369  1.00  0.00     0.189 HD
HETATM   22  N   UNL     1      40.025 -15.664   2.903  1.00  0.00    -0.174 NA
HETATM   23  C   UNL     1      41.179 -15.990   2.299  1.00  0.00     0.089 A 
HETATM   24  C   UNL     1      41.274 -15.327   1.045  1.00  0.00     0.060 A 
BRANCH  23  25
HETATM   25  C   UNL     1      42.148 -16.895   2.931  1.00  0.00    -0.005 A 
HETATM   26  C   UNL     1      42.751 -17.939   2.209  1.00  0.00     0.017 A 
HETATM   27  C   UNL     1      43.687 -18.779   2.819  1.00  0.00     0.043 A 
HETATM   28  C   UNL     1      44.025 -18.580   4.153  1.00  0.00     0.116 A 
HETATM   29  F   UNL     1      44.924 -19.385   4.732  1.00  0.00    -0.206 F 
HETATM   30  C   UNL     1      43.443 -17.558   4.889  1.00  0.00     0.043 A 
HETATM   31  C   UNL     1      42.508 -16.718   4.279  1.00  0.00     0.017 A 
ENDBRANCH  23  25
ENDBRANCH  18  19
ENDBRANCH  17  18
ENDBRANCH   1  17
TORSDOF 6
ENDMDL
MODEL 8
REMARK VINA RESULT:      -8.9      1.601      2.361
REMARK  6 active torsions:
REMARK  status: ('A' for Active; 'I' for Inactive)
REMARK       I    between atoms: N_2  and  C_3 
REMARK    1  A    between atoms: N_2  and  C_15 
REMARK       I    between atoms: C_3  and  N_4 
REMARK    2  A    between atoms: N_4  and  C_5 
REMARK    3  A    between atoms: C_15  and  C_16 
REMARK    4  A    between atoms: C_16  and  C_17 
REMARK    5  A    between atoms: C_17  and  C_18 
REMARK    6  A    between atoms: C_22  and  C_23 
ROOT
HETATM    1  C   UNL     1      41.674 -12.779   4.529  1.00  0.00     0.127 C 
ENDROOT
BRANCH   1   2
HETATM    2  N   UNL     1      42.101 -13.182   3.185  1.00  0.00    -0.338 N 
HETATM    3  C   UNL     1      42.422 -12.091   2.269  1.00  0.00     0.154 C 
HETATM    4  C   UNL     1      42.632 -14.431   2.860  1.00  0.00     0.322 C 
HETATM    5  N   UNL     1      42.236 -15.460   3.676  1.00  0.00    -0.309 N 
HETATM    6  O   UNL     1      43.453 -14.539   1.952  1.00  0.00    -0.247 OA
HETATM    7  H   UNL     1      41.401 -15.303   4.214  1.00  0.00     0.170 HD
BRANCH   5   8
HETATM    8  C   UNL     1      42.762 -16.771   3.735  1.00  0.00     0.036 A 
HETATM    9  C   UNL     1      42.696 -17.686   2.681  1.00  0.00     0.039 A 
HETATM   10  C   UNL     1      43.264 -18.942   2.850  1.00  0.00    -0.024 A 
HETATM   11  C   UNL     1      43.912 -19.291   4.022  1.00  0.00    -0.026 A 
HETATM   12  C   UNL     1      43.323 -20.077   1.896  1.00  0.00     0.207 C 
HETATM   13  C   UNL     1      44.451 -20.667   3.889  1.00  0.00     0.207 C 
HETATM   14  C   UNL     1      44.004 -18.402   5.075  1.00  0.00     0.012 A 
HETATM   15  O   UNL     1      43.858 -21.176   2.672  1.00  0.00    -0.382 OA
HETATM   16  C   UNL     1      43.415 -17.141   4.929  1.00  0.00     0.030 A 
ENDBRANCH   5   8
ENDBRANCH   1   2
BRANCH   1  17
HETATM   17  C   UNL     1      42.818 -12.713   5.552  1.00  0.00     0.026 C 
BRANCH  17  18
HETATM   18  C   UNL     1      43.448 -11.324   5.696  1.00  0.00     0.060 C 
BRANCH  18  19
HETATM   19  C   UNL     1      43.782 -10.955   7.099  1.00  0.00     0.030 A 
HETATM   20  N   UNL     1      44.942 -11.309   7.732  1.00  0.00    -0.282 N 
HETATM   21  H   UNL     1      45.736 -11.829   7.368  1.00  0.00     0.189 HD
HETATM   22  N   UNL     1      44.999 -10.904   9.011  1.00  0.00    -0.174 NA
HETATM   23  C   UNL     1      43.829 -10.286   9.237  1.00  0.00     0.089 A 
HETATM   24  C   UNL     1      43.047 -10.278   8.049  1.00  0.00     0.060 A 
BRANCH  23  25
HETATM   25  C   UNL     1      43.489  -9.745  10.560  1.00  0.00    -0.005 A 
HETATM   26  C   UNL     1      43.178 -10.593  11.637  1.00  0.00     0.017 A 
HETATM   27  C   UNL     1      42.877 -10.063  12.896  1.00  0.00     0.043 A 
HETATM   28  C   UNL     1      42.884  -8.686  13.083  1.00  0.00     0.116 A 
HETATM   29  F   UNL     1      42.598  -8.183  14.291  1.00  0.00    -0.206 F 
HETATM   30  C   UNL     1      43.186  -7.827  12.036  1.00  0.00     0.043 A 
HETATM   31  C   UNL     1      43.488  -8.356  10.778  1.00  0.00     0.017 A 
ENDBRANCH  23  25
ENDBRANCH  18  19
ENDBRANCH  17  18
ENDBRANCH   1  17
TORSDOF 6
ENDMDL
MODEL 9
REMARK VINA RESULT:      -8.8      4.807     11.320
REMARK  6 active torsions:
REMARK  status: ('A' for Active; 'I' for Inactive)
REMARK       I    between atoms: N_2  and  C_3 
REMARK    1  A    between atoms: N_2  and  C_15 
REMARK       I    between atoms: C_3  and  N_4 
REMARK    2  A    between atoms: N_4  and  C_5 
REMARK    3  A    between atoms: C_15  and  C_16 
REMARK    4  A    between atoms: C_16  and  C_17 
REMARK    5  A    between atoms: C_17  and  C_18 
REMARK    6  A    between atoms: C_22  and  C_23 
ROOT
HETATM    1  C   UNL     1      41.901 -11.022   6.398  1.00  0.00     0.127 C 
ENDROOT
BRANCH   1   2
HETATM    2  N   UNL     1      41.960  -9.569   6.584  1.00  0.00    -0.338 N 
HETATM    3  C   UNL     1      41.530  -8.767   5.443  1.00  0.00     0.154 C 
HETATM    4  C   UNL     1      41.957  -8.923   7.821  1.00  0.00     0.322 C 
HETATM    5  N   UNL     1      42.461  -9.662   8.863  1.00  0.00    -0.309 N 
HETATM    6  O   UNL     1      41.457  -7.807   7.938  1.00  0.00    -0.247 OA
HETATM    7  H   UNL     1      43.046 -10.441   8.611  1.00  0.00     0.170 HD
BRANCH   5   8
HETATM    8  C   UNL     1      42.391  -9.372  10.244  1.00  0.00     0.036 A 
HETATM    9  C   UNL     1      41.310  -9.719  11.060  1.00  0.00     0.039 A 
HETATM   10  C   UNL     1      41.361  -9.396  12.409  1.00  0.00    -0.024 A 
HETATM   11  C   UNL     1      42.464  -8.767  12.962  1.00  0.00    -0.026 A 
HETATM   12  C   UNL     1      40.354  -9.647  13.470  1.00  0.00     0.207 C 
HETATM   13  C   UNL     1      42.248  -8.595  14.419  1.00  0.00     0.207 C 
HETATM   14  C   UNL     1      43.551  -8.425  12.181  1.00  0.00     0.012 A 
HETATM   15  O   UNL     1      40.856  -8.932  14.624  1.00  0.00    -0.382 OA
HETATM   16  C   UNL     1      43.505  -8.723  10.815  1.00  0.00     0.030 A 
ENDBRANCH   5   8
ENDBRANCH   1   2
BRANCH   1  17
HETATM   17  C   UNL     1      43.110 -11.604   5.649  1.00  0.00     0.026 C 
BRANCH  17  18
HETATM   18  C   UNL     1      42.744 -12.369   4.373  1.00  0.00     0.060 C 
BRANCH  18  19
HETATM   19  C   UNL     1      42.757 -13.850   4.533  1.00  0.00     0.030 A 
HETATM   20  N   UNL     1      42.504 -14.498   5.711  1.00  0.00    -0.282 N 
HETATM   21  H   UNL     1      42.254 -14.106   6.616  1.00  0.00     0.189 HD
HETATM   22  N   UNL     1      42.620 -15.832   5.623  1.00  0.00    -0.174 NA
HETATM   23  C   UNL     1      42.987 -16.071   4.354  1.00  0.00     0.089 A 
HETATM   24  C   UNL     1      43.059 -14.848   3.632  1.00  0.00     0.060 A 
BRANCH  23  25
HETATM   25  C   UNL     1      43.268 -17.432   3.879  1.00  0.00    -0.005 A 
HETATM   26  C   UNL     1      42.894 -17.848   2.589  1.00  0.00     0.017 A 
HETATM   27  C   UNL     1      43.188 -19.140   2.144  1.00  0.00     0.043 A 
HETATM   28  C   UNL     1      43.855 -20.023   2.985  1.00  0.00     0.116 A 
HETATM   29  F   UNL     1      44.137 -21.259   2.554  1.00  0.00    -0.206 F 
HETATM   30  C   UNL     1      44.234 -19.639   4.263  1.00  0.00     0.043 A 
HETATM   31  C   UNL     1      43.941 -18.347   4.708  1.00  0.00     0.017 A 
ENDBRANCH  23  25
ENDBRANCH  18  19
ENDBRANCH  17  18
ENDBRANCH   1  17
TORSDOF 6
ENDMDL
MODEL 10
REMARK VINA RESULT:      -8.7      6.114      9.519
REMARK  6 active torsions:
REMARK  status: ('A' for Active; 'I' for Inactive)
REMARK       I    between atoms: N_2  and  C_3 
REMARK    1  A    between atoms: N_2  and  C_15 
REMARK       I    between atoms: C_3  and  N_4 
REMARK    2  A    between atoms: N_4  and  C_5 
REMARK    3  A    between atoms: C_15  and  C_16 
REMARK    4  A    between atoms: C_16  and  C_17 
REMARK    5  A    between atoms: C_17  and  C_18 
REMARK    6  A    between atoms: C_22  and  C_23 
ROOT
HETATM    1  C   UNL     1      40.041 -12.291   5.325  1.00  0.00     0.127 C 
ENDROOT
BRANCH   1   2
HETATM    2  N   UNL     1      39.161 -11.389   4.575  1.00  0.00    -0.338 N 
HETATM    3  C   UNL     1      38.530 -10.328   5.355  1.00  0.00     0.154 C 
HETATM    4  C   UNL     1      39.220 -11.182   3.196  1.00  0.00     0.322 C 
HETATM    5  N   UNL     1      39.724 -12.234   2.473  1.00  0.00    -0.309 N 
HETATM    6  O   UNL     1      38.910 -10.094   2.717  1.00  0.00    -0.247 OA
HETATM    7  H   UNL     1      39.715 -13.131   2.929  1.00  0.00     0.170 HD
BRANCH   5   8
HETATM    8  C   UNL     1      40.105 -12.247   1.112  1.00  0.00     0.036 A 
HETATM    9  C   UNL     1      39.735 -13.245   0.207  1.00  0.00     0.039 A 
HETATM   10  C   UNL     1      40.156 -13.141  -1.112  1.00  0.00    -0.024 A 
HETATM   11  C   UNL     1      40.906 -12.064  -1.550  1.00  0.00    -0.026 A 
HETATM   12  C   UNL     1      39.902 -14.060  -2.249  1.00  0.00     0.207 C 
HETATM   13  C   UNL     1      41.163 -12.207  -3.003  1.00  0.00     0.207 C 
HETATM   14  C   UNL     1      41.275 -11.056  -0.680  1.00  0.00     0.012 A 
HETATM   15  O   UNL     1      40.734 -13.552  -3.319  1.00  0.00    -0.382 OA
HETATM   16  C   UNL     1      40.879 -11.158   0.658  1.00  0.00     0.030 A 
ENDBRANCH   5   8
ENDBRANCH   1   2
BRANCH   1  17
HETATM   17  C   UNL     1      41.501 -11.818   5.400  1.00  0.00     0.026 C 
BRANCH  17  18
HETATM   18  C   UNL     1      42.464 -12.854   5.988  1.00  0.00     0.060 C 
BRANCH  18  19
HETATM   19  C   UNL     1      42.779 -13.977   5.064  1.00  0.00     0.030 A 
HETATM   20  N   UNL     1      42.804 -13.867   3.701  1.00  0.00    -0.282 N 
HETATM   21  H   UNL     1      42.645 -13.046   3.122  1.00  0.00     0.189 HD
HETATM   22  N   UNL     1      43.066 -15.026   3.075  1.00  0.00    -0.174 NA
HETATM   23  C   UNL     1      43.193 -15.934   4.055  1.00  0.00     0.089 A 
HETATM   24  C   UNL     1      43.043 -15.306   5.322  1.00  0.00     0.060 A 
BRANCH  23  25
HETATM   25  C   UNL     1      43.434 -17.353   3.760  1.00  0.00    -0.005 A 
HETATM   26  C   UNL     1      44.023 -18.207   4.709  1.00  0.00     0.017 A 
HETATM   27  C   UNL     1      44.226 -19.560   4.421  1.00  0.00     0.043 A 
HETATM   28  C   UNL     1      43.842 -20.066   3.185  1.00  0.00     0.116 A 
HETATM   29  F   UNL     1      44.036 -21.363   2.914  1.00  0.00    -0.206 F 
HETATM   30  C   UNL     1      43.260 -19.245   2.230  1.00  0.00     0.043 A 
HETATM   31  C   UNL     1      43.056 -17.892   2.518  1.00  0.00     0.017 A 
ENDBRANCH  23  25
ENDBRANCH  18  19
ENDBRANCH  17  18
ENDBRANCH   1  17
TORSDOF 6
ENDMDL
