MODEL 1
REMARK VINA RESULT:      -7.6      0.000      0.000
REMARK  5 active torsions:
REMARK  status: ('A' for Active; 'I' for Inactive)
REMARK    1  A    between atoms: C_4  and  C_5 
REMARK    2  A    between atoms: C_5  and  N_6 
REMARK    3  A    between atoms: N_6  and  C_9 
REMARK    4  A    between atoms: C_12  and  O_13 
REMARK    5  A    between atoms: O_13  and  C_14 
ROOT
HETATM    1  C   UNL     1      43.151 -15.652   3.934  1.00  0.00     0.164 A 
HETATM    2  N   UNL     1      43.460 -16.651   4.787  1.00  0.00    -0.236 NA
HETATM    3  C   UNL     1      43.575 -17.893   4.252  1.00  0.00     0.142 A 
HETATM    4  C   UNL     1      43.386 -18.178   2.907  1.00  0.00     0.062 A 
HETATM    5  C   UNL     1      43.529 -19.513   2.421  1.00  0.00     0.101 C 
HETATM    6  N   UNL     1      43.646 -20.600   2.034  1.00  0.00    -0.191 NA
HETATM    7  C   UNL     1      43.055 -17.124   2.056  1.00  0.00     0.028 A 
HETATM    8  C   UNL     1      42.929 -15.838   2.578  1.00  0.00     0.059 A 
ENDROOT
BRANCH   1   9
HETATM    9  O   UNL     1      43.004 -14.366   4.415  1.00  0.00    -0.329 OA
BRANCH   9  10
HETATM   10  C   UNL     1      42.752 -14.286   5.824  1.00  0.00     0.130 C 
HETATM   11  C   UNL     1      44.026 -13.719   6.468  1.00  0.00     0.034 C 
HETATM   12  C   UNL     1      44.301 -12.275   6.039  1.00  0.00     0.035 C 
HETATM   13  C   UNL     1      43.112 -11.338   6.277  1.00  0.00     0.186 C 
HETATM   14  C   UNL     1      41.830 -11.914   5.665  1.00  0.00     0.035 C 
HETATM   15  C   UNL     1      41.557 -13.359   6.096  1.00  0.00     0.034 C 
BRANCH  13  16
HETATM   16  N   UNL     1      42.880 -11.131   7.749  1.00  0.00    -0.067 N 
HETATM   17  H   UNL     1      42.414 -11.944   8.171  1.00  0.00     0.278 HD
HETATM   18  H   UNL     1      42.219 -10.353   7.880  1.00  0.00     0.278 HD
BRANCH  16  19
HETATM   19  C   UNL     1      44.085 -10.815   8.582  1.00  0.00     0.280 C 
BRANCH  19  20
HETATM   20  C   UNL     1      43.769  -9.784   9.602  1.00  0.00     0.027 A 
HETATM   21  S   UNL     1      43.675 -10.188  11.271  1.00  0.00    -0.077 SA
HETATM   22  C   UNL     1      43.295  -8.552  11.640  1.00  0.00     0.071 A 
HETATM   23  C   UNL     1      43.060  -8.120  13.046  1.00  0.00     0.078 C 
HETATM   24  N   UNL     1      43.239  -7.750  10.600  1.00  0.00    -0.258 NA
HETATM   25  C   UNL     1      43.527  -8.437   9.443  1.00  0.00     0.133 A 
ENDBRANCH  19  20
ENDBRANCH  16  19
ENDBRANCH  13  16
ENDBRANCH   9  10
ENDBRANCH   1   9
TORSDOF 5
ENDMDL
MODEL 2
REMARK VINA RESULT:      -7.4      1.123      1.234
REMARK  5 active torsions:
REMARK  status: ('A' for Active; 'I' for Inactive)
REMARK    1  A    between atoms: C_4  and  C_5 
REMARK    2  A    between atoms: C_5  and  N_6 
REMARK    3  A    between atoms: N_6  and  C_9 
REMARK    4  A    between atoms: C_12  and  O_13 
REMARK    5  A    between atoms: O_13  and  C_14 
ROOT
HETATM    1  C   UNL     1      43.369 -15.966   3.876  1.00  0.00     0.164 A 
HETATM    2  N   UNL     1      43.937 -16.845   4.728  1.00  0.00    -0.236 NA
HETATM    3  C   UNL     1      44.033 -18.129   4.301  1.00  0.00     0.142 A 
HETATM    4  C   UNL     1      43.577 -18.572   3.067  1.00  0.00     0.062 A 
HETATM    5  C   UNL     1      43.718 -19.943   2.691  1.00  0.00     0.101 C 
HETATM    6  N   UNL     1      43.834 -21.057   2.392  1.00  0.00    -0.191 NA
HETATM    7  C   UNL     1      42.983 -17.640   2.217  1.00  0.00     0.028 A 
HETATM    8  C   UNL     1      42.871 -16.313   2.630  1.00  0.00     0.059 A 
ENDROOT
BRANCH   1   9
HETATM    9  O   UNL     1      43.227 -14.645   4.254  1.00  0.00    -0.329 OA
BRANCH   9  10
HETATM   10  C   UNL     1      42.715 -14.461   5.580  1.00  0.00     0.130 C 
HETATM   11  C   UNL     1      43.677 -13.499   6.294  1.00  0.00     0.034 C 
HETATM   12  C   UNL     1      43.667 -12.099   5.674  1.00  0.00     0.035 C 
HETATM   13  C   UNL     1      42.264 -11.491   5.584  1.00  0.00     0.186 C 
HETATM   14  C   UNL     1      41.291 -12.458   4.901  1.00  0.00     0.035 C 
HETATM   15  C   UNL     1      41.303 -13.859   5.523  1.00  0.00     0.034 C 
BRANCH  13  16
HETATM   16  N   UNL     1      41.729 -11.172   6.953  1.00  0.00    -0.067 N 
HETATM   17  H   UNL     1      42.218 -11.710   7.679  1.00  0.00     0.278 HD
HETATM   18  H   UNL     1      40.749 -11.481   7.013  1.00  0.00     0.278 HD
BRANCH  16  19
HETATM   19  C   UNL     1      41.750  -9.731   7.365  1.00  0.00     0.280 C 
BRANCH  19  20
HETATM   20  C   UNL     1      42.518  -9.549   8.622  1.00  0.00     0.027 A 
HETATM   21  S   UNL     1      41.837  -8.720   9.965  1.00  0.00    -0.077 SA
HETATM   22  C   UNL     1      43.291  -8.967  10.849  1.00  0.00     0.071 A 
HETATM   23  C   UNL     1      43.432  -8.464  12.244  1.00  0.00     0.078 C 
HETATM   24  N   UNL     1      44.228  -9.621  10.199  1.00  0.00    -0.258 NA
HETATM   25  C   UNL     1      43.790  -9.972   8.942  1.00  0.00     0.133 A 
ENDBRANCH  19  20
ENDBRANCH  16  19
ENDBRANCH  13  16
ENDBRANCH   9  10
ENDBRANCH   1   9
TORSDOF 5
ENDMDL
MODEL 3
REMARK VINA RESULT:      -7.0      2.292      2.345
REMARK  5 active torsions:
REMARK  status: ('A' for Active; 'I' for Inactive)
REMARK    1  A    between atoms: C_4  and  C_5 
REMARK    2  A    between atoms: C_5  and  N_6 
REMARK    3  A    between atoms: N_6  and  C_9 
REMARK    4  A    between atoms: C_12  and  O_13 
REMARK    5  A    between atoms: O_13  and  C_14 
ROOT
HETATM    1  C   UNL     1      43.367 -15.854   3.899  1.00  0.00     0.164 A 
HETATM    2  N   UNL     1      43.896 -16.750   4.757  1.00  0.00    -0.236 NA
HETATM    3  C   UNL     1      43.998 -18.028   4.315  1.00  0.00     0.142 A 
HETATM    4  C   UNL     1      43.586 -18.448   3.058  1.00  0.00     0.062 A 
HETATM    5  C   UNL     1      43.731 -19.814   2.665  1.00  0.00     0.101 C 
HETATM    6  N   UNL     1      43.851 -20.924   2.354  1.00  0.00    -0.191 NA
HETATM    7  C   UNL     1      43.031 -17.498   2.201  1.00  0.00     0.028 A 
HETATM    8  C   UNL     1      42.913 -16.177   2.630  1.00  0.00     0.059 A 
ENDROOT
BRANCH   1   9
HETATM    9  O   UNL     1      43.220 -14.537   4.292  1.00  0.00    -0.329 OA
BRANCH   9  10
HETATM   10  C   UNL     1      42.469 -14.361   5.500  1.00  0.00     0.130 C 
HETATM   11  C   UNL     1      43.374 -13.591   6.473  1.00  0.00     0.034 C 
HETATM   12  C   UNL     1      43.673 -12.169   5.989  1.00  0.00     0.035 C 
HETATM   13  C   UNL     1      42.410 -11.362   5.674  1.00  0.00     0.186 C 
HETATM   14  C   UNL     1      41.486 -12.138   4.728  1.00  0.00     0.035 C 
HETATM   15  C   UNL     1      41.189 -13.561   5.215  1.00  0.00     0.034 C 
BRANCH  13  16
HETATM   16  N   UNL     1      41.645 -11.052   6.931  1.00  0.00    -0.067 N 
HETATM   17  H   UNL     1      41.798 -11.771   7.649  1.00  0.00     0.278 HD
HETATM   18  H   UNL     1      40.635 -11.093   6.730  1.00  0.00     0.278 HD
BRANCH  16  19
HETATM   19  C   UNL     1      41.902  -9.717   7.563  1.00  0.00     0.280 C 
BRANCH  19  20
HETATM   20  C   UNL     1      40.755  -9.301   8.409  1.00  0.00     0.027 A 
HETATM   21  S   UNL     1      40.937  -8.091   9.616  1.00  0.00    -0.077 SA
HETATM   22  C   UNL     1      39.280  -8.268  10.037  1.00  0.00     0.071 A 
HETATM   23  C   UNL     1      38.673  -7.443  11.119  1.00  0.00     0.078 C 
HETATM   24  N   UNL     1      38.624  -9.165   9.333  1.00  0.00    -0.258 NA
HETATM   25  C   UNL     1      39.449  -9.740   8.394  1.00  0.00     0.133 A 
ENDBRANCH  19  20
ENDBRANCH  16  19
ENDBRANCH  13  16
ENDBRANCH   9  10
ENDBRANCH   1   9
TORSDOF 5
ENDMDL
MODEL 4
REMARK VINA RESULT:      -7.0      6.350      8.312
REMARK  5 active torsions:
REMARK  status: ('A' for Active; 'I' for Inactive)
REMARK    1  A    between atoms: C_4  and  C_5 
REMARK    2  A    between atoms: C_5  and  N_6 
REMARK    3  A    between atoms: N_6  and  C_9 
REMARK    4  A    between atoms: C_12  and  O_13 
REMARK    5  A    between atoms: O_13  and  C_14 
ROOT
HETATM    1  C   UNL     1      42.995 -16.223   2.912  1.00  0.00     0.164 A 
HETATM    2  N   UNL     1      43.279 -16.202   4.231  1.00  0.00    -0.236 NA
HETATM    3  C   UNL     1      43.678 -17.374   4.786  1.00  0.00     0.142 A 
HETATM    4  C   UNL     1      43.796 -18.563   4.081  1.00  0.00     0.062 A 
HETATM    5  C   UNL     1      44.227 -19.757   4.738  1.00  0.00     0.101 C 
HETATM    6  N   UNL     1      44.576 -20.721   5.278  1.00  0.00    -0.191 NA
HETATM    7  C   UNL     1      43.482 -18.553   2.722  1.00  0.00     0.028 A 
HETATM    8  C   UNL     1      43.068 -17.362   2.127  1.00  0.00     0.059 A 
ENDROOT
BRANCH   1   9
HETATM    9  O   UNL     1      42.568 -15.067   2.288  1.00  0.00    -0.329 OA
BRANCH   9  10
HETATM   10  C   UNL     1      41.264 -14.625   2.689  1.00  0.00     0.130 C 
HETATM   11  C   UNL     1      41.249 -13.097   2.529  1.00  0.00     0.034 C 
HETATM   12  C   UNL     1      41.375 -12.663   1.066  1.00  0.00     0.035 C 
HETATM   13  C   UNL     1      40.329 -13.312   0.153  1.00  0.00     0.186 C 
HETATM   14  C   UNL     1      40.317 -14.835   0.330  1.00  0.00     0.035 C 
HETATM   15  C   UNL     1      40.191 -15.266   1.796  1.00  0.00     0.034 C 
BRANCH  13  16
HETATM   16  N   UNL     1      38.952 -12.791   0.460  1.00  0.00    -0.067 N 
HETATM   17  H   UNL     1      38.980 -12.079   1.201  1.00  0.00     0.278 HD
HETATM   18  H   UNL     1      38.382 -13.554   0.851  1.00  0.00     0.278 HD
BRANCH  16  19
HETATM   19  C   UNL     1      38.177 -12.221  -0.688  1.00  0.00     0.280 C 
BRANCH  19  20
HETATM   20  C   UNL     1      38.941 -11.140  -1.360  1.00  0.00     0.027 A 
HETATM   21  S   UNL     1      39.428 -11.287  -3.002  1.00  0.00    -0.077 SA
HETATM   22  C   UNL     1      40.175  -9.742  -2.915  1.00  0.00     0.071 A 
HETATM   23  C   UNL     1      40.867  -9.158  -4.098  1.00  0.00     0.078 C 
HETATM   24  N   UNL     1      40.076  -9.146  -1.747  1.00  0.00    -0.258 NA
HETATM   25  C   UNL     1      39.360  -9.924  -0.866  1.00  0.00     0.133 A 
ENDBRANCH  19  20
ENDBRANCH  16  19
ENDBRANCH  13  16
ENDBRANCH   9  10
ENDBRANCH   1   9
TORSDOF 5
ENDMDL
MODEL 5
REMARK VINA RESULT:      -6.9      2.145      2.682
REMARK  5 active torsions:
REMARK  status: ('A' for Active; 'I' for Inactive)
REMARK    1  A    between atoms: C_4  and  C_5 
REMARK    2  A    between atoms: C_5  and  N_6 
REMARK    3  A    between atoms: N_6  and  C_9 
REMARK    4  A    between atoms: C_12  and  O_13 
REMARK    5  A    between atoms: O_13  and  C_14 
ROOT
HETATM    1  C   UNL     1      43.344 -16.101   4.060  1.00  0.00     0.164 A 
HETATM    2  N   UNL     1      43.972 -17.081   4.743  1.00  0.00    -0.236 NA
HETATM    3  C   UNL     1      44.058 -18.289   4.132  1.00  0.00     0.142 A 
HETATM    4  C   UNL     1      43.537 -18.560   2.875  1.00  0.00     0.062 A 
HETATM    5  C   UNL     1      43.672 -19.860   2.297  1.00  0.00     0.101 C 
HETATM    6  N   UNL     1      43.785 -20.917   1.836  1.00  0.00    -0.191 NA
HETATM    7  C   UNL     1      42.882 -17.529   2.202  1.00  0.00     0.028 A 
HETATM    8  C   UNL     1      42.777 -16.277   2.807  1.00  0.00     0.059 A 
ENDROOT
BRANCH   1   9
HETATM    9  O   UNL     1      43.207 -14.851   4.631  1.00  0.00    -0.329 OA
BRANCH   9  10
HETATM   10  C   UNL     1      42.478 -13.911   3.830  1.00  0.00     0.130 C 
HETATM   11  C   UNL     1      41.227 -13.524   4.634  1.00  0.00     0.034 C 
HETATM   12  C   UNL     1      41.573 -12.760   5.915  1.00  0.00     0.035 C 
HETATM   13  C   UNL     1      42.455 -11.532   5.664  1.00  0.00     0.186 C 
HETATM   14  C   UNL     1      43.689 -11.905   4.835  1.00  0.00     0.035 C 
HETATM   15  C   UNL     1      43.340 -12.671   3.554  1.00  0.00     0.034 C 
BRANCH  13  16
HETATM   16  N   UNL     1      41.693 -10.467   4.924  1.00  0.00    -0.067 N 
HETATM   17  H   UNL     1      41.187 -10.860   4.121  1.00  0.00     0.278 HD
HETATM   18  H   UNL     1      42.361  -9.800   4.512  1.00  0.00     0.278 HD
BRANCH  16  19
HETATM   19  C   UNL     1      40.717  -9.659   5.724  1.00  0.00     0.280 C 
BRANCH  19  20
HETATM   20  C   UNL     1      41.409  -8.575   6.466  1.00  0.00     0.027 A 
HETATM   21  S   UNL     1      42.035  -8.841   8.045  1.00  0.00    -0.077 SA
HETATM   22  C   UNL     1      42.582  -7.212   8.098  1.00  0.00     0.071 A 
HETATM   23  C   UNL     1      43.296  -6.683   9.294  1.00  0.00     0.078 C 
HETATM   24  N   UNL     1      42.322  -6.507   7.019  1.00  0.00    -0.258 NA
HETATM   25  C   UNL     1      41.675  -7.279   6.081  1.00  0.00     0.133 A 
ENDBRANCH  19  20
ENDBRANCH  16  19
ENDBRANCH  13  16
ENDBRANCH   9  10
ENDBRANCH   1   9
TORSDOF 5
ENDMDL
MODEL 6
REMARK VINA RESULT:      -6.7     17.739     20.208
REMARK  5 active torsions:
REMARK  status: ('A' for Active; 'I' for Inactive)
REMARK    1  A    between atoms: C_4  and  C_5 
REMARK    2  A    between atoms: C_5  and  N_6 
REMARK    3  A    between atoms: N_6  and  C_9 
REMARK    4  A    between atoms: C_12  and  O_13 
REMARK    5  A    between atoms: O_13  and  C_14 
ROOT
HETATM    1  C   UNL     1      47.803 -29.896   2.303  1.00  0.00     0.164 A 
HETATM    2  N   UNL     1      48.265 -31.160   2.381  1.00  0.00    -0.236 NA
HETATM    3  C   UNL     1      49.287 -31.382   3.246  1.00  0.00     0.142 A 
HETATM    4  C   UNL     1      49.869 -30.393   4.026  1.00  0.00     0.062 A 
HETATM    5  C   UNL     1      50.941 -30.708   4.916  1.00  0.00     0.101 C 
HETATM    6  N   UNL     1      51.811 -30.971   5.636  1.00  0.00    -0.191 NA
HETATM    7  C   UNL     1      49.376 -29.094   3.910  1.00  0.00     0.028 A 
HETATM    8  C   UNL     1      48.327 -28.837   3.028  1.00  0.00     0.059 A 
ENDROOT
BRANCH   1   9
HETATM    9  O   UNL     1      46.774 -29.598   1.431  1.00  0.00    -0.329 OA
BRANCH   9  10
HETATM   10  C   UNL     1      46.919 -30.174   0.126  1.00  0.00     0.130 C 
HETATM   11  C   UNL     1      45.536 -30.110  -0.540  1.00  0.00     0.034 C 
HETATM   12  C   UNL     1      45.080 -28.671  -0.798  1.00  0.00     0.035 C 
HETATM   13  C   UNL     1      46.100 -27.849  -1.592  1.00  0.00     0.186 C 
HETATM   14  C   UNL     1      47.490 -27.934  -0.950  1.00  0.00     0.035 C 
HETATM   15  C   UNL     1      47.944 -29.375  -0.694  1.00  0.00     0.034 C 
BRANCH  13  16
HETATM   16  N   UNL     1      46.203 -28.345  -3.008  1.00  0.00    -0.067 N 
HETATM   17  H   UNL     1      46.719 -29.233  -3.056  1.00  0.00     0.278 HD
HETATM   18  H   UNL     1      46.770 -27.683  -3.557  1.00  0.00     0.278 HD
BRANCH  16  19
HETATM   19  C   UNL     1      44.915 -28.527  -3.753  1.00  0.00     0.280 C 
BRANCH  19  20
HETATM   20  C   UNL     1      44.895 -29.828  -4.467  1.00  0.00     0.027 A 
HETATM   21  S   UNL     1      46.057 -31.047  -4.123  1.00  0.00    -0.077 SA
HETATM   22  C   UNL     1      45.333 -32.064  -5.304  1.00  0.00     0.071 A 
HETATM   23  C   UNL     1      45.871 -33.428  -5.573  1.00  0.00     0.078 C 
HETATM   24  N   UNL     1      44.295 -31.543  -5.921  1.00  0.00    -0.258 NA
HETATM   25  C   UNL     1      44.028 -30.283  -5.437  1.00  0.00     0.133 A 
ENDBRANCH  19  20
ENDBRANCH  16  19
ENDBRANCH  13  16
ENDBRANCH   9  10
ENDBRANCH   1   9
TORSDOF 5
ENDMDL
MODEL 7
REMARK VINA RESULT:      -6.7      5.974      8.252
REMARK  5 active torsions:
REMARK  status: ('A' for Active; 'I' for Inactive)
REMARK    1  A    between atoms: C_4  and  C_5 
REMARK    2  A    between atoms: C_5  and  N_6 
REMARK    3  A    between atoms: N_6  and  C_9 
REMARK    4  A    between atoms: C_12  and  O_13 
REMARK    5  A    between atoms: O_13  and  C_14 
ROOT
HETATM    1  C   UNL     1      43.192 -16.067   3.553  1.00  0.00     0.164 A 
HETATM    2  N   UNL     1      43.433 -16.263   4.865  1.00  0.00    -0.236 NA
HETATM    3  C   UNL     1      43.805 -17.514   5.235  1.00  0.00     0.142 A 
HETATM    4  C   UNL     1      43.935 -18.576   4.351  1.00  0.00     0.062 A 
HETATM    5  C   UNL     1      44.334 -19.866   4.819  1.00  0.00     0.101 C 
HETATM    6  N   UNL     1      44.658 -20.909   5.207  1.00  0.00    -0.191 NA
HETATM    7  C   UNL     1      43.665 -18.343   3.003  1.00  0.00     0.028 A 
HETATM    8  C   UNL     1      43.280 -17.066   2.596  1.00  0.00     0.059 A 
ENDROOT
BRANCH   1   9
HETATM    9  O   UNL     1      42.795 -14.820   3.111  1.00  0.00    -0.329 OA
BRANCH   9  10
HETATM   10  C   UNL     1      41.755 -14.846   2.124  1.00  0.00     0.130 C 
HETATM   11  C   UNL     1      40.423 -14.784   2.885  1.00  0.00     0.034 C 
HETATM   12  C   UNL     1      40.232 -13.453   3.618  1.00  0.00     0.035 C 
HETATM   13  C   UNL     1      40.388 -12.234   2.703  1.00  0.00     0.186 C 
HETATM   14  C   UNL     1      41.701 -12.305   1.915  1.00  0.00     0.035 C 
HETATM   15  C   UNL     1      41.889 -13.638   1.183  1.00  0.00     0.034 C 
BRANCH  13  16
HETATM   16  N   UNL     1      39.252 -12.154   1.720  1.00  0.00    -0.067 N 
HETATM   17  H   UNL     1      38.363 -11.951   2.193  1.00  0.00     0.278 HD
HETATM   18  H   UNL     1      39.114 -13.078   1.287  1.00  0.00     0.278 HD
BRANCH  16  19
HETATM   19  C   UNL     1      39.403 -11.173   0.596  1.00  0.00     0.280 C 
BRANCH  19  20
HETATM   20  C   UNL     1      39.062 -11.802  -0.705  1.00  0.00     0.027 A 
HETATM   21  S   UNL     1      39.089 -13.509  -0.899  1.00  0.00    -0.077 SA
HETATM   22  C   UNL     1      38.622 -13.326  -2.543  1.00  0.00     0.071 A 
HETATM   23  C   UNL     1      38.429 -14.514  -3.421  1.00  0.00     0.078 C 
HETATM   24  N   UNL     1      38.454 -12.081  -2.934  1.00  0.00    -0.258 NA
HETATM   25  C   UNL     1      38.682 -11.212  -1.891  1.00  0.00     0.133 A 
ENDBRANCH  19  20
ENDBRANCH  16  19
ENDBRANCH  13  16
ENDBRANCH   9  10
ENDBRANCH   1   9
TORSDOF 5
ENDMDL
MODEL 8
REMARK VINA RESULT:      -6.7      2.969      9.596
REMARK  5 active torsions:
REMARK  status: ('A' for Active; 'I' for Inactive)
REMARK    1  A    between atoms: C_4  and  C_5 
REMARK    2  A    between atoms: C_5  and  N_6 
REMARK    3  A    between atoms: N_6  and  C_9 
REMARK    4  A    between atoms: C_12  and  O_13 
REMARK    5  A    between atoms: O_13  and  C_14 
ROOT
HETATM    1  C   UNL     1      43.804  -9.683   8.342  1.00  0.00     0.164 A 
HETATM    2  N   UNL     1      42.596  -9.251   8.761  1.00  0.00    -0.236 NA
HETATM    3  C   UNL     1      42.507  -8.861  10.057  1.00  0.00     0.142 A 
HETATM    4  C   UNL     1      43.568  -8.895  10.951  1.00  0.00     0.062 A 
HETATM    5  C   UNL     1      43.393  -8.463  12.302  1.00  0.00     0.101 C 
HETATM    6  N   UNL     1      43.243  -8.113  13.396  1.00  0.00    -0.191 NA
HETATM    7  C   UNL     1      44.798  -9.361  10.488  1.00  0.00     0.028 A 
HETATM    8  C   UNL     1      44.918  -9.769   9.161  1.00  0.00     0.059 A 
ENDROOT
BRANCH   1   9
HETATM    9  O   UNL     1      43.960 -10.110   7.037  1.00  0.00    -0.329 OA
BRANCH   9  10
HETATM   10  C   UNL     1      44.522 -11.423   6.907  1.00  0.00     0.130 C 
HETATM   11  C   UNL     1      43.390 -12.418   7.204  1.00  0.00     0.034 C 
HETATM   12  C   UNL     1      42.277 -12.364   6.153  1.00  0.00     0.035 C 
HETATM   13  C   UNL     1      42.792 -12.543   4.721  1.00  0.00     0.186 C 
HETATM   14  C   UNL     1      43.944 -11.575   4.428  1.00  0.00     0.035 C 
HETATM   15  C   UNL     1      45.056 -11.631   5.481  1.00  0.00     0.034 C 
BRANCH  13  16
HETATM   16  N   UNL     1      43.288 -13.946   4.501  1.00  0.00    -0.067 N 
HETATM   17  H   UNL     1      43.785 -14.299   5.328  1.00  0.00     0.278 HD
HETATM   18  H   UNL     1      43.995 -13.940   3.753  1.00  0.00     0.278 HD
BRANCH  16  19
HETATM   19  C   UNL     1      42.263 -14.969   4.115  1.00  0.00     0.280 C 
BRANCH  19  20
HETATM   20  C   UNL     1      42.890 -16.300   3.918  1.00  0.00     0.027 A 
HETATM   21  S   UNL     1      42.483 -17.280   2.566  1.00  0.00    -0.077 SA
HETATM   22  C   UNL     1      43.569 -18.491   3.123  1.00  0.00     0.071 A 
HETATM   23  C   UNL     1      43.755 -19.759   2.363  1.00  0.00     0.078 C 
HETATM   24  N   UNL     1      44.198 -18.197   4.239  1.00  0.00    -0.258 NA
HETATM   25  C   UNL     1      43.834 -16.947   4.686  1.00  0.00     0.133 A 
ENDBRANCH  19  20
ENDBRANCH  16  19
ENDBRANCH  13  16
ENDBRANCH   9  10
ENDBRANCH   1   9
TORSDOF 5
ENDMDL
MODEL 9
REMARK VINA RESULT:      -6.7      3.813     10.648
REMARK  5 active torsions:
REMARK  status: ('A' for Active; 'I' for Inactive)
REMARK    1  A    between atoms: C_4  and  C_5 
REMARK    2  A    between atoms: C_5  and  N_6 
REMARK    3  A    between atoms: N_6  and  C_9 
REMARK    4  A    between atoms: C_12  and  O_13 
REMARK    5  A    between atoms: O_13  and  C_14 
ROOT
HETATM    1  C   UNL     1      42.814  -8.156  13.034  1.00  0.00     0.164 A 
HETATM    2  N   UNL     1      43.281  -7.212  13.876  1.00  0.00    -0.236 NA
HETATM    3  C   UNL     1      42.657  -7.104  15.075  1.00  0.00     0.142 A 
HETATM    4  C   UNL     1      41.583  -7.892  15.463  1.00  0.00     0.062 A 
HETATM    5  C   UNL     1      40.981  -7.719  16.747  1.00  0.00     0.101 C 
HETATM    6  N   UNL     1      40.497  -7.572  17.791  1.00  0.00    -0.191 NA
HETATM    7  C   UNL     1      41.116  -8.850  14.563  1.00  0.00     0.028 A 
HETATM    8  C   UNL     1      41.738  -8.982  13.323  1.00  0.00     0.059 A 
ENDROOT
BRANCH   1   9
HETATM    9  O   UNL     1      43.394  -8.309  11.790  1.00  0.00    -0.329 OA
BRANCH   9  10
HETATM   10  C   UNL     1      42.988  -9.492  11.088  1.00  0.00     0.130 C 
HETATM   11  C   UNL     1      42.758  -9.080   9.626  1.00  0.00     0.034 C 
HETATM   12  C   UNL     1      44.052  -8.641   8.935  1.00  0.00     0.035 C 
HETATM   13  C   UNL     1      45.170  -9.684   9.033  1.00  0.00     0.186 C 
HETATM   14  C   UNL     1      45.384 -10.123  10.485  1.00  0.00     0.035 C 
HETATM   15  C   UNL     1      44.087 -10.561  11.175  1.00  0.00     0.034 C 
BRANCH  13  16
HETATM   16  N   UNL     1      44.840 -10.902   8.215  1.00  0.00    -0.067 N 
HETATM   17  H   UNL     1      43.828 -11.082   8.206  1.00  0.00     0.278 HD
HETATM   18  H   UNL     1      45.250 -11.733   8.666  1.00  0.00     0.278 HD
BRANCH  16  19
HETATM   19  C   UNL     1      45.315 -10.909   6.794  1.00  0.00     0.280 C 
BRANCH  19  20
HETATM   20  C   UNL     1      44.419 -11.728   5.938  1.00  0.00     0.027 A 
HETATM   21  S   UNL     1      43.732 -13.192   6.521  1.00  0.00    -0.077 SA
HETATM   22  C   UNL     1      42.946 -13.419   5.010  1.00  0.00     0.071 A 
HETATM   23  C   UNL     1      42.080 -14.607   4.769  1.00  0.00     0.078 C 
HETATM   24  N   UNL     1      43.171 -12.475   4.123  1.00  0.00    -0.258 NA
HETATM   25  C   UNL     1      43.990 -11.502   4.649  1.00  0.00     0.133 A 
ENDBRANCH  19  20
ENDBRANCH  16  19
ENDBRANCH  13  16
ENDBRANCH   9  10
ENDBRANCH   1   9
TORSDOF 5
ENDMDL
MODEL 10
REMARK VINA RESULT:      -6.6     17.107     19.521
REMARK  5 active torsions:
REMARK  status: ('A' for Active; 'I' for Inactive)
REMARK    1  A    between atoms: C_4  and  C_5 
REMARK    2  A    between atoms: C_5  and  N_6 
REMARK    3  A    between atoms: N_6  and  C_9 
REMARK    4  A    between atoms: C_12  and  O_13 
REMARK    5  A    between atoms: O_13  and  C_14 
ROOT
HETATM    1  C   UNL     1      50.940 -30.558  -0.734  1.00  0.00     0.164 A 
HETATM    2  N   UNL     1      51.347 -30.246  -1.982  1.00  0.00    -0.236 NA
HETATM    3  C   UNL     1      52.300 -31.043  -2.527  1.00  0.00     0.142 A 
HETATM    4  C   UNL     1      52.867 -32.129  -1.877  1.00  0.00     0.062 A 
HETATM    5  C   UNL     1      53.865 -32.922  -2.522  1.00  0.00     0.101 C 
HETATM    6  N   UNL     1      54.674 -33.561  -3.052  1.00  0.00    -0.191 NA
HETATM    7  C   UNL     1      52.433 -32.416  -0.583  1.00  0.00     0.028 A 
HETATM    8  C   UNL     1      51.456 -31.613   0.003  1.00  0.00     0.059 A 
ENDROOT
BRANCH   1   9
HETATM    9  O   UNL     1      49.984 -29.779  -0.113  1.00  0.00    -0.329 OA
BRANCH   9  10
HETATM   10  C   UNL     1      48.643 -30.270  -0.246  1.00  0.00     0.130 C 
HETATM   11  C   UNL     1      48.130 -30.539   1.177  1.00  0.00     0.034 C 
HETATM   12  C   UNL     1      47.995 -29.254   2.000  1.00  0.00     0.035 C 
HETATM   13  C   UNL     1      47.142 -28.184   1.311  1.00  0.00     0.186 C 
HETATM   14  C   UNL     1      47.629 -27.933  -0.120  1.00  0.00     0.035 C 
HETATM   15  C   UNL     1      47.763 -29.221  -0.942  1.00  0.00     0.034 C 
BRANCH  13  16
HETATM   16  N   UNL     1      45.699 -28.606   1.252  1.00  0.00    -0.067 N 
HETATM   17  H   UNL     1      45.535 -29.265   0.481  1.00  0.00     0.278 HD
HETATM   18  H   UNL     1      45.117 -27.787   1.025  1.00  0.00     0.278 HD
BRANCH  16  19
HETATM   19  C   UNL     1      45.123 -29.210   2.496  1.00  0.00     0.280 C 
BRANCH  19  20
HETATM   20  C   UNL     1      43.732 -29.676   2.265  1.00  0.00     0.027 A 
HETATM   21  S   UNL     1      43.074 -30.982   3.167  1.00  0.00    -0.077 SA
HETATM   22  C   UNL     1      41.596 -30.828   2.303  1.00  0.00     0.071 A 
HETATM   23  C   UNL     1      40.444 -31.728   2.590  1.00  0.00     0.078 C 
HETATM   24  N   UNL     1      41.581 -29.872   1.401  1.00  0.00    -0.258 NA
HETATM   25  C   UNL     1      42.782 -29.200   1.388  1.00  0.00     0.133 A 
ENDBRANCH  19  20
ENDBRANCH  16  19
ENDBRANCH  13  16
ENDBRANCH   9  10
ENDBRANCH   1   9
TORSDOF 5
ENDMDL
