MODEL 1
REMARK VINA RESULT:      -8.7      0.000      0.000
REMARK  6 active torsions:
REMARK  status: ('A' for Active; 'I' for Inactive)
REMARK    1  A    between atoms: C_2  and  N_3 
REMARK    2  A    between atoms: C_11  and  C_12 
REMARK    3  A    between atoms: C_14  and  C_15 
REMARK    4  A    between atoms: C_15  and  O_16 
REMARK    5  A    between atoms: O_16  and  C_17 
REMARK    6  A    between atoms: C_25  and  O_26 
ROOT
HETATM    1  N   UNL     1      40.396  -9.654   3.714  1.00  0.00    -0.067 N 
HETATM    2  H   UNL     1      40.266  -9.516   2.703  1.00  0.00     0.280 HD
HETATM    3  C   UNL     1      41.836 -10.140   3.893  1.00  0.00     0.281 C 
HETATM    4  C   UNL     1      41.994 -11.512   3.332  1.00  0.00     0.018 A 
HETATM    5  C   UNL     1      40.957 -12.367   3.013  1.00  0.00    -0.023 A 
HETATM    6  C   UNL     1      41.447 -13.586   2.443  1.00  0.00     0.073 A 
HETATM    7  C   UNL     1      42.820 -13.615   2.401  1.00  0.00     0.088 A 
HETATM    8  N   UNL     1      43.527 -14.645   1.903  1.00  0.00    -0.358 N 
HETATM    9  C   UNL     1      42.881 -15.877   1.515  1.00  0.00     0.219 C 
HETATM   10  N   UNL     1      41.449 -15.733   1.407  1.00  0.00    -0.332 N 
HETATM   11  C   UNL     1      40.701 -14.714   1.922  1.00  0.00     0.256 C 
HETATM   12  O   UNL     1      39.475 -14.751   1.923  1.00  0.00    -0.267 OA
HETATM   13  S   UNL     1      43.522 -12.198   3.029  1.00  0.00    -0.074 SA
HETATM   14  C   UNL     1      39.525 -11.973   3.216  1.00  0.00     0.068 C 
HETATM   15  C   UNL     1      39.400 -10.741   4.129  1.00  0.00     0.240 C 
HETATM   16  H   UNL     1      44.531 -14.705   2.048  1.00  0.00     0.162 HD
HETATM   17  H   UNL     1      40.923 -16.529   1.083  1.00  0.00     0.165 HD
ENDROOT
BRANCH   9  18
HETATM   18  C   UNL     1      43.272 -17.002   2.453  1.00  0.00    -0.016 A 
HETATM   19  C   UNL     1      43.478 -16.739   3.817  1.00  0.00     0.023 A 
HETATM   20  C   UNL     1      43.859 -17.757   4.715  1.00  0.00    -0.000 A 
HETATM   21  C   UNL     1      44.031 -19.068   4.238  1.00  0.00     0.076 A 
HETATM   22  C   UNL     1      43.801 -19.342   2.888  1.00  0.00     0.038 A 
HETATM   23  C   UNL     1      43.421 -18.322   2.006  1.00  0.00     0.014 A 
BRANCH  20  24
HETATM   24  C   UNL     1      44.067 -17.408   6.174  1.00  0.00     0.217 C 
BRANCH  24  25
HETATM   25  O   UNL     1      42.784 -17.226   6.777  1.00  0.00    -0.347 OA
BRANCH  25  26
HETATM   26  C   UNL     1      42.213 -15.988   6.666  1.00  0.00     0.070 A 
HETATM   27  C   UNL     1      43.100 -14.921   6.845  1.00  0.00     0.063 A 
HETATM   28  C   UNL     1      42.646 -13.605   6.754  1.00  0.00     0.075 A 
HETATM   29 CL   UNL     1      43.757 -12.309   6.977  1.00  0.00    -0.081 Cl
HETATM   30  C   UNL     1      41.304 -13.353   6.486  1.00  0.00     0.138 A 
HETATM   31  F   UNL     1      40.844 -12.097   6.393  1.00  0.00    -0.204 F 
HETATM   32  C   UNL     1      40.412 -14.406   6.312  1.00  0.00     0.047 A 
HETATM   33  C   UNL     1      40.865 -15.726   6.405  1.00  0.00     0.040 A 
ENDBRANCH  25  26
ENDBRANCH  24  25
ENDBRANCH  20  24
BRANCH  21  34
HETATM   34  O   UNL     1      44.414 -20.000   5.164  1.00  0.00    -0.355 OA
HETATM   35  C   UNL     1      43.779 -21.272   5.126  1.00  0.00     0.210 C 
ENDBRANCH  21  34
ENDBRANCH   9  18
BRANCH   1  36
HETATM   36  C   UNL     1      40.117  -8.342   4.404  1.00  0.00     0.231 C 
HETATM   37  C   UNL     1      39.614  -8.572   5.817  1.00  0.00     0.034 C 
ENDBRANCH   1  36
TORSDOF 6
ENDMDL
MODEL 2
REMARK VINA RESULT:      -8.4      5.721      8.056
REMARK  6 active torsions:
REMARK  status: ('A' for Active; 'I' for Inactive)
REMARK    1  A    between atoms: C_2  and  N_3 
REMARK    2  A    between atoms: C_11  and  C_12 
REMARK    3  A    between atoms: C_14  and  C_15 
REMARK    4  A    between atoms: C_15  and  O_16 
REMARK    5  A    between atoms: O_16  and  C_17 
REMARK    6  A    between atoms: C_25  and  O_26 
ROOT
HETATM    1  N   UNL     1      42.270  -6.858  13.471  1.00  0.00    -0.067 N 
HETATM    2  H   UNL     1      43.274  -6.645  13.531  1.00  0.00     0.280 HD
HETATM    3  C   UNL     1      42.164  -8.383  13.411  1.00  0.00     0.281 C 
HETATM    4  C   UNL     1      42.705  -8.892  12.119  1.00  0.00     0.018 A 
HETATM    5  C   UNL     1      42.947  -8.120  10.998  1.00  0.00    -0.023 A 
HETATM    6  C   UNL     1      43.518  -8.903   9.943  1.00  0.00     0.073 A 
HETATM    7  C   UNL     1      43.639 -10.226  10.296  1.00  0.00     0.088 A 
HETATM    8  N   UNL     1      44.155 -11.167   9.487  1.00  0.00    -0.358 N 
HETATM    9  C   UNL     1      44.480 -10.873   8.111  1.00  0.00     0.219 C 
HETATM   10  N   UNL     1      44.509  -9.454   7.847  1.00  0.00    -0.332 N 
HETATM   11  C   UNL     1      43.973  -8.478   8.635  1.00  0.00     0.256 C 
HETATM   12  O   UNL     1      43.901  -7.313   8.259  1.00  0.00    -0.267 OA
HETATM   13  S   UNL     1      43.081 -10.533  11.874  1.00  0.00    -0.074 SA
HETATM   14  C   UNL     1      42.671  -6.647  10.984  1.00  0.00     0.068 C 
HETATM   15  C   UNL     1      41.777  -6.227  12.165  1.00  0.00     0.240 C 
HETATM   16  H   UNL     1      44.067 -12.154   9.714  1.00  0.00     0.162 HD
HETATM   17  H   UNL     1      44.786  -9.156   6.925  1.00  0.00     0.165 HD
ENDROOT
BRANCH   9  18
HETATM   18  C   UNL     1      43.543 -11.609   7.172  1.00  0.00    -0.016 A 
HETATM   19  C   UNL     1      43.560 -13.012   7.123  1.00  0.00     0.023 A 
HETATM   20  C   UNL     1      42.716 -13.729   6.250  1.00  0.00    -0.000 A 
HETATM   21  C   UNL     1      41.832 -13.026   5.415  1.00  0.00     0.076 A 
HETATM   22  C   UNL     1      41.790 -11.631   5.479  1.00  0.00     0.038 A 
HETATM   23  C   UNL     1      42.633 -10.931   6.351  1.00  0.00     0.014 A 
BRANCH  20  24
HETATM   24  C   UNL     1      42.783 -15.243   6.243  1.00  0.00     0.217 C 
BRANCH  24  25
HETATM   25  O   UNL     1      43.930 -15.635   5.485  1.00  0.00    -0.347 OA
BRANCH  25  26
HETATM   26  C   UNL     1      43.761 -16.641   4.574  1.00  0.00     0.070 A 
HETATM   27  C   UNL     1      44.087 -17.916   5.049  1.00  0.00     0.063 A 
HETATM   28  C   UNL     1      43.957 -19.031   4.221  1.00  0.00     0.075 A 
HETATM   29 CL   UNL     1      44.364 -20.590   4.829  1.00  0.00    -0.081 Cl
HETATM   30  C   UNL     1      43.502 -18.874   2.915  1.00  0.00     0.138 A 
HETATM   31  F   UNL     1      43.367 -19.930   2.101  1.00  0.00    -0.204 F 
HETATM   32  C   UNL     1      43.179 -17.610   2.431  1.00  0.00     0.047 A 
HETATM   33  C   UNL     1      43.312 -16.491   3.259  1.00  0.00     0.040 A 
ENDBRANCH  25  26
ENDBRANCH  24  25
ENDBRANCH  20  24
BRANCH  21  34
HETATM   34  O   UNL     1      41.053 -13.787   4.585  1.00  0.00    -0.355 OA
HETATM   35  C   UNL     1      40.139 -13.112   3.730  1.00  0.00     0.210 C 
ENDBRANCH  21  34
ENDBRANCH   9  18
BRANCH   1  36
HETATM   36  C   UNL     1      41.593  -6.258  14.677  1.00  0.00     0.231 C 
HETATM   37  C   UNL     1      42.268  -6.712  15.958  1.00  0.00     0.034 C 
ENDBRANCH   1  36
TORSDOF 6
ENDMDL
MODEL 3
REMARK VINA RESULT:      -8.2      2.909      4.561
REMARK  6 active torsions:
REMARK  status: ('A' for Active; 'I' for Inactive)
REMARK    1  A    between atoms: C_2  and  N_3 
REMARK    2  A    between atoms: C_11  and  C_12 
REMARK    3  A    between atoms: C_14  and  C_15 
REMARK    4  A    between atoms: C_15  and  O_16 
REMARK    5  A    between atoms: O_16  and  C_17 
REMARK    6  A    between atoms: C_25  and  O_26 
ROOT
HETATM    1  N   UNL     1      40.539  -9.288   5.738  1.00  0.00    -0.067 N 
HETATM    2  H   UNL     1      40.570  -9.269   6.766  1.00  0.00     0.280 HD
HETATM    3  C   UNL     1      39.758 -10.550   5.363  1.00  0.00     0.281 C 
HETATM    4  C   UNL     1      40.544 -11.769   5.709  1.00  0.00     0.018 A 
HETATM    5  C   UNL     1      41.895 -11.791   5.999  1.00  0.00    -0.023 A 
HETATM    6  C   UNL     1      42.329 -13.111   6.346  1.00  0.00     0.073 A 
HETATM    7  C   UNL     1      41.307 -14.025   6.258  1.00  0.00     0.088 A 
HETATM    8  N   UNL     1      41.451 -15.331   6.541  1.00  0.00    -0.358 N 
HETATM    9  C   UNL     1      42.752 -15.898   6.810  1.00  0.00     0.219 C 
HETATM   10  N   UNL     1      43.747 -14.885   7.067  1.00  0.00    -0.332 N 
HETATM   11  C   UNL     1      43.640 -13.558   6.770  1.00  0.00     0.256 C 
HETATM   12  O   UNL     1      44.595 -12.794   6.876  1.00  0.00    -0.267 OA
HETATM   13  S   UNL     1      39.838 -13.316   5.773  1.00  0.00    -0.074 SA
HETATM   14  C   UNL     1      42.721 -10.540   5.985  1.00  0.00     0.068 C 
HETATM   15  C   UNL     1      41.993  -9.389   5.267  1.00  0.00     0.240 C 
HETATM   16  H   UNL     1      40.725 -16.000   6.298  1.00  0.00     0.162 HD
HETATM   17  H   UNL     1      44.672 -15.193   7.324  1.00  0.00     0.165 HD
ENDROOT
BRANCH   9  18
HETATM   18  C   UNL     1      43.168 -16.835   5.692  1.00  0.00    -0.016 A 
HETATM   19  C   UNL     1      43.085 -16.412   4.355  1.00  0.00     0.023 A 
HETATM   20  C   UNL     1      43.446 -17.262   3.290  1.00  0.00    -0.000 A 
HETATM   21  C   UNL     1      43.905 -18.560   3.569  1.00  0.00     0.076 A 
HETATM   22  C   UNL     1      44.015 -18.977   4.898  1.00  0.00     0.038 A 
HETATM   23  C   UNL     1      43.655 -18.124   5.947  1.00  0.00     0.014 A 
BRANCH  20  24
HETATM   24  C   UNL     1      43.333 -16.746   1.870  1.00  0.00     0.217 C 
BRANCH  24  25
HETATM   25  O   UNL     1      43.563 -15.336   1.887  1.00  0.00    -0.347 OA
BRANCH  25  26
HETATM   26  C   UNL     1      42.477 -14.524   1.704  1.00  0.00     0.070 A 
HETATM   27  C   UNL     1      41.602 -14.944   0.696  1.00  0.00     0.063 A 
HETATM   28  C   UNL     1      40.453 -14.207   0.409  1.00  0.00     0.075 A 
HETATM   29 CL   UNL     1      39.391 -14.745  -0.834  1.00  0.00    -0.081 Cl
HETATM   30  C   UNL     1      40.177 -13.048   1.128  1.00  0.00     0.138 A 
HETATM   31  F   UNL     1      39.079 -12.323   0.871  1.00  0.00    -0.204 F 
HETATM   32  C   UNL     1      41.043 -12.618   2.128  1.00  0.00     0.047 A 
HETATM   33  C   UNL     1      42.197 -13.354   2.415  1.00  0.00     0.040 A 
ENDBRANCH  25  26
ENDBRANCH  24  25
ENDBRANCH  20  24
BRANCH  21  34
HETATM   34  O   UNL     1      44.224 -19.332   2.485  1.00  0.00    -0.355 OA
HETATM   35  C   UNL     1      43.261 -20.279   2.039  1.00  0.00     0.210 C 
ENDBRANCH  21  34
ENDBRANCH   9  18
BRANCH   1  36
HETATM   36  C   UNL     1      39.881  -8.016   5.267  1.00  0.00     0.231 C 
HETATM   37  C   UNL     1      40.876  -6.870   5.246  1.00  0.00     0.034 C 
ENDBRANCH   1  36
TORSDOF 6
ENDMDL
MODEL 4
REMARK VINA RESULT:      -8.2      4.302      8.807
REMARK  6 active torsions:
REMARK  status: ('A' for Active; 'I' for Inactive)
REMARK    1  A    between atoms: C_2  and  N_3 
REMARK    2  A    between atoms: C_11  and  C_12 
REMARK    3  A    between atoms: C_14  and  C_15 
REMARK    4  A    between atoms: C_15  and  O_16 
REMARK    5  A    between atoms: O_16  and  C_17 
REMARK    6  A    between atoms: C_25  and  O_26 
ROOT
HETATM    1  N   UNL     1      43.558 -18.368   4.205  1.00  0.00    -0.067 N 
HETATM    2  H   UNL     1      42.690 -18.866   4.440  1.00  0.00     0.280 HD
HETATM    3  C   UNL     1      43.543 -17.079   5.030  1.00  0.00     0.281 C 
HETATM    4  C   UNL     1      42.474 -16.162   4.543  1.00  0.00     0.018 A 
HETATM    5  C   UNL     1      41.819 -16.274   3.332  1.00  0.00    -0.023 A 
HETATM    6  C   UNL     1      40.808 -15.269   3.194  1.00  0.00     0.073 A 
HETATM    7  C   UNL     1      40.777 -14.424   4.277  1.00  0.00     0.088 A 
HETATM    8  N   UNL     1      39.912 -13.401   4.397  1.00  0.00    -0.358 N 
HETATM    9  C   UNL     1      39.046 -13.022   3.305  1.00  0.00     0.219 C 
HETATM   10  N   UNL     1      38.986 -14.035   2.279  1.00  0.00    -0.332 N 
HETATM   11  C   UNL     1      39.861 -15.069   2.115  1.00  0.00     0.256 C 
HETATM   12  O   UNL     1      39.830 -15.790   1.124  1.00  0.00    -0.267 OA
HETATM   13  S   UNL     1      41.939 -14.827   5.452  1.00  0.00    -0.074 SA
HETATM   14  C   UNL     1      42.144 -17.371   2.362  1.00  0.00     0.068 C 
HETATM   15  C   UNL     1      43.479 -18.055   2.707  1.00  0.00     0.240 C 
HETATM   16  H   UNL     1      40.035 -12.699   5.122  1.00  0.00     0.162 HD
HETATM   17  H   UNL     1      38.358 -13.880   1.506  1.00  0.00     0.165 HD
ENDROOT
BRANCH   9  18
HETATM   18  C   UNL     1      39.449 -11.670   2.749  1.00  0.00    -0.016 A 
HETATM   19  C   UNL     1      40.161 -11.592   1.541  1.00  0.00     0.023 A 
HETATM   20  C   UNL     1      40.567 -10.353   1.004  1.00  0.00    -0.000 A 
HETATM   21  C   UNL     1      40.247  -9.167   1.687  1.00  0.00     0.076 A 
HETATM   22  C   UNL     1      39.514  -9.237   2.875  1.00  0.00     0.038 A 
HETATM   23  C   UNL     1      39.116 -10.473   3.398  1.00  0.00     0.014 A 
BRANCH  20  24
HETATM   24  C   UNL     1      41.334 -10.336  -0.302  1.00  0.00     0.217 C 
BRANCH  24  25
HETATM   25  O   UNL     1      40.390 -10.320  -1.375  1.00  0.00    -0.347 OA
BRANCH  25  26
HETATM   26  C   UNL     1      40.020 -11.529  -1.898  1.00  0.00     0.070 A 
HETATM   27  C   UNL     1      38.655 -11.647  -2.178  1.00  0.00     0.063 A 
HETATM   28  C   UNL     1      38.146 -12.829  -2.718  1.00  0.00     0.075 A 
HETATM   29 CL   UNL     1      36.463 -12.951  -3.054  1.00  0.00    -0.081 Cl
HETATM   30  C   UNL     1      39.002 -13.895  -2.979  1.00  0.00     0.138 A 
HETATM   31  F   UNL     1      38.538 -15.039  -3.500  1.00  0.00    -0.204 F 
HETATM   32  C   UNL     1      40.362 -13.789  -2.701  1.00  0.00     0.047 A 
HETATM   33  C   UNL     1      40.872 -12.607  -2.156  1.00  0.00     0.040 A 
ENDBRANCH  25  26
ENDBRANCH  24  25
ENDBRANCH  20  24
BRANCH  21  34
HETATM   34  O   UNL     1      40.685  -8.005   1.113  1.00  0.00    -0.355 OA
HETATM   35  C   UNL     1      40.532  -6.800   1.855  1.00  0.00     0.210 C 
ENDBRANCH  21  34
ENDBRANCH   9  18
BRANCH   1  36
HETATM   36  C   UNL     1      44.719 -19.273   4.529  1.00  0.00     0.231 C 
HETATM   37  C   UNL     1      44.234 -20.572   5.148  1.00  0.00     0.034 C 
ENDBRANCH   1  36
TORSDOF 6
ENDMDL
MODEL 5
REMARK VINA RESULT:      -8.1      2.908      3.528
REMARK  6 active torsions:
REMARK  status: ('A' for Active; 'I' for Inactive)
REMARK    1  A    between atoms: C_2  and  N_3 
REMARK    2  A    between atoms: C_11  and  C_12 
REMARK    3  A    between atoms: C_14  and  C_15 
REMARK    4  A    between atoms: C_15  and  O_16 
REMARK    5  A    between atoms: O_16  and  C_17 
REMARK    6  A    between atoms: C_25  and  O_26 
ROOT
HETATM    1  N   UNL     1      39.975  -8.848  -0.757  1.00  0.00    -0.067 N 
HETATM    2  H   UNL     1      38.958  -8.990  -0.824  1.00  0.00     0.280 HD
HETATM    3  C   UNL     1      40.616 -10.103  -1.352  1.00  0.00     0.281 C 
HETATM    4  C   UNL     1      40.372 -11.280  -0.470  1.00  0.00     0.018 A 
HETATM    5  C   UNL     1      39.943 -11.217   0.842  1.00  0.00    -0.023 A 
HETATM    6  C   UNL     1      39.751 -12.527   1.388  1.00  0.00     0.073 A 
HETATM    7  C   UNL     1      40.085 -13.510   0.487  1.00  0.00     0.088 A 
HETATM    8  N   UNL     1      39.985 -14.825   0.751  1.00  0.00    -0.358 N 
HETATM    9  C   UNL     1      39.663 -15.298   2.077  1.00  0.00     0.219 C 
HETATM   10  N   UNL     1      39.151 -14.248   2.924  1.00  0.00    -0.332 N 
HETATM   11  C   UNL     1      39.257 -12.907   2.696  1.00  0.00     0.256 C 
HETATM   12  O   UNL     1      38.935 -12.082   3.544  1.00  0.00    -0.267 OA
HETATM   13  S   UNL     1      40.616 -12.878  -1.000  1.00  0.00    -0.074 SA
HETATM   14  C   UNL     1      39.680  -9.906   1.520  1.00  0.00     0.068 C 
HETATM   15  C   UNL     1      40.293  -8.731   0.737  1.00  0.00     0.240 C 
HETATM   16  H   UNL     1      40.403 -15.513   0.131  1.00  0.00     0.162 HD
HETATM   17  H   UNL     1      38.844 -14.502   3.849  1.00  0.00     0.165 HD
ENDROOT
BRANCH   9  18
HETATM   18  C   UNL     1      40.856 -16.000   2.697  1.00  0.00    -0.016 A 
HETATM   19  C   UNL     1      41.011 -16.018   4.094  1.00  0.00     0.023 A 
HETATM   20  C   UNL     1      42.116 -16.646   4.704  1.00  0.00    -0.000 A 
HETATM   21  C   UNL     1      43.083 -17.274   3.900  1.00  0.00     0.076 A 
HETATM   22  C   UNL     1      42.920 -17.284   2.513  1.00  0.00     0.038 A 
HETATM   23  C   UNL     1      41.817 -16.658   1.918  1.00  0.00     0.014 A 
BRANCH  20  24
HETATM   24  C   UNL     1      42.227 -16.630   6.215  1.00  0.00     0.217 C 
BRANCH  24  25
HETATM   25  O   UNL     1      41.646 -15.414   6.692  1.00  0.00    -0.347 OA
BRANCH  25  26
HETATM   26  C   UNL     1      42.391 -14.274   6.564  1.00  0.00     0.070 A 
HETATM   27  C   UNL     1      41.678 -13.164   6.098  1.00  0.00     0.063 A 
HETATM   28  C   UNL     1      42.320 -11.937   5.924  1.00  0.00     0.075 A 
HETATM   29 CL   UNL     1      41.421 -10.586   5.351  1.00  0.00    -0.081 Cl
HETATM   30  C   UNL     1      43.675 -11.818   6.215  1.00  0.00     0.138 A 
HETATM   31  F   UNL     1      44.314 -10.650   6.059  1.00  0.00    -0.204 F 
HETATM   32  C   UNL     1      44.395 -12.917   6.675  1.00  0.00     0.047 A 
HETATM   33  C   UNL     1      43.754 -14.148   6.846  1.00  0.00     0.040 A 
ENDBRANCH  25  26
ENDBRANCH  24  25
ENDBRANCH  20  24
BRANCH  21  34
HETATM   34  O   UNL     1      44.134 -17.851   4.561  1.00  0.00    -0.355 OA
HETATM   35  C   UNL     1      44.304 -19.257   4.438  1.00  0.00     0.210 C 
ENDBRANCH  21  34
ENDBRANCH   9  18
BRANCH   1  36
HETATM   36  C   UNL     1      40.320  -7.586  -1.506  1.00  0.00     0.231 C 
HETATM   37  C   UNL     1      41.506  -7.812  -2.427  1.00  0.00     0.034 C 
ENDBRANCH   1  36
TORSDOF 6
ENDMDL
MODEL 6
REMARK VINA RESULT:      -8.1      4.452      8.133
REMARK  6 active torsions:
REMARK  status: ('A' for Active; 'I' for Inactive)
REMARK    1  A    between atoms: C_2  and  N_3 
REMARK    2  A    between atoms: C_11  and  C_12 
REMARK    3  A    between atoms: C_14  and  C_15 
REMARK    4  A    between atoms: C_15  and  O_16 
REMARK    5  A    between atoms: O_16  and  C_17 
REMARK    6  A    between atoms: C_25  and  O_26 
ROOT
HETATM    1  N   UNL     1      43.160 -18.117   3.077  1.00  0.00    -0.067 N 
HETATM    2  H   UNL     1      42.215 -18.512   2.983  1.00  0.00     0.280 HD
HETATM    3  C   UNL     1      43.272 -17.629   4.523  1.00  0.00     0.281 C 
HETATM    4  C   UNL     1      42.381 -16.455   4.745  1.00  0.00     0.018 A 
HETATM    5  C   UNL     1      41.802 -15.693   3.748  1.00  0.00    -0.023 A 
HETATM    6  C   UNL     1      40.957 -14.675   4.297  1.00  0.00     0.073 A 
HETATM    7  C   UNL     1      40.973 -14.685   5.671  1.00  0.00     0.088 A 
HETATM    8  N   UNL     1      40.256 -13.835   6.428  1.00  0.00    -0.358 N 
HETATM    9  C   UNL     1      39.531 -12.736   5.836  1.00  0.00     0.219 C 
HETATM   10  N   UNL     1      39.399 -12.876   4.406  1.00  0.00    -0.332 N 
HETATM   11  C   UNL     1      40.126 -13.710   3.607  1.00  0.00     0.256 C 
HETATM   12  O   UNL     1      40.060 -13.651   2.384  1.00  0.00    -0.267 OA
HETATM   13  S   UNL     1      41.980 -15.901   6.303  1.00  0.00    -0.074 SA
HETATM   14  C   UNL     1      42.034 -15.993   2.297  1.00  0.00     0.068 C 
HETATM   15  C   UNL     1      43.230 -16.941   2.098  1.00  0.00     0.240 C 
HETATM   16  H   UNL     1      40.427 -13.759   7.427  1.00  0.00     0.162 HD
HETATM   17  H   UNL     1      38.854 -12.183   3.917  1.00  0.00     0.165 HD
ENDROOT
BRANCH   9  18
HETATM   18  C   UNL     1      40.160 -11.412   6.223  1.00  0.00    -0.016 A 
HETATM   19  C   UNL     1      39.615 -10.657   7.275  1.00  0.00     0.023 A 
HETATM   20  C   UNL     1      40.162  -9.413   7.651  1.00  0.00    -0.000 A 
HETATM   21  C   UNL     1      41.283  -8.918   6.964  1.00  0.00     0.076 A 
HETATM   22  C   UNL     1      41.848  -9.676   5.935  1.00  0.00     0.038 A 
HETATM   23  C   UNL     1      41.295 -10.910   5.572  1.00  0.00     0.014 A 
BRANCH  20  24
HETATM   24  C   UNL     1      39.527  -8.647   8.793  1.00  0.00     0.217 C 
BRANCH  24  25
HETATM   25  O   UNL     1      39.141  -9.586   9.800  1.00  0.00    -0.347 OA
BRANCH  25  26
HETATM   26  C   UNL     1      39.893  -9.620  10.942  1.00  0.00     0.070 A 
HETATM   27  C   UNL     1      41.179  -9.086  10.807  1.00  0.00     0.063 A 
HETATM   28  C   UNL     1      42.048  -9.057  11.898  1.00  0.00     0.075 A 
HETATM   29 CL   UNL     1      43.625  -8.393  11.707  1.00  0.00    -0.081 Cl
HETATM   30  C   UNL     1      41.633  -9.564  13.126  1.00  0.00     0.138 A 
HETATM   31  F   UNL     1      42.449  -9.546  14.189  1.00  0.00    -0.204 F 
HETATM   32  C   UNL     1      40.358 -10.102  13.270  1.00  0.00     0.047 A 
HETATM   33  C   UNL     1      39.487 -10.134  12.177  1.00  0.00     0.040 A 
ENDBRANCH  25  26
ENDBRANCH  24  25
ENDBRANCH  20  24
BRANCH  21  34
HETATM   34  O   UNL     1      41.752  -7.699   7.375  1.00  0.00    -0.355 OA
HETATM   35  C   UNL     1      41.746  -6.634   6.432  1.00  0.00     0.210 C 
ENDBRANCH  21  34
ENDBRANCH   9  18
BRANCH   1  36
HETATM   36  C   UNL     1      44.154 -19.197   2.731  1.00  0.00     0.231 C 
HETATM   37  C   UNL     1      43.496 -20.297   1.919  1.00  0.00     0.034 C 
ENDBRANCH   1  36
TORSDOF 6
ENDMDL
MODEL 7
REMARK VINA RESULT:      -8.0      3.736      7.860
REMARK  6 active torsions:
REMARK  status: ('A' for Active; 'I' for Inactive)
REMARK    1  A    between atoms: C_2  and  N_3 
REMARK    2  A    between atoms: C_11  and  C_12 
REMARK    3  A    between atoms: C_14  and  C_15 
REMARK    4  A    between atoms: C_15  and  O_16 
REMARK    5  A    between atoms: O_16  and  C_17 
REMARK    6  A    between atoms: C_25  and  O_26 
ROOT
HETATM    1  N   UNL     1      43.177 -18.013   3.271  1.00  0.00    -0.067 N 
HETATM    2  H   UNL     1      42.255 -18.468   3.312  1.00  0.00     0.280 HD
HETATM    3  C   UNL     1      43.361 -17.311   4.618  1.00  0.00     0.281 C 
HETATM    4  C   UNL     1      42.415 -16.166   4.740  1.00  0.00     0.018 A 
HETATM    5  C   UNL     1      41.717 -15.593   3.694  1.00  0.00    -0.023 A 
HETATM    6  C   UNL     1      40.850 -14.551   4.158  1.00  0.00     0.073 A 
HETATM    7  C   UNL     1      40.966 -14.356   5.513  1.00  0.00     0.088 A 
HETATM    8  N   UNL     1      40.253 -13.443   6.196  1.00  0.00    -0.358 N 
HETATM    9  C   UNL     1      39.418 -12.483   5.512  1.00  0.00     0.219 C 
HETATM   10  N   UNL     1      39.191 -12.841   4.133  1.00  0.00    -0.332 N 
HETATM   11  C   UNL     1      39.911 -13.744   3.406  1.00  0.00     0.256 C 
HETATM   12  O   UNL     1      39.753 -13.871   2.197  1.00  0.00    -0.267 OA
HETATM   13  S   UNL     1      42.093 -15.409   6.230  1.00  0.00    -0.074 SA
HETATM   14  C   UNL     1      41.862 -16.092   2.288  1.00  0.00     0.068 C 
HETATM   15  C   UNL     1      43.100 -16.993   2.131  1.00  0.00     0.240 C 
HETATM   16  H   UNL     1      40.491 -13.210   7.156  1.00  0.00     0.162 HD
HETATM   17  H   UNL     1      38.568 -12.258   3.595  1.00  0.00     0.165 HD
ENDROOT
BRANCH   9  18
HETATM   18  C   UNL     1      39.986 -11.085   5.653  1.00  0.00    -0.016 A 
HETATM   19  C   UNL     1      40.093 -10.496   6.924  1.00  0.00     0.023 A 
HETATM   20  C   UNL     1      40.600  -9.191   7.091  1.00  0.00    -0.000 A 
HETATM   21  C   UNL     1      41.015  -8.463   5.962  1.00  0.00     0.076 A 
HETATM   22  C   UNL     1      40.937  -9.054   4.699  1.00  0.00     0.038 A 
HETATM   23  C   UNL     1      40.433 -10.351   4.546  1.00  0.00     0.014 A 
BRANCH  20  24
HETATM   24  C   UNL     1      40.689  -8.611   8.488  1.00  0.00     0.217 C 
BRANCH  24  25
HETATM   25  O   UNL     1      41.634  -9.384   9.232  1.00  0.00    -0.347 OA
BRANCH  25  26
HETATM   26  C   UNL     1      42.956  -9.217   8.925  1.00  0.00     0.070 A 
HETATM   27  C   UNL     1      43.532 -10.288   8.234  1.00  0.00     0.063 A 
HETATM   28  C   UNL     1      44.874 -10.244   7.858  1.00  0.00     0.075 A 
HETATM   29 CL   UNL     1      45.560 -11.575   7.008  1.00  0.00    -0.081 Cl
HETATM   30  C   UNL     1      45.645  -9.129   8.173  1.00  0.00     0.138 A 
HETATM   31  F   UNL     1      46.936  -9.062   7.821  1.00  0.00    -0.204 F 
HETATM   32  C   UNL     1      45.084  -8.059   8.864  1.00  0.00     0.047 A 
HETATM   33  C   UNL     1      43.739  -8.104   9.244  1.00  0.00     0.040 A 
ENDBRANCH  25  26
ENDBRANCH  24  25
ENDBRANCH  20  24
BRANCH  21  34
HETATM   34  O   UNL     1      41.484  -7.199   6.200  1.00  0.00    -0.355 OA
HETATM   35  C   UNL     1      41.643  -6.330   5.085  1.00  0.00     0.210 C 
ENDBRANCH  21  34
ENDBRANCH   9  18
BRANCH   1  36
HETATM   36  C   UNL     1      44.211 -19.078   3.004  1.00  0.00     0.231 C 
HETATM   37  C   UNL     1      43.613 -20.225   2.211  1.00  0.00     0.034 C 
ENDBRANCH   1  36
TORSDOF 6
ENDMDL
MODEL 8
REMARK VINA RESULT:      -7.9      4.475      8.230
REMARK  6 active torsions:
REMARK  status: ('A' for Active; 'I' for Inactive)
REMARK    1  A    between atoms: C_2  and  N_3 
REMARK    2  A    between atoms: C_11  and  C_12 
REMARK    3  A    between atoms: C_14  and  C_15 
REMARK    4  A    between atoms: C_15  and  O_16 
REMARK    5  A    between atoms: O_16  and  C_17 
REMARK    6  A    between atoms: C_25  and  O_26 
ROOT
HETATM    1  N   UNL     1      43.260 -17.894   3.727  1.00  0.00    -0.067 N 
HETATM    2  H   UNL     1      42.361 -18.351   3.931  1.00  0.00     0.280 HD
HETATM    3  C   UNL     1      43.601 -17.062   4.965  1.00  0.00     0.281 C 
HETATM    4  C   UNL     1      42.653 -15.919   5.100  1.00  0.00     0.018 A 
HETATM    5  C   UNL     1      41.814 -15.458   4.104  1.00  0.00    -0.023 A 
HETATM    6  C   UNL     1      40.992 -14.384   4.574  1.00  0.00     0.073 A 
HETATM    7  C   UNL     1      41.276 -14.056   5.878  1.00  0.00     0.088 A 
HETATM    8  N   UNL     1      40.637 -13.087   6.558  1.00  0.00    -0.358 N 
HETATM    9  C   UNL     1      39.700 -12.207   5.900  1.00  0.00     0.219 C 
HETATM   10  N   UNL     1      39.305 -12.700   4.602  1.00  0.00    -0.332 N 
HETATM   11  C   UNL     1      39.946 -13.663   3.878  1.00  0.00     0.256 C 
HETATM   12  O   UNL     1      39.636 -13.909   2.717  1.00  0.00    -0.267 OA
HETATM   13  S   UNL     1      42.509 -15.024   6.540  1.00  0.00    -0.074 SA
HETATM   14  C   UNL     1      41.788 -16.090   2.744  1.00  0.00     0.068 C 
HETATM   15  C   UNL     1      43.014 -16.991   2.515  1.00  0.00     0.240 C 
HETATM   16  H   UNL     1      40.991 -12.760   7.452  1.00  0.00     0.162 HD
HETATM   17  H   UNL     1      38.606 -12.178   4.097  1.00  0.00     0.165 HD
ENDROOT
BRANCH   9  18
HETATM   18  C   UNL     1      40.251 -10.796   5.831  1.00  0.00    -0.016 A 
HETATM   19  C   UNL     1      40.984 -10.276   6.911  1.00  0.00     0.023 A 
HETATM   20  C   UNL     1      41.496  -8.963   6.889  1.00  0.00    -0.000 A 
HETATM   21  C   UNL     1      41.276  -8.156   5.760  1.00  0.00     0.076 A 
HETATM   22  C   UNL     1      40.571  -8.676   4.672  1.00  0.00     0.038 A 
HETATM   23  C   UNL     1      40.068  -9.983   4.705  1.00  0.00     0.014 A 
BRANCH  20  24
HETATM   24  C   UNL     1      42.278  -8.460   8.085  1.00  0.00     0.217 C 
BRANCH  24  25
HETATM   25  O   UNL     1      42.523  -9.567   8.956  1.00  0.00    -0.347 OA
BRANCH  25  26
HETATM   26  C   UNL     1      42.571  -9.307  10.298  1.00  0.00     0.070 A 
HETATM   27  C   UNL     1      41.486  -9.807  11.025  1.00  0.00     0.063 A 
HETATM   28  C   UNL     1      41.413  -9.614  12.405  1.00  0.00     0.075 A 
HETATM   29 CL   UNL     1      40.069 -10.240  13.279  1.00  0.00    -0.081 Cl
HETATM   30  C   UNL     1      42.426  -8.918  13.060  1.00  0.00     0.138 A 
HETATM   31  F   UNL     1      42.380  -8.720  14.385  1.00  0.00    -0.204 F 
HETATM   32  C   UNL     1      43.507  -8.411  12.345  1.00  0.00     0.047 A 
HETATM   33  C   UNL     1      43.579  -8.603  10.962  1.00  0.00     0.040 A 
ENDBRANCH  25  26
ENDBRANCH  24  25
ENDBRANCH  20  24
BRANCH  21  34
HETATM   34  O   UNL     1      41.791  -6.889   5.815  1.00  0.00    -0.355 OA
HETATM   35  C   UNL     1      41.763  -6.109   4.626  1.00  0.00     0.210 C 
ENDBRANCH  21  34
ENDBRANCH   9  18
BRANCH   1  36
HETATM   36  C   UNL     1      44.274 -18.970   3.431  1.00  0.00     0.231 C 
HETATM   37  C   UNL     1      43.734 -19.955   2.410  1.00  0.00     0.034 C 
ENDBRANCH   1  36
TORSDOF 6
ENDMDL
MODEL 9
REMARK VINA RESULT:      -7.7      3.973      8.112
REMARK  6 active torsions:
REMARK  status: ('A' for Active; 'I' for Inactive)
REMARK    1  A    between atoms: C_2  and  N_3 
REMARK    2  A    between atoms: C_11  and  C_12 
REMARK    3  A    between atoms: C_14  and  C_15 
REMARK    4  A    between atoms: C_15  and  O_16 
REMARK    5  A    between atoms: O_16  and  C_17 
REMARK    6  A    between atoms: C_25  and  O_26 
ROOT
HETATM    1  N   UNL     1      44.027 -18.801   4.578  1.00  0.00    -0.067 N 
HETATM    2  H   UNL     1      45.008 -18.504   4.665  1.00  0.00     0.280 HD
HETATM    3  C   UNL     1      43.417 -17.924   3.482  1.00  0.00     0.281 C 
HETATM    4  C   UNL     1      43.312 -16.511   3.944  1.00  0.00     0.018 A 
HETATM    5  C   UNL     1      43.415 -16.093   5.257  1.00  0.00    -0.023 A 
HETATM    6  C   UNL     1      43.326 -14.667   5.356  1.00  0.00     0.073 A 
HETATM    7  C   UNL     1      43.116 -14.083   4.130  1.00  0.00     0.088 A 
HETATM    8  N   UNL     1      43.006 -12.755   3.948  1.00  0.00    -0.358 N 
HETATM    9  C   UNL     1      42.944 -11.850   5.072  1.00  0.00     0.219 C 
HETATM   10  N   UNL     1      43.346 -12.481   6.306  1.00  0.00    -0.332 N 
HETATM   11  C   UNL     1      43.444 -13.824   6.528  1.00  0.00     0.256 C 
HETATM   12  O   UNL     1      43.638 -14.279   7.650  1.00  0.00    -0.267 OA
HETATM   13  S   UNL     1      43.032 -15.222   2.870  1.00  0.00    -0.074 SA
HETATM   14  C   UNL     1      43.646 -17.065   6.375  1.00  0.00     0.068 C 
HETATM   15  C   UNL     1      43.371 -18.514   5.932  1.00  0.00     0.240 C 
HETATM   16  H   UNL     1      42.679 -12.376   3.064  1.00  0.00     0.162 HD
HETATM   17  H   UNL     1      43.391 -11.906   7.132  1.00  0.00     0.165 HD
ENDROOT
BRANCH   9  18
HETATM   18  C   UNL     1      41.568 -11.221   5.176  1.00  0.00    -0.016 A 
HETATM   19  C   UNL     1      41.087 -10.788   6.423  1.00  0.00     0.023 A 
HETATM   20  C   UNL     1      39.806 -10.215   6.560  1.00  0.00    -0.000 A 
HETATM   21  C   UNL     1      38.992 -10.066   5.424  1.00  0.00     0.076 A 
HETATM   22  C   UNL     1      39.476 -10.469   4.176  1.00  0.00     0.038 A 
HETATM   23  C   UNL     1      40.750 -11.036   4.053  1.00  0.00     0.014 A 
BRANCH  20  24
HETATM   24  C   UNL     1      39.344  -9.770   7.932  1.00  0.00     0.217 C 
BRANCH  24  25
HETATM   25  O   UNL     1      40.266  -8.791   8.418  1.00  0.00    -0.347 OA
BRANCH  25  26
HETATM   26  C   UNL     1      40.960  -9.098   9.556  1.00  0.00     0.070 A 
HETATM   27  C   UNL     1      40.167  -9.554  10.614  1.00  0.00     0.063 A 
HETATM   28  C   UNL     1      40.751  -9.905  11.832  1.00  0.00     0.075 A 
HETATM   29 CL   UNL     1      39.754 -10.464  13.119  1.00  0.00    -0.081 Cl
HETATM   30  C   UNL     1      42.129  -9.798  11.994  1.00  0.00     0.138 A 
HETATM   31  F   UNL     1      42.713 -10.131  13.153  1.00  0.00    -0.204 F 
HETATM   32  C   UNL     1      42.927  -9.342  10.950  1.00  0.00     0.047 A 
HETATM   33  C   UNL     1      42.342  -8.987   9.729  1.00  0.00     0.040 A 
ENDBRANCH  25  26
ENDBRANCH  24  25
ENDBRANCH  20  24
BRANCH  21  34
HETATM   34  O   UNL     1      37.758  -9.514   5.635  1.00  0.00    -0.355 OA
HETATM   35  C   UNL     1      37.497  -8.236   5.069  1.00  0.00     0.210 C 
ENDBRANCH  21  34
ENDBRANCH   9  18
BRANCH   1  36
HETATM   36  C   UNL     1      44.012 -20.272   4.246  1.00  0.00     0.231 C 
HETATM   37  C   UNL     1      43.703 -20.490   2.776  1.00  0.00     0.034 C 
ENDBRANCH   1  36
TORSDOF 6
ENDMDL
MODEL 10
REMARK VINA RESULT:      -7.7     15.544     17.830
REMARK  6 active torsions:
REMARK  status: ('A' for Active; 'I' for Inactive)
REMARK    1  A    between atoms: C_2  and  N_3 
REMARK    2  A    between atoms: C_11  and  C_12 
REMARK    3  A    between atoms: C_14  and  C_15 
REMARK    4  A    between atoms: C_15  and  O_16 
REMARK    5  A    between atoms: O_16  and  C_17 
REMARK    6  A    between atoms: C_25  and  O_26 
ROOT
HETATM    1  N   UNL     1      42.459 -30.409   3.721  1.00  0.00    -0.067 N 
HETATM    2  H   UNL     1      42.701 -29.824   4.531  1.00  0.00     0.280 HD
HETATM    3  C   UNL     1      43.376 -31.632   3.796  1.00  0.00     0.281 C 
HETATM    4  C   UNL     1      44.789 -31.240   3.532  1.00  0.00     0.018 A 
HETATM    5  C   UNL     1      45.192 -30.045   2.967  1.00  0.00    -0.023 A 
HETATM    6  C   UNL     1      46.620 -29.957   2.903  1.00  0.00     0.073 A 
HETATM    7  C   UNL     1      47.224 -31.097   3.376  1.00  0.00     0.088 A 
HETATM    8  N   UNL     1      48.557 -31.263   3.432  1.00  0.00    -0.358 N 
HETATM    9  C   UNL     1      49.456 -30.298   2.844  1.00  0.00     0.219 C 
HETATM   10  N   UNL     1      48.794 -29.054   2.530  1.00  0.00    -0.332 N 
HETATM   11  C   UNL     1      47.447 -28.860   2.441  1.00  0.00     0.256 C 
HETATM   12  O   UNL     1      46.973 -27.812   2.014  1.00  0.00    -0.267 OA
HETATM   13  S   UNL     1      46.100 -32.262   3.898  1.00  0.00    -0.074 SA
HETATM   14  C   UNL     1      44.200 -29.000   2.550  1.00  0.00     0.068 C 
HETATM   15  C   UNL     1      42.773 -29.571   2.478  1.00  0.00     0.240 C 
HETATM   16  H   UNL     1      48.960 -32.177   3.621  1.00  0.00     0.162 HD
HETATM   17  H   UNL     1      49.360 -28.302   2.171  1.00  0.00     0.165 HD
ENDROOT
BRANCH   9  18
HETATM   18  C   UNL     1      50.159 -30.890   1.638  1.00  0.00    -0.016 A 
HETATM   19  C   UNL     1      49.911 -30.370   0.356  1.00  0.00     0.023 A 
HETATM   20  C   UNL     1      50.533 -30.907  -0.790  1.00  0.00    -0.000 A 
HETATM   21  C   UNL     1      51.428 -31.981  -0.649  1.00  0.00     0.076 A 
HETATM   22  C   UNL     1      51.701 -32.484   0.626  1.00  0.00     0.038 A 
HETATM   23  C   UNL     1      51.077 -31.942   1.756  1.00  0.00     0.014 A 
BRANCH  20  24
HETATM   24  C   UNL     1      50.223 -30.303  -2.144  1.00  0.00     0.217 C 
BRANCH  24  25
HETATM   25  O   UNL     1      48.915 -30.729  -2.533  1.00  0.00    -0.347 OA
BRANCH  25  26
HETATM   26  C   UNL     1      47.857 -29.995  -2.072  1.00  0.00     0.070 A 
HETATM   27  C   UNL     1      46.773 -30.757  -1.623  1.00  0.00     0.063 A 
HETATM   28  C   UNL     1      45.630 -30.131  -1.124  1.00  0.00     0.075 A 
HETATM   29 CL   UNL     1      44.311 -31.091  -0.576  1.00  0.00    -0.081 Cl
HETATM   30  C   UNL     1      45.569 -28.742  -1.074  1.00  0.00     0.138 A 
HETATM   31  F   UNL     1      44.483 -28.118  -0.597  1.00  0.00    -0.204 F 
HETATM   32  C   UNL     1      46.639 -27.974  -1.522  1.00  0.00     0.047 A 
HETATM   33  C   UNL     1      47.783 -28.600  -2.025  1.00  0.00     0.040 A 
ENDBRANCH  25  26
ENDBRANCH  24  25
ENDBRANCH  20  24
BRANCH  21  34
HETATM   34  O   UNL     1      51.984 -32.458  -1.805  1.00  0.00    -0.355 OA
HETATM   35  C   UNL     1      53.400 -32.417  -1.926  1.00  0.00     0.210 C 
ENDBRANCH  21  34
ENDBRANCH   9  18
BRANCH   1  36
HETATM   36  C   UNL     1      40.994 -30.753   3.813  1.00  0.00     0.231 C 
HETATM   37  C   UNL     1      40.588 -31.691   2.691  1.00  0.00     0.034 C 
ENDBRANCH   1  36
TORSDOF 6
ENDMDL
