MODEL 1
REMARK VINA RESULT:      -9.5      0.000      0.000
REMARK  4 active torsions:
REMARK  status: ('A' for Active; 'I' for Inactive)
REMARK    1  A    between atoms: C_6  and  C_7 
REMARK    2  A    between atoms: C_14  and  C_15 
REMARK       I    between atoms: C_15  and  N_16 
REMARK    3  A    between atoms: N_16  and  N_17 
REMARK       I    between atoms: N_17  and  C_18 
REMARK       I    between atoms: C_18  and  N_19 
REMARK    4  A    between atoms: N_19  and  C_20 
ROOT
HETATM    1  C   UNL     1      42.613 -14.470   5.835  1.00  0.00     0.271 C 
HETATM    2  N   UNL     1      43.553 -13.476   5.983  1.00  0.00    -0.262 N 
HETATM    3  O   UNL     1      41.879 -14.850   6.740  1.00  0.00    -0.266 OA
HETATM    4  H   UNL     1      44.167 -13.139   5.241  1.00  0.00     0.190 HD
ENDROOT
BRANCH   1   5
HETATM    5  C   UNL     1      42.549 -15.065   4.480  1.00  0.00     0.048 A 
HETATM    6  C   UNL     1      43.129 -16.321   4.206  1.00  0.00     0.009 A 
HETATM    7  C   UNL     1      43.822 -17.125   5.148  1.00  0.00     0.015 A 
HETATM    8  C   UNL     1      42.968 -16.797   2.893  1.00  0.00     0.068 A 
HETATM    9  C   UNL     1      44.342 -18.367   4.789  1.00  0.00     0.001 A 
HETATM   10  C   UNL     1      44.177 -18.825   3.490  1.00  0.00     0.002 A 
HETATM   11  C   UNL     1      43.495 -18.037   2.561  1.00  0.00     0.032 A 
HETATM   12  N   UNL     1      42.316 -16.106   1.941  1.00  0.00    -0.248 NA
HETATM   13  C   UNL     1      41.787 -14.888   2.219  1.00  0.00     0.070 A 
HETATM   14  C   UNL     1      41.881 -14.342   3.488  1.00  0.00     0.050 A 
BRANCH  13  15
HETATM   15  C   UNL     1      41.102 -14.223   1.097  1.00  0.00     0.010 A 
HETATM   16  C   UNL     1      41.280 -12.872   0.789  1.00  0.00     0.130 A 
HETATM   17  N   UNL     1      40.661 -12.210  -0.220  1.00  0.00    -0.272 NA
HETATM   18  C   UNL     1      39.818 -12.929  -0.989  1.00  0.00     0.116 A 
HETATM   19  C   UNL     1      39.570 -14.276  -0.795  1.00  0.00     0.020 A 
HETATM   20  C   UNL     1      40.220 -14.921   0.256  1.00  0.00     0.017 A 
ENDBRANCH  13  15
ENDBRANCH   1   5
BRANCH   2  21
HETATM   21  N   UNL     1      43.678 -12.844   7.227  1.00  0.00    -0.249 N 
HETATM   22  C   UNL     1      43.320 -11.505   7.278  1.00  0.00     0.339 C 
HETATM   23  N   UNL     1      43.544 -10.967   8.527  1.00  0.00    -0.308 N 
HETATM   24  O   UNL     1      42.824 -10.941   6.309  1.00  0.00    -0.245 OA
HETATM   25  H   UNL     1      43.792 -11.633   9.245  1.00  0.00     0.170 HD
HETATM   26  H   UNL     1      44.453 -13.184   7.794  1.00  0.00     0.192 HD
BRANCH  23  27
HETATM   27  C   UNL     1      43.301  -9.643   8.944  1.00  0.00     0.038 A 
HETATM   28  C   UNL     1      42.161  -9.242   9.645  1.00  0.00     0.055 A 
HETATM   29  C   UNL     1      41.996  -7.907  10.036  1.00  0.00     0.058 A 
HETATM   30 CL   UNL     1      40.558  -7.492  10.902  1.00  0.00    -0.082 Cl
HETATM   31  C   UNL     1      42.975  -6.959   9.722  1.00  0.00     0.055 A 
HETATM   32 CL   UNL     1      42.844  -5.298  10.177  1.00  0.00    -0.083 Cl
HETATM   33  C   UNL     1      44.111  -7.351   9.013  1.00  0.00     0.028 A 
HETATM   34  C   UNL     1      44.271  -8.685   8.623  1.00  0.00     0.031 A 
ENDBRANCH  23  27
ENDBRANCH   2  21
TORSDOF 4
ENDMDL
MODEL 2
REMARK VINA RESULT:      -9.3      4.709      8.899
REMARK  4 active torsions:
REMARK  status: ('A' for Active; 'I' for Inactive)
REMARK    1  A    between atoms: C_6  and  C_7 
REMARK    2  A    between atoms: C_14  and  C_15 
REMARK       I    between atoms: C_15  and  N_16 
REMARK    3  A    between atoms: N_16  and  N_17 
REMARK       I    between atoms: N_17  and  C_18 
REMARK       I    between atoms: C_18  and  N_19 
REMARK    4  A    between atoms: N_19  and  C_20 
ROOT
HETATM    1  C   UNL     1      40.957 -15.236   1.591  1.00  0.00     0.271 C 
HETATM    2  N   UNL     1      41.476 -14.507   0.546  1.00  0.00    -0.262 N 
HETATM    3  O   UNL     1      39.845 -15.754   1.572  1.00  0.00    -0.266 OA
HETATM    4  H   UNL     1      42.401 -14.077   0.538  1.00  0.00     0.190 HD
ENDROOT
BRANCH   1   5
HETATM    5  C   UNL     1      41.848 -15.352   2.768  1.00  0.00     0.048 A 
HETATM    6  C   UNL     1      42.551 -16.545   3.036  1.00  0.00     0.009 A 
HETATM    7  C   UNL     1      42.483 -17.727   2.254  1.00  0.00     0.015 A 
HETATM    8  C   UNL     1      43.395 -16.519   4.160  1.00  0.00     0.068 A 
HETATM    9  C   UNL     1      43.235 -18.853   2.587  1.00  0.00     0.001 A 
HETATM   10  C   UNL     1      44.064 -18.815   3.698  1.00  0.00     0.002 A 
HETATM   11  C   UNL     1      44.133 -17.653   4.469  1.00  0.00     0.032 A 
HETATM   12  N   UNL     1      43.528 -15.437   4.948  1.00  0.00    -0.248 NA
HETATM   13  C   UNL     1      42.824 -14.308   4.687  1.00  0.00     0.070 A 
HETATM   14  C   UNL     1      41.978 -14.231   3.594  1.00  0.00     0.050 A 
BRANCH  13  15
HETATM   15  C   UNL     1      43.046 -13.191   5.622  1.00  0.00     0.010 A 
HETATM   16  C   UNL     1      43.932 -13.265   6.699  1.00  0.00     0.130 A 
HETATM   17  N   UNL     1      44.159 -12.274   7.597  1.00  0.00    -0.272 NA
HETATM   18  C   UNL     1      43.479 -11.124   7.414  1.00  0.00     0.116 A 
HETATM   19  C   UNL     1      42.586 -10.923   6.377  1.00  0.00     0.020 A 
HETATM   20  C   UNL     1      42.374 -11.967   5.478  1.00  0.00     0.017 A 
ENDBRANCH  13  15
ENDBRANCH   1   5
BRANCH   2  21
HETATM   21  N   UNL     1      40.709 -14.354  -0.618  1.00  0.00    -0.249 N 
HETATM   22  C   UNL     1      40.190 -13.090  -0.853  1.00  0.00     0.339 C 
HETATM   23  N   UNL     1      39.401 -13.068  -1.983  1.00  0.00    -0.308 N 
HETATM   24  O   UNL     1      40.478 -12.139  -0.134  1.00  0.00    -0.245 OA
HETATM   25  H   UNL     1      39.426 -13.909  -2.543  1.00  0.00     0.170 HD
HETATM   26  H   UNL     1      40.171 -15.180  -0.877  1.00  0.00     0.192 HD
BRANCH  23  27
HETATM   27  C   UNL     1      38.713 -11.963  -2.523  1.00  0.00     0.038 A 
HETATM   28  C   UNL     1      39.338 -10.902  -3.183  1.00  0.00     0.055 A 
HETATM   29  C   UNL     1      38.584  -9.842  -3.705  1.00  0.00     0.058 A 
HETATM   30 CL   UNL     1      39.433  -8.568  -4.510  1.00  0.00    -0.082 Cl
HETATM   31  C   UNL     1      37.193  -9.837  -3.566  1.00  0.00     0.055 A 
HETATM   32 CL   UNL     1      36.199  -8.571  -4.189  1.00  0.00    -0.083 Cl
HETATM   33  C   UNL     1      36.564 -10.890  -2.899  1.00  0.00     0.028 A 
HETATM   34  C   UNL     1      37.321 -11.944  -2.378  1.00  0.00     0.031 A 
ENDBRANCH  23  27
ENDBRANCH   2  21
TORSDOF 4
ENDMDL
MODEL 3
REMARK VINA RESULT:      -9.2      1.746      4.561
REMARK  4 active torsions:
REMARK  status: ('A' for Active; 'I' for Inactive)
REMARK    1  A    between atoms: C_6  and  C_7 
REMARK    2  A    between atoms: C_14  and  C_15 
REMARK       I    between atoms: C_15  and  N_16 
REMARK    3  A    between atoms: N_16  and  N_17 
REMARK       I    between atoms: N_17  and  C_18 
REMARK       I    between atoms: C_18  and  N_19 
REMARK    4  A    between atoms: N_19  and  C_20 
ROOT
HETATM    1  C   UNL     1      43.316 -12.543   3.476  1.00  0.00     0.271 C 
HETATM    2  N   UNL     1      43.535 -12.620   4.832  1.00  0.00    -0.262 N 
HETATM    3  O   UNL     1      43.581 -11.555   2.800  1.00  0.00    -0.266 OA
HETATM    4  H   UNL     1      43.330 -13.434   5.411  1.00  0.00     0.190 HD
ENDROOT
BRANCH   1   5
HETATM    5  C   UNL     1      42.722 -13.759   2.875  1.00  0.00     0.048 A 
HETATM    6  C   UNL     1      41.707 -13.671   1.900  1.00  0.00     0.009 A 
HETATM    7  C   UNL     1      41.151 -12.463   1.407  1.00  0.00     0.015 A 
HETATM    8  C   UNL     1      41.251 -14.894   1.378  1.00  0.00     0.068 A 
HETATM    9  C   UNL     1      40.165 -12.475   0.421  1.00  0.00     0.001 A 
HETATM   10  C   UNL     1      39.723 -13.688  -0.086  1.00  0.00     0.002 A 
HETATM   11  C   UNL     1      40.270 -14.879   0.397  1.00  0.00     0.032 A 
HETATM   12  N   UNL     1      41.733 -16.084   1.779  1.00  0.00    -0.248 NA
HETATM   13  C   UNL     1      42.690 -16.148   2.737  1.00  0.00     0.070 A 
HETATM   14  C   UNL     1      43.214 -14.997   3.302  1.00  0.00     0.050 A 
BRANCH  13  15
HETATM   15  C   UNL     1      43.135 -17.505   3.101  1.00  0.00     0.010 A 
HETATM   16  C   UNL     1      43.616 -17.834   4.370  1.00  0.00     0.130 A 
HETATM   17  N   UNL     1      44.052 -19.062   4.750  1.00  0.00    -0.272 NA
HETATM   18  C   UNL     1      43.999 -20.036   3.820  1.00  0.00     0.116 A 
HETATM   19  C   UNL     1      43.530 -19.840   2.534  1.00  0.00     0.020 A 
HETATM   20  C   UNL     1      43.095 -18.564   2.179  1.00  0.00     0.017 A 
ENDBRANCH  13  15
ENDBRANCH   1   5
BRANCH   2  21
HETATM   21  N   UNL     1      44.108 -11.520   5.487  1.00  0.00    -0.249 N 
HETATM   22  C   UNL     1      43.665 -11.272   6.778  1.00  0.00     0.339 C 
HETATM   23  N   UNL     1      44.241 -10.134   7.301  1.00  0.00    -0.308 N 
HETATM   24  O   UNL     1      42.894 -12.038   7.345  1.00  0.00    -0.245 OA
HETATM   25  H   UNL     1      44.987  -9.735   6.748  1.00  0.00     0.170 HD
HETATM   26  H   UNL     1      44.342 -10.743   4.873  1.00  0.00     0.192 HD
BRANCH  23  27
HETATM   27  C   UNL     1      44.028  -9.578   8.578  1.00  0.00     0.038 A 
HETATM   28  C   UNL     1      43.336  -8.385   8.804  1.00  0.00     0.055 A 
HETATM   29  C   UNL     1      43.153  -7.901  10.106  1.00  0.00     0.058 A 
HETATM   30 CL   UNL     1      42.285  -6.419  10.301  1.00  0.00    -0.082 Cl
HETATM   31  C   UNL     1      43.668  -8.611  11.196  1.00  0.00     0.055 A 
HETATM   32 CL   UNL     1      43.477  -8.080  12.828  1.00  0.00    -0.083 Cl
HETATM   33  C   UNL     1      44.369  -9.797  10.976  1.00  0.00     0.028 A 
HETATM   34  C   UNL     1      44.551 -10.276   9.674  1.00  0.00     0.031 A 
ENDBRANCH  23  27
ENDBRANCH   2  21
TORSDOF 4
ENDMDL
MODEL 4
REMARK VINA RESULT:      -9.1      1.411      4.167
REMARK  4 active torsions:
REMARK  status: ('A' for Active; 'I' for Inactive)
REMARK    1  A    between atoms: C_6  and  C_7 
REMARK    2  A    between atoms: C_14  and  C_15 
REMARK       I    between atoms: C_15  and  N_16 
REMARK    3  A    between atoms: N_16  and  N_17 
REMARK       I    between atoms: N_17  and  C_18 
REMARK       I    between atoms: C_18  and  N_19 
REMARK    4  A    between atoms: N_19  and  C_20 
ROOT
HETATM    1  C   UNL     1      42.818 -14.239   6.228  1.00  0.00     0.271 C 
HETATM    2  N   UNL     1      43.773 -13.253   6.320  1.00  0.00    -0.262 N 
HETATM    3  O   UNL     1      42.088 -14.566   7.157  1.00  0.00    -0.266 OA
HETATM    4  H   UNL     1      44.383 -12.959   5.558  1.00  0.00     0.190 HD
ENDROOT
BRANCH   1   5
HETATM    5  C   UNL     1      42.731 -14.894   4.903  1.00  0.00     0.048 A 
HETATM    6  C   UNL     1      42.333 -14.175   3.757  1.00  0.00     0.009 A 
HETATM    7  C   UNL     1      41.975 -12.802   3.738  1.00  0.00     0.015 A 
HETATM    8  C   UNL     1      42.327 -14.898   2.551  1.00  0.00     0.068 A 
HETATM    9  C   UNL     1      41.617 -12.169   2.548  1.00  0.00     0.001 A 
HETATM   10  C   UNL     1      41.614 -12.893   1.365  1.00  0.00     0.002 A 
HETATM   11  C   UNL     1      41.968 -14.244   1.381  1.00  0.00     0.032 A 
HETATM   12  N   UNL     1      42.664 -16.198   2.478  1.00  0.00    -0.248 NA
HETATM   13  C   UNL     1      43.019 -16.877   3.596  1.00  0.00     0.070 A 
HETATM   14  C   UNL     1      43.070 -16.249   4.829  1.00  0.00     0.050 A 
BRANCH  13  15
HETATM   15  C   UNL     1      43.362 -18.297   3.394  1.00  0.00     0.010 A 
HETATM   16  C   UNL     1      43.938 -19.090   4.388  1.00  0.00     0.130 A 
HETATM   17  N   UNL     1      44.287 -20.394   4.248  1.00  0.00    -0.272 NA
HETATM   18  C   UNL     1      44.039 -20.960   3.049  1.00  0.00     0.116 A 
HETATM   19  C   UNL     1      43.459 -20.284   1.992  1.00  0.00     0.020 A 
HETATM   20  C   UNL     1      43.119 -18.945   2.172  1.00  0.00     0.017 A 
ENDBRANCH  13  15
ENDBRANCH   1   5
BRANCH   2  21
HETATM   21  N   UNL     1      43.920 -12.566   7.533  1.00  0.00    -0.249 N 
HETATM   22  C   UNL     1      43.418 -11.273   7.576  1.00  0.00     0.339 C 
HETATM   23  N   UNL     1      43.674 -10.669   8.787  1.00  0.00    -0.308 N 
HETATM   24  O   UNL     1      42.789 -10.803   6.633  1.00  0.00    -0.245 OA
HETATM   25  H   UNL     1      44.050 -11.277   9.502  1.00  0.00     0.170 HD
HETATM   26  H   UNL     1      44.769 -12.797   8.046  1.00  0.00     0.192 HD
BRANCH  23  27
HETATM   27  C   UNL     1      43.316  -9.366   9.185  1.00  0.00     0.038 A 
HETATM   28  C   UNL     1      42.239  -9.074  10.026  1.00  0.00     0.055 A 
HETATM   29  C   UNL     1      41.952  -7.751  10.387  1.00  0.00     0.058 A 
HETATM   30 CL   UNL     1      40.604  -7.475  11.434  1.00  0.00    -0.082 Cl
HETATM   31  C   UNL     1      42.744  -6.705   9.902  1.00  0.00     0.055 A 
HETATM   32 CL   UNL     1      42.456  -5.053  10.309  1.00  0.00    -0.083 Cl
HETATM   33  C   UNL     1      43.814  -6.989   9.053  1.00  0.00     0.028 A 
HETATM   34  C   UNL     1      44.096  -8.311   8.694  1.00  0.00     0.031 A 
ENDBRANCH  23  27
ENDBRANCH   2  21
TORSDOF 4
ENDMDL
MODEL 5
REMARK VINA RESULT:      -8.8      1.992      4.591
REMARK  4 active torsions:
REMARK  status: ('A' for Active; 'I' for Inactive)
REMARK    1  A    between atoms: C_6  and  C_7 
REMARK    2  A    between atoms: C_14  and  C_15 
REMARK       I    between atoms: C_15  and  N_16 
REMARK    3  A    between atoms: N_16  and  N_17 
REMARK       I    between atoms: N_17  and  C_18 
REMARK       I    between atoms: C_18  and  N_19 
REMARK    4  A    between atoms: N_19  and  C_20 
ROOT
HETATM    1  C   UNL     1      40.391 -12.400   4.225  1.00  0.00     0.271 C 
HETATM    2  N   UNL     1      41.340 -11.410   4.336  1.00  0.00    -0.262 N 
HETATM    3  O   UNL     1      39.341 -12.409   4.859  1.00  0.00    -0.266 OA
HETATM    4  H   UNL     1      42.214 -11.379   3.812  1.00  0.00     0.190 HD
ENDROOT
BRANCH   1   5
HETATM    5  C   UNL     1      40.731 -13.479   3.269  1.00  0.00     0.048 A 
HETATM    6  C   UNL     1      40.272 -13.445   1.936  1.00  0.00     0.009 A 
HETATM    7  C   UNL     1      39.458 -12.426   1.378  1.00  0.00     0.015 A 
HETATM    8  C   UNL     1      40.694 -14.506   1.116  1.00  0.00     0.068 A 
HETATM    9  C   UNL     1      39.073 -12.467   0.039  1.00  0.00     0.001 A 
HETATM   10  C   UNL     1      39.495 -13.519  -0.760  1.00  0.00     0.002 A 
HETATM   11  C   UNL     1      40.297 -14.523  -0.214  1.00  0.00     0.032 A 
HETATM   12  N   UNL     1      41.476 -15.506   1.560  1.00  0.00    -0.248 NA
HETATM   13  C   UNL     1      41.886 -15.533   2.853  1.00  0.00     0.070 A 
HETATM   14  C   UNL     1      41.535 -14.524   3.734  1.00  0.00     0.050 A 
BRANCH  13  15
HETATM   15  C   UNL     1      42.733 -16.679   3.226  1.00  0.00     0.010 A 
HETATM   16  C   UNL     1      43.441 -16.743   4.428  1.00  0.00     0.130 A 
HETATM   17  N   UNL     1      44.247 -17.766   4.811  1.00  0.00    -0.272 NA
HETATM   18  C   UNL     1      44.352 -18.804   3.958  1.00  0.00     0.116 A 
HETATM   19  C   UNL     1      43.690 -18.866   2.745  1.00  0.00     0.020 A 
HETATM   20  C   UNL     1      42.875 -17.794   2.384  1.00  0.00     0.017 A 
ENDBRANCH  13  15
ENDBRANCH   1   5
BRANCH   2  21
HETATM   21  N   UNL     1      41.099 -10.338   5.207  1.00  0.00    -0.249 N 
HETATM   22  C   UNL     1      41.727 -10.393   6.442  1.00  0.00     0.339 C 
HETATM   23  N   UNL     1      41.370  -9.329   7.241  1.00  0.00    -0.308 N 
HETATM   24  O   UNL     1      42.530 -11.281   6.709  1.00  0.00    -0.245 OA
HETATM   25  H   UNL     1      40.834  -8.606   6.782  1.00  0.00     0.170 HD
HETATM   26  H   UNL     1      40.166  -9.938   5.130  1.00  0.00     0.192 HD
BRANCH  23  27
HETATM   27  C   UNL     1      41.808  -9.060   8.553  1.00  0.00     0.038 A 
HETATM   28  C   UNL     1      41.061  -9.344   9.699  1.00  0.00     0.055 A 
HETATM   29  C   UNL     1      41.571  -9.059  10.973  1.00  0.00     0.058 A 
HETATM   30 CL   UNL     1      40.585  -9.443  12.341  1.00  0.00    -0.082 Cl
HETATM   31  C   UNL     1      42.836  -8.480  11.107  1.00  0.00     0.055 A 
HETATM   32 CL   UNL     1      43.532  -8.106  12.643  1.00  0.00    -0.083 Cl
HETATM   33  C   UNL     1      43.583  -8.183   9.966  1.00  0.00     0.028 A 
HETATM   34  C   UNL     1      43.070  -8.469   8.696  1.00  0.00     0.031 A 
ENDBRANCH  23  27
ENDBRANCH   2  21
TORSDOF 4
ENDMDL
MODEL 6
REMARK VINA RESULT:      -8.7      1.894      2.490
REMARK  4 active torsions:
REMARK  status: ('A' for Active; 'I' for Inactive)
REMARK    1  A    between atoms: C_6  and  C_7 
REMARK    2  A    between atoms: C_14  and  C_15 
REMARK       I    between atoms: C_15  and  N_16 
REMARK    3  A    between atoms: N_16  and  N_17 
REMARK       I    between atoms: N_17  and  C_18 
REMARK       I    between atoms: C_18  and  N_19 
REMARK    4  A    between atoms: N_19  and  C_20 
ROOT
HETATM    1  C   UNL     1      42.756 -12.037   3.153  1.00  0.00     0.271 C 
HETATM    2  N   UNL     1      41.839 -11.390   3.948  1.00  0.00    -0.262 N 
HETATM    3  O   UNL     1      43.933 -11.703   3.064  1.00  0.00    -0.266 OA
HETATM    4  H   UNL     1      40.859 -11.657   4.044  1.00  0.00     0.190 HD
ENDROOT
BRANCH   1   5
HETATM    5  C   UNL     1      42.215 -13.187   2.394  1.00  0.00     0.048 A 
HETATM    6  C   UNL     1      42.400 -14.511   2.844  1.00  0.00     0.009 A 
HETATM    7  C   UNL     1      43.103 -14.885   4.018  1.00  0.00     0.015 A 
HETATM    8  C   UNL     1      41.806 -15.514   2.057  1.00  0.00     0.068 A 
HETATM    9  C   UNL     1      43.213 -16.222   4.395  1.00  0.00     0.001 A 
HETATM   10  C   UNL     1      42.623 -17.202   3.611  1.00  0.00     0.002 A 
HETATM   11  C   UNL     1      41.929 -16.838   2.455  1.00  0.00     0.032 A 
HETATM   12  N   UNL     1      41.112 -15.247   0.936  1.00  0.00    -0.248 NA
HETATM   13  C   UNL     1      40.968 -13.969   0.508  1.00  0.00     0.070 A 
HETATM   14  C   UNL     1      41.504 -12.911   1.222  1.00  0.00     0.050 A 
BRANCH  13  15
HETATM   15  C   UNL     1      40.193 -13.800  -0.735  1.00  0.00     0.010 A 
HETATM   16  C   UNL     1      40.151 -12.600  -1.448  1.00  0.00     0.130 A 
HETATM   17  N   UNL     1      39.441 -12.388  -2.585  1.00  0.00    -0.272 NA
HETATM   18  C   UNL     1      38.735 -13.434  -3.061  1.00  0.00     0.116 A 
HETATM   19  C   UNL     1      38.708 -14.676  -2.454  1.00  0.00     0.020 A 
HETATM   20  C   UNL     1      39.445 -14.854  -1.284  1.00  0.00     0.017 A 
ENDBRANCH  13  15
ENDBRANCH   1   5
BRANCH   2  21
HETATM   21  N   UNL     1      42.263 -10.296   4.716  1.00  0.00    -0.249 N 
HETATM   22  C   UNL     1      42.246 -10.465   6.092  1.00  0.00     0.339 C 
HETATM   23  N   UNL     1      42.616  -9.311   6.749  1.00  0.00    -0.308 N 
HETATM   24  O   UNL     1      41.975 -11.549   6.598  1.00  0.00    -0.245 OA
HETATM   25  H   UNL     1      42.974  -8.574   6.158  1.00  0.00     0.170 HD
HETATM   26  H   UNL     1      42.035  -9.389   4.314  1.00  0.00     0.192 HD
BRANCH  23  27
HETATM   27  C   UNL     1      42.711  -9.113   8.141  1.00  0.00     0.038 A 
HETATM   28  C   UNL     1      41.607  -8.950   8.983  1.00  0.00     0.055 A 
HETATM   29  C   UNL     1      41.782  -8.769  10.362  1.00  0.00     0.058 A 
HETATM   30 CL   UNL     1      40.365  -8.577  11.335  1.00  0.00    -0.082 Cl
HETATM   31  C   UNL     1      43.069  -8.747  10.908  1.00  0.00     0.055 A 
HETATM   32 CL   UNL     1      43.361  -8.536  12.597  1.00  0.00    -0.083 Cl
HETATM   33  C   UNL     1      44.175  -8.898  10.071  1.00  0.00     0.028 A 
HETATM   34  C   UNL     1      43.996  -9.077   8.695  1.00  0.00     0.031 A 
ENDBRANCH  23  27
ENDBRANCH   2  21
TORSDOF 4
ENDMDL
MODEL 7
REMARK VINA RESULT:      -8.6      2.111      4.458
REMARK  4 active torsions:
REMARK  status: ('A' for Active; 'I' for Inactive)
REMARK    1  A    between atoms: C_6  and  C_7 
REMARK    2  A    between atoms: C_14  and  C_15 
REMARK       I    between atoms: C_15  and  N_16 
REMARK    3  A    between atoms: N_16  and  N_17 
REMARK       I    between atoms: N_17  and  C_18 
REMARK       I    between atoms: C_18  and  N_19 
REMARK    4  A    between atoms: N_19  and  C_20 
ROOT
HETATM    1  C   UNL     1      43.367 -12.091   5.664  1.00  0.00     0.271 C 
HETATM    2  N   UNL     1      42.973 -12.031   6.981  1.00  0.00    -0.262 N 
HETATM    3  O   UNL     1      44.264 -11.401   5.192  1.00  0.00    -0.266 OA
HETATM    4  H   UNL     1      42.236 -12.602   7.396  1.00  0.00     0.190 HD
ENDROOT
BRANCH   1   5
HETATM    5  C   UNL     1      42.617 -13.065   4.837  1.00  0.00     0.048 A 
HETATM    6  C   UNL     1      41.401 -12.712   4.217  1.00  0.00     0.009 A 
HETATM    7  C   UNL     1      40.771 -11.444   4.315  1.00  0.00     0.015 A 
HETATM    8  C   UNL     1      40.804 -13.710   3.427  1.00  0.00     0.068 A 
HETATM    9  C   UNL     1      39.577 -11.181   3.645  1.00  0.00     0.001 A 
HETATM   10  C   UNL     1      38.998 -12.174   2.869  1.00  0.00     0.002 A 
HETATM   11  C   UNL     1      39.616 -13.422   2.770  1.00  0.00     0.032 A 
HETATM   12  N   UNL     1      41.339 -14.934   3.270  1.00  0.00    -0.248 NA
HETATM   13  C   UNL     1      42.497 -15.261   3.896  1.00  0.00     0.070 A 
HETATM   14  C   UNL     1      43.167 -14.341   4.684  1.00  0.00     0.050 A 
BRANCH  13  15
HETATM   15  C   UNL     1      42.983 -16.631   3.656  1.00  0.00     0.010 A 
HETATM   16  C   UNL     1      43.794 -17.321   4.560  1.00  0.00     0.130 A 
HETATM   17  N   UNL     1      44.281 -18.575   4.378  1.00  0.00    -0.272 NA
HETATM   18  C   UNL     1      43.935 -19.198   3.234  1.00  0.00     0.116 A 
HETATM   19  C   UNL     1      43.127 -18.626   2.268  1.00  0.00     0.020 A 
HETATM   20  C   UNL     1      42.650 -17.335   2.487  1.00  0.00     0.017 A 
ENDBRANCH  13  15
ENDBRANCH   1   5
BRANCH   2  21
HETATM   21  N   UNL     1      43.634 -11.147   7.844  1.00  0.00    -0.249 N 
HETATM   22  C   UNL     1      42.891 -10.079   8.324  1.00  0.00     0.339 C 
HETATM   23  N   UNL     1      43.654  -9.240   9.106  1.00  0.00    -0.308 N 
HETATM   24  O   UNL     1      41.692  -9.979   8.084  1.00  0.00    -0.245 OA
HETATM   25  H   UNL     1      44.577  -9.583   9.333  1.00  0.00     0.170 HD
HETATM   26  H   UNL     1      44.624 -11.024   7.640  1.00  0.00     0.192 HD
BRANCH  23  27
HETATM   27  C   UNL     1      43.236  -8.061   9.755  1.00  0.00     0.038 A 
HETATM   28  C   UNL     1      42.890  -7.995  11.108  1.00  0.00     0.055 A 
HETATM   29  C   UNL     1      42.495  -6.781  11.685  1.00  0.00     0.058 A 
HETATM   30 CL   UNL     1      42.086  -6.783  13.366  1.00  0.00    -0.082 Cl
HETATM   31  C   UNL     1      42.438  -5.621  10.907  1.00  0.00     0.055 A 
HETATM   32 CL   UNL     1      41.967  -4.090  11.551  1.00  0.00    -0.083 Cl
HETATM   33  C   UNL     1      42.771  -5.683   9.553  1.00  0.00     0.028 A 
HETATM   34  C   UNL     1      43.164  -6.897   8.981  1.00  0.00     0.031 A 
ENDBRANCH  23  27
ENDBRANCH   2  21
TORSDOF 4
ENDMDL
MODEL 8
REMARK VINA RESULT:      -8.6      5.864      9.354
REMARK  4 active torsions:
REMARK  status: ('A' for Active; 'I' for Inactive)
REMARK    1  A    between atoms: C_6  and  C_7 
REMARK    2  A    between atoms: C_14  and  C_15 
REMARK       I    between atoms: C_15  and  N_16 
REMARK    3  A    between atoms: N_16  and  N_17 
REMARK       I    between atoms: N_17  and  C_18 
REMARK       I    between atoms: C_18  and  N_19 
REMARK    4  A    between atoms: N_19  and  C_20 
ROOT
HETATM    1  C   UNL     1      39.778 -13.288  -1.398  1.00  0.00     0.271 C 
HETATM    2  N   UNL     1      39.468 -13.407  -0.063  1.00  0.00    -0.262 N 
HETATM    3  O   UNL     1      40.191 -14.216  -2.085  1.00  0.00    -0.266 OA
HETATM    4  H   UNL     1      39.115 -12.651   0.524  1.00  0.00     0.190 HD
ENDROOT
BRANCH   1   5
HETATM    5  C   UNL     1      39.579 -11.933  -1.961  1.00  0.00     0.048 A 
HETATM    6  C   UNL     1      38.342 -11.550  -2.520  1.00  0.00     0.009 A 
HETATM    7  C   UNL     1      37.196 -12.381  -2.617  1.00  0.00     0.015 A 
HETATM    8  C   UNL     1      38.265 -10.226  -2.987  1.00  0.00     0.068 A 
HETATM    9  C   UNL     1      36.007 -11.905  -3.166  1.00  0.00     0.001 A 
HETATM   10  C   UNL     1      35.943 -10.596  -3.623  1.00  0.00     0.002 A 
HETATM   11  C   UNL     1      37.069  -9.776  -3.528  1.00  0.00     0.032 A 
HETATM   12  N   UNL     1      39.298  -9.367  -2.922  1.00  0.00    -0.248 NA
HETATM   13  C   UNL     1      40.486  -9.764  -2.403  1.00  0.00     0.070 A 
HETATM   14  C   UNL     1      40.657 -11.044  -1.905  1.00  0.00     0.050 A 
BRANCH  13  15
HETATM   15  C   UNL     1      41.547  -8.740  -2.391  1.00  0.00     0.010 A 
HETATM   16  C   UNL     1      42.427  -8.569  -1.321  1.00  0.00     0.130 A 
HETATM   17  N   UNL     1      43.407  -7.632  -1.253  1.00  0.00    -0.272 NA
HETATM   18  C   UNL     1      43.538  -6.817  -2.319  1.00  0.00     0.116 A 
HETATM   19  C   UNL     1      42.738  -6.897  -3.444  1.00  0.00     0.020 A 
HETATM   20  C   UNL     1      41.739  -7.868  -3.475  1.00  0.00     0.017 A 
ENDBRANCH  13  15
ENDBRANCH   1   5
BRANCH   2  21
HETATM   21  N   UNL     1      39.613 -14.657   0.555  1.00  0.00    -0.249 N 
HETATM   22  C   UNL     1      40.428 -14.702   1.676  1.00  0.00     0.339 C 
HETATM   23  N   UNL     1      40.553 -15.985   2.162  1.00  0.00    -0.308 N 
HETATM   24  O   UNL     1      40.909 -13.680   2.155  1.00  0.00    -0.245 OA
HETATM   25  H   UNL     1      39.941 -16.668   1.738  1.00  0.00     0.170 HD
HETATM   26  H   UNL     1      39.591 -15.447  -0.088  1.00  0.00     0.192 HD
BRANCH  23  27
HETATM   27  C   UNL     1      41.300 -16.407   3.280  1.00  0.00     0.038 A 
HETATM   28  C   UNL     1      42.496 -17.126   3.194  1.00  0.00     0.055 A 
HETATM   29  C   UNL     1      43.189 -17.499   4.353  1.00  0.00     0.058 A 
HETATM   30 CL   UNL     1      44.661 -18.386   4.161  1.00  0.00    -0.082 Cl
HETATM   31  C   UNL     1      42.685 -17.157   5.612  1.00  0.00     0.055 A 
HETATM   32 CL   UNL     1      43.487 -17.577   7.082  1.00  0.00    -0.083 Cl
HETATM   33  C   UNL     1      41.487 -16.448   5.704  1.00  0.00     0.028 A 
HETATM   34  C   UNL     1      40.797 -16.079   4.545  1.00  0.00     0.031 A 
ENDBRANCH  23  27
ENDBRANCH   2  21
TORSDOF 4
ENDMDL
MODEL 9
REMARK VINA RESULT:      -8.4      5.911      9.964
REMARK  4 active torsions:
REMARK  status: ('A' for Active; 'I' for Inactive)
REMARK    1  A    between atoms: C_6  and  C_7 
REMARK    2  A    between atoms: C_14  and  C_15 
REMARK       I    between atoms: C_15  and  N_16 
REMARK    3  A    between atoms: N_16  and  N_17 
REMARK       I    between atoms: N_17  and  C_18 
REMARK       I    between atoms: C_18  and  N_19 
REMARK    4  A    between atoms: N_19  and  C_20 
ROOT
HETATM    1  C   UNL     1      40.492 -13.452   0.347  1.00  0.00     0.271 C 
HETATM    2  N   UNL     1      39.333 -13.948  -0.205  1.00  0.00    -0.262 N 
HETATM    3  O   UNL     1      41.213 -12.633  -0.212  1.00  0.00    -0.266 OA
HETATM    4  H   UNL     1      38.714 -14.622   0.246  1.00  0.00     0.190 HD
ENDROOT
BRANCH   1   5
HETATM    5  C   UNL     1      40.816 -13.986   1.689  1.00  0.00     0.048 A 
HETATM    6  C   UNL     1      40.375 -13.335   2.860  1.00  0.00     0.009 A 
HETATM    7  C   UNL     1      39.612 -12.140   2.893  1.00  0.00     0.015 A 
HETATM    8  C   UNL     1      40.714 -13.960   4.073  1.00  0.00     0.068 A 
HETATM    9  C   UNL     1      39.200 -11.582   4.102  1.00  0.00     0.001 A 
HETATM   10  C   UNL     1      39.541 -12.208   5.292  1.00  0.00     0.002 A 
HETATM   11  C   UNL     1      40.291 -13.385   5.264  1.00  0.00     0.032 A 
HETATM   12  N   UNL     1      41.424 -15.101   4.133  1.00  0.00    -0.248 NA
HETATM   13  C   UNL     1      41.860 -15.697   2.995  1.00  0.00     0.070 A 
HETATM   14  C   UNL     1      41.564 -15.165   1.752  1.00  0.00     0.050 A 
BRANCH  13  15
HETATM   15  C   UNL     1      42.633 -16.937   3.186  1.00  0.00     0.010 A 
HETATM   16  C   UNL     1      43.380 -17.200   4.336  1.00  0.00     0.130 A 
HETATM   17  N   UNL     1      44.121 -18.316   4.552  1.00  0.00    -0.272 NA
HETATM   18  C   UNL     1      44.116 -19.244   3.574  1.00  0.00     0.116 A 
HETATM   19  C   UNL     1      43.405 -19.107   2.396  1.00  0.00     0.020 A 
HETATM   20  C   UNL     1      42.660 -17.945   2.208  1.00  0.00     0.017 A 
ENDBRANCH  13  15
ENDBRANCH   1   5
BRANCH   2  21
HETATM   21  N   UNL     1      38.937 -13.490  -1.469  1.00  0.00    -0.249 N 
HETATM   22  C   UNL     1      37.996 -12.471  -1.490  1.00  0.00     0.339 C 
HETATM   23  N   UNL     1      37.630 -12.145  -2.777  1.00  0.00    -0.308 N 
HETATM   24  O   UNL     1      37.617 -11.934  -0.454  1.00  0.00    -0.245 OA
HETATM   25  H   UNL     1      38.182 -12.576  -3.505  1.00  0.00     0.170 HD
HETATM   26  H   UNL     1      38.919 -14.210  -2.189  1.00  0.00     0.192 HD
BRANCH  23  27
HETATM   27  C   UNL     1      36.703 -11.162  -3.179  1.00  0.00     0.038 A 
HETATM   28  C   UNL     1      35.345 -11.414  -3.398  1.00  0.00     0.055 A 
HETATM   29  C   UNL     1      34.482 -10.380  -3.784  1.00  0.00     0.058 A 
HETATM   30 CL   UNL     1      32.816 -10.773  -4.033  1.00  0.00    -0.082 Cl
HETATM   31  C   UNL     1      34.974  -9.083  -3.960  1.00  0.00     0.055 A 
HETATM   32 CL   UNL     1      33.970  -7.760  -4.428  1.00  0.00    -0.083 Cl
HETATM   33  C   UNL     1      36.331  -8.829  -3.753  1.00  0.00     0.028 A 
HETATM   34  C   UNL     1      37.190  -9.863  -3.368  1.00  0.00     0.031 A 
ENDBRANCH  23  27
ENDBRANCH   2  21
TORSDOF 4
ENDMDL
MODEL 10
REMARK VINA RESULT:      -8.3     17.821     19.697
REMARK  4 active torsions:
REMARK  status: ('A' for Active; 'I' for Inactive)
REMARK    1  A    between atoms: C_6  and  C_7 
REMARK    2  A    between atoms: C_14  and  C_15 
REMARK       I    between atoms: C_15  and  N_16 
REMARK    3  A    between atoms: N_16  and  N_17 
REMARK       I    between atoms: N_17  and  C_18 
REMARK       I    between atoms: C_18  and  N_19 
REMARK    4  A    between atoms: N_19  and  C_20 
ROOT
HETATM    1  C   UNL     1      42.968 -29.699   0.761  1.00  0.00     0.271 C 
HETATM    2  N   UNL     1      42.578 -30.979   1.081  1.00  0.00    -0.262 N 
HETATM    3  O   UNL     1      42.232 -28.723   0.851  1.00  0.00    -0.266 OA
HETATM    4  H   UNL     1      43.177 -31.803   1.023  1.00  0.00     0.190 HD
ENDROOT
BRANCH   1   5
HETATM    5  C   UNL     1      44.366 -29.578   0.289  1.00  0.00     0.048 A 
HETATM    6  C   UNL     1      44.662 -29.392  -1.078  1.00  0.00     0.009 A 
HETATM    7  C   UNL     1      43.701 -29.313  -2.118  1.00  0.00     0.015 A 
HETATM    8  C   UNL     1      46.024 -29.252  -1.396  1.00  0.00     0.068 A 
HETATM    9  C   UNL     1      44.089 -29.103  -3.440  1.00  0.00     0.001 A 
HETATM   10  C   UNL     1      45.436 -28.967  -3.742  1.00  0.00     0.002 A 
HETATM   11  C   UNL     1      46.384 -29.043  -2.720  1.00  0.00     0.032 A 
HETATM   12  N   UNL     1      46.999 -29.302  -0.471  1.00  0.00    -0.248 NA
HETATM   13  C   UNL     1      46.695 -29.507   0.835  1.00  0.00     0.070 A 
HETATM   14  C   UNL     1      45.380 -29.641   1.249  1.00  0.00     0.050 A 
BRANCH  13  15
HETATM   15  C   UNL     1      47.845 -29.549   1.755  1.00  0.00     0.010 A 
HETATM   16  C   UNL     1      48.916 -30.430   1.595  1.00  0.00     0.130 A 
HETATM   17  N   UNL     1      49.989 -30.520   2.422  1.00  0.00    -0.272 NA
HETATM   18  C   UNL     1      50.015 -29.675   3.472  1.00  0.00     0.116 A 
HETATM   19  C   UNL     1      49.022 -28.747   3.730  1.00  0.00     0.020 A 
HETATM   20  C   UNL     1      47.934 -28.688   2.861  1.00  0.00     0.017 A 
ENDBRANCH  13  15
ENDBRANCH   1   5
BRANCH   2  21
HETATM   21  N   UNL     1      41.274 -31.191   1.551  1.00  0.00    -0.249 N 
HETATM   22  C   UNL     1      41.156 -31.726   2.825  1.00  0.00     0.339 C 
HETATM   23  N   UNL     1      39.839 -31.955   3.159  1.00  0.00    -0.308 N 
HETATM   24  O   UNL     1      42.141 -31.904   3.535  1.00  0.00    -0.245 OA
HETATM   25  H   UNL     1      39.159 -31.581   2.512  1.00  0.00     0.170 HD
HETATM   26  H   UNL     1      40.606 -31.450   0.828  1.00  0.00     0.192 HD
BRANCH  23  27
HETATM   27  C   UNL     1      39.344 -32.489   4.365  1.00  0.00     0.038 A 
HETATM   28  C   UNL     1      39.842 -32.158   5.628  1.00  0.00     0.055 A 
HETATM   29  C   UNL     1      39.288 -32.723   6.785  1.00  0.00     0.058 A 
HETATM   30 CL   UNL     1      39.959 -32.259   8.310  1.00  0.00    -0.082 Cl
HETATM   31  C   UNL     1      38.230 -33.632   6.683  1.00  0.00     0.055 A 
HETATM   32 CL   UNL     1      37.494 -34.363   8.063  1.00  0.00    -0.083 Cl
HETATM   33  C   UNL     1      37.736 -33.975   5.423  1.00  0.00     0.028 A 
HETATM   34  C   UNL     1      38.293 -33.410   4.272  1.00  0.00     0.031 A 
ENDBRANCH  23  27
ENDBRANCH   2  21
TORSDOF 4
ENDMDL
