MODEL 1
REMARK VINA RESULT:      -8.6      0.000      0.000
REMARK  8 active torsions:
REMARK  status: ('A' for Active; 'I' for Inactive)
REMARK    1  A    between atoms: C_2  and  O_3 
REMARK    2  A    between atoms: O_3  and  C_4 
REMARK    3  A    between atoms: C_5  and  C_6 
REMARK    4  A    between atoms: C_6  and  N_7 
REMARK    5  A    between atoms: C_23  and  C_24 
REMARK    6  A    between atoms: N_25  and  N_26 
REMARK       I    between atoms: N_26  and  C_27 
REMARK    7  A    between atoms: C_27  and  C_28 
REMARK    8  A    between atoms: C_32  and  C_33 
ROOT
HETATM    1  C   UNL     1      38.720 -11.478   2.802  1.00  0.00     0.076 A 
HETATM    2  C   UNL     1      39.398 -12.452   3.564  1.00  0.00     0.002 A 
HETATM    3  C   UNL     1      39.879 -12.085   4.827  1.00  0.00     0.024 A 
HETATM    4  C   UNL     1      39.634 -10.812   5.359  1.00  0.00    -0.016 A 
HETATM    5  C   UNL     1      38.961  -9.858   4.607  1.00  0.00     0.016 A 
HETATM    6  C   UNL     1      38.513 -10.192   3.324  1.00  0.00     0.038 A 
ENDROOT
BRANCH   2   7
HETATM    7  C   UNL     1      39.635 -13.827   2.977  1.00  0.00     0.276 C 
BRANCH   7   8
HETATM    8  N   UNL     1      40.624 -13.927   1.813  1.00  0.00    -0.066 N 
HETATM    9  H   UNL     1      40.089 -13.535   1.029  1.00  0.00     0.280 HD
HETATM   10  C   UNL     1      41.859 -13.043   1.922  1.00  0.00     0.246 C 
HETATM   11  C   UNL     1      43.084 -13.754   2.529  1.00  0.00     0.062 C 
HETATM   12  C   UNL     1      43.368 -15.039   1.765  1.00  0.00     0.020 C 
HETATM   13  C   UNL     1      42.894 -14.033   4.005  1.00  0.00     0.020 A 
HETATM   14  C   UNL     1      42.174 -15.959   1.963  1.00  0.00     0.031 C 
HETATM   15  C   UNL     1      42.044 -16.318   3.445  1.00  0.00     0.138 C 
HETATM   16  C   UNL     1      40.906 -15.340   1.367  1.00  0.00     0.241 C 
HETATM   17  N   UNL     1      42.320 -15.245   4.398  1.00  0.00    -0.317 N 
HETATM   18  C   UNL     1      42.083 -15.556   5.745  1.00  0.00     0.247 A 
HETATM   19  O   UNL     1      41.557 -16.599   6.124  1.00  0.00    -0.268 OA
HETATM   20  C   UNL     1      42.487 -14.533   6.741  1.00  0.00     0.074 A 
HETATM   21  C   UNL     1      43.049 -13.391   6.335  1.00  0.00     0.007 A 
HETATM   22  C   UNL     1      43.256 -13.132   4.935  1.00  0.00     0.026 A 
ENDBRANCH   7   8
ENDBRANCH   2   7
BRANCH   1  23
HETATM   23  O   UNL     1      38.314 -11.896   1.563  1.00  0.00    -0.351 OA
BRANCH  23  24
HETATM   24  C   UNL     1      38.759 -11.152   0.427  1.00  0.00     0.171 C 
HETATM   25  C   UNL     1      38.839 -12.109  -0.749  1.00  0.00     0.034 C 
ENDBRANCH  23  24
ENDBRANCH   1  23
BRANCH   4  26
HETATM   26  C   UNL     1      40.066 -10.535   6.746  1.00  0.00     0.150 C 
HETATM   27  N   UNL     1      39.255  -9.890   7.519  1.00  0.00    -0.184 NA
BRANCH  27  28
HETATM   28  N   UNL     1      39.669  -9.625   8.780  1.00  0.00    -0.242 N 
HETATM   29  C   UNL     1      39.141 -10.346   9.842  1.00  0.00     0.292 C 
HETATM   30  O   UNL     1      38.296 -11.234   9.730  1.00  0.00    -0.264 OA
HETATM   31  H   UNL     1      40.357  -8.904   8.995  1.00  0.00     0.192 HD
BRANCH  29  32
HETATM   32  C   UNL     1      39.698  -9.933  11.137  1.00  0.00     0.148 A 
HETATM   33  N   UNL     1      39.406 -10.578  12.284  1.00  0.00    -0.169 NA
HETATM   34  N   UNL     1      40.107  -9.909  13.220  1.00  0.00    -0.281 N 
HETATM   35  H   UNL     1      40.049 -10.230  14.182  1.00  0.00     0.189 HD
HETATM   36  C   UNL     1      40.825  -8.847  12.731  1.00  0.00     0.038 A 
HETATM   37  C   UNL     1      40.584  -8.854  11.373  1.00  0.00     0.066 A 
BRANCH  36  38
HETATM   38  C   UNL     1      41.692  -7.960  13.602  1.00  0.00    -0.007 C 
HETATM   39  C   UNL     1      41.648  -8.473  15.052  1.00  0.00     0.021 C 
HETATM   40  C   UNL     1      43.155  -7.981  13.114  1.00  0.00     0.021 C 
HETATM   41  C   UNL     1      41.203  -6.499  13.565  1.00  0.00     0.021 C 
ENDBRANCH  36  38
ENDBRANCH  29  32
ENDBRANCH  27  28
ENDBRANCH   4  26
TORSDOF 8
ENDMDL
MODEL 2
REMARK VINA RESULT:      -8.3      4.323      9.469
REMARK  8 active torsions:
REMARK  status: ('A' for Active; 'I' for Inactive)
REMARK    1  A    between atoms: C_2  and  O_3 
REMARK    2  A    between atoms: O_3  and  C_4 
REMARK    3  A    between atoms: C_5  and  C_6 
REMARK    4  A    between atoms: C_6  and  N_7 
REMARK    5  A    between atoms: C_23  and  C_24 
REMARK    6  A    between atoms: N_25  and  N_26 
REMARK       I    between atoms: N_26  and  C_27 
REMARK    7  A    between atoms: C_27  and  C_28 
REMARK    8  A    between atoms: C_32  and  C_33 
ROOT
HETATM    1  C   UNL     1      42.704 -11.824   6.400  1.00  0.00     0.076 A 
HETATM    2  C   UNL     1      42.720 -12.766   5.351  1.00  0.00     0.002 A 
HETATM    3  C   UNL     1      41.743 -12.661   4.354  1.00  0.00     0.024 A 
HETATM    4  C   UNL     1      40.815 -11.611   4.349  1.00  0.00    -0.016 A 
HETATM    5  C   UNL     1      40.806 -10.683   5.382  1.00  0.00     0.016 A 
HETATM    6  C   UNL     1      41.747 -10.798   6.412  1.00  0.00     0.038 A 
ENDROOT
BRANCH   2   7
HETATM    7  C   UNL     1      43.743 -13.882   5.365  1.00  0.00     0.276 C 
BRANCH   7   8
HETATM    8  N   UNL     1      43.646 -14.902   6.502  1.00  0.00    -0.066 N 
HETATM    9  H   UNL     1      43.974 -14.367   7.314  1.00  0.00     0.280 HD
HETATM   10  C   UNL     1      42.235 -15.342   6.871  1.00  0.00     0.246 C 
HETATM   11  C   UNL     1      41.784 -16.640   6.174  1.00  0.00     0.062 C 
HETATM   12  C   UNL     1      42.806 -17.741   6.417  1.00  0.00     0.020 C 
HETATM   13  C   UNL     1      41.557 -16.430   4.692  1.00  0.00     0.020 A 
HETATM   14  C   UNL     1      44.105 -17.307   5.757  1.00  0.00     0.031 C 
HETATM   15  C   UNL     1      43.898 -17.191   4.244  1.00  0.00     0.138 C 
HETATM   16  C   UNL     1      44.644 -16.028   6.403  1.00  0.00     0.241 C 
HETATM   17  N   UNL     1      42.620 -16.630   3.808  1.00  0.00    -0.317 N 
HETATM   18  C   UNL     1      42.492 -16.420   2.427  1.00  0.00     0.247 A 
HETATM   19  O   UNL     1      43.412 -16.562   1.626  1.00  0.00    -0.268 OA
HETATM   20  C   UNL     1      41.159 -15.985   1.945  1.00  0.00     0.074 A 
HETATM   21  C   UNL     1      40.156 -15.817   2.813  1.00  0.00     0.007 A 
HETATM   22  C   UNL     1      40.359 -16.042   4.220  1.00  0.00     0.026 A 
ENDBRANCH   7   8
ENDBRANCH   2   7
BRANCH   1  23
HETATM   23  O   UNL     1      43.663 -12.013   7.358  1.00  0.00    -0.351 OA
BRANCH  23  24
HETATM   24  C   UNL     1      44.555 -10.930   7.635  1.00  0.00     0.171 C 
HETATM   25  C   UNL     1      45.803 -11.134   6.795  1.00  0.00     0.034 C 
ENDBRANCH  23  24
ENDBRANCH   1  23
BRANCH   4  26
HETATM   26  C   UNL     1      39.891 -11.494   3.201  1.00  0.00     0.150 C 
HETATM   27  N   UNL     1      40.246 -12.021   2.076  1.00  0.00    -0.184 NA
BRANCH  27  28
HETATM   28  N   UNL     1      39.401 -11.890   1.027  1.00  0.00    -0.242 N 
HETATM   29  C   UNL     1      39.631 -12.615  -0.134  1.00  0.00     0.292 C 
HETATM   30  O   UNL     1      40.573 -13.390  -0.297  1.00  0.00    -0.264 OA
HETATM   31  H   UNL     1      38.593 -11.269   1.044  1.00  0.00     0.192 HD
BRANCH  29  32
HETATM   32  C   UNL     1      38.621 -12.357  -1.169  1.00  0.00     0.148 A 
HETATM   33  N   UNL     1      38.366 -13.235  -2.159  1.00  0.00    -0.169 NA
HETATM   34  N   UNL     1      37.392 -12.641  -2.877  1.00  0.00    -0.281 N 
HETATM   35  H   UNL     1      37.024 -13.135  -3.684  1.00  0.00     0.189 HD
HETATM   36  C   UNL     1      37.021 -11.407  -2.406  1.00  0.00     0.038 A 
HETATM   37  C   UNL     1      37.800 -11.209  -1.284  1.00  0.00     0.066 A 
BRANCH  36  38
HETATM   38  C   UNL     1      35.940 -10.564  -3.051  1.00  0.00    -0.007 C 
HETATM   39  C   UNL     1      35.214  -9.751  -1.966  1.00  0.00     0.021 C 
HETATM   40  C   UNL     1      36.553  -9.585  -4.074  1.00  0.00     0.021 C 
HETATM   41  C   UNL     1      34.919 -11.445  -3.796  1.00  0.00     0.021 C 
ENDBRANCH  36  38
ENDBRANCH  29  32
ENDBRANCH  27  28
ENDBRANCH   4  26
TORSDOF 8
ENDMDL
MODEL 3
REMARK VINA RESULT:      -7.9      2.340      2.893
REMARK  8 active torsions:
REMARK  status: ('A' for Active; 'I' for Inactive)
REMARK    1  A    between atoms: C_2  and  O_3 
REMARK    2  A    between atoms: O_3  and  C_4 
REMARK    3  A    between atoms: C_5  and  C_6 
REMARK    4  A    between atoms: C_6  and  N_7 
REMARK    5  A    between atoms: C_23  and  C_24 
REMARK    6  A    between atoms: N_25  and  N_26 
REMARK       I    between atoms: N_26  and  C_27 
REMARK    7  A    between atoms: C_27  and  C_28 
REMARK    8  A    between atoms: C_32  and  C_33 
ROOT
HETATM    1  C   UNL     1      41.993 -10.947   2.385  1.00  0.00     0.076 A 
HETATM    2  C   UNL     1      42.475 -11.876   3.329  1.00  0.00     0.002 A 
HETATM    3  C   UNL     1      42.371 -11.551   4.688  1.00  0.00     0.024 A 
HETATM    4  C   UNL     1      41.741 -10.372   5.110  1.00  0.00    -0.016 A 
HETATM    5  C   UNL     1      41.264  -9.463   4.175  1.00  0.00     0.016 A 
HETATM    6  C   UNL     1      41.399  -9.750   2.811  1.00  0.00     0.038 A 
ENDROOT
BRANCH   2   7
HETATM    7  C   UNL     1      43.135 -13.152   2.852  1.00  0.00     0.276 C 
BRANCH   7   8
HETATM    8  N   UNL     1      42.319 -14.052   1.921  1.00  0.00    -0.066 N 
HETATM    9  H   UNL     1      42.383 -13.562   1.021  1.00  0.00     0.280 HD
HETATM   10  C   UNL     1      42.910 -15.430   1.656  1.00  0.00     0.246 C 
HETATM   11  C   UNL     1      42.363 -16.533   2.582  1.00  0.00     0.062 C 
HETATM   12  C   UNL     1      40.842 -16.545   2.531  1.00  0.00     0.020 C 
HETATM   13  C   UNL     1      42.855 -16.364   4.005  1.00  0.00     0.020 A 
HETATM   14  C   UNL     1      40.358 -15.214   3.085  1.00  0.00     0.031 C 
HETATM   15  C   UNL     1      40.773 -15.090   4.554  1.00  0.00     0.138 C 
HETATM   16  C   UNL     1      40.839 -14.053   2.210  1.00  0.00     0.241 C 
HETATM   17  N   UNL     1      42.099 -15.599   4.897  1.00  0.00    -0.317 N 
HETATM   18  C   UNL     1      42.512 -15.371   6.219  1.00  0.00     0.247 A 
HETATM   19  O   UNL     1      41.886 -14.683   7.020  1.00  0.00    -0.268 OA
HETATM   20  C   UNL     1      43.791 -15.998   6.630  1.00  0.00     0.074 A 
HETATM   21  C   UNL     1      44.483 -16.739   5.758  1.00  0.00     0.007 A 
HETATM   22  C   UNL     1      44.006 -16.925   4.413  1.00  0.00     0.026 A 
ENDBRANCH   7   8
ENDBRANCH   2   7
BRANCH   1  23
HETATM   23  O   UNL     1      42.164 -11.315   1.077  1.00  0.00    -0.351 OA
BRANCH  23  24
HETATM   24  C   UNL     1      41.116 -11.010   0.154  1.00  0.00     0.171 C 
HETATM   25  C   UNL     1      41.655  -9.993  -0.837  1.00  0.00     0.034 C 
ENDBRANCH  23  24
ENDBRANCH   1  23
BRANCH   4  26
HETATM   26  C   UNL     1      41.559 -10.152   6.560  1.00  0.00     0.150 C 
HETATM   27  N   UNL     1      42.600 -10.223   7.323  1.00  0.00    -0.184 NA
BRANCH  27  28
HETATM   28  N   UNL     1      42.418 -10.040   8.651  1.00  0.00    -0.242 N 
HETATM   29  C   UNL     1      43.351  -9.314   9.378  1.00  0.00     0.292 C 
HETATM   30  O   UNL     1      44.367  -8.808   8.900  1.00  0.00    -0.264 OA
HETATM   31  H   UNL     1      41.619 -10.422   9.156  1.00  0.00     0.192 HD
BRANCH  29  32
HETATM   32  C   UNL     1      43.001  -9.211  10.801  1.00  0.00     0.148 A 
HETATM   33  N   UNL     1      42.946 -10.289  11.608  1.00  0.00    -0.169 NA
HETATM   34  N   UNL     1      42.606  -9.779  12.808  1.00  0.00    -0.281 N 
HETATM   35  H   UNL     1      42.515 -10.419  13.591  1.00  0.00     0.189 HD
HETATM   36  C   UNL     1      42.420  -8.420  12.808  1.00  0.00     0.038 A 
HETATM   37  C   UNL     1      42.687  -8.028  11.513  1.00  0.00     0.066 A 
BRANCH  36  38
HETATM   38  C   UNL     1      42.042  -7.634  14.048  1.00  0.00    -0.007 C 
HETATM   39  C   UNL     1      43.286  -6.904  14.584  1.00  0.00     0.021 C 
HETATM   40  C   UNL     1      40.958  -6.588  13.719  1.00  0.00     0.021 C 
HETATM   41  C   UNL     1      41.485  -8.562  15.144  1.00  0.00     0.021 C 
ENDBRANCH  36  38
ENDBRANCH  29  32
ENDBRANCH  27  28
ENDBRANCH   4  26
TORSDOF 8
ENDMDL
MODEL 4
REMARK VINA RESULT:      -7.8      2.903     10.622
REMARK  8 active torsions:
REMARK  status: ('A' for Active; 'I' for Inactive)
REMARK    1  A    between atoms: C_2  and  O_3 
REMARK    2  A    between atoms: O_3  and  C_4 
REMARK    3  A    between atoms: C_5  and  C_6 
REMARK    4  A    between atoms: C_6  and  N_7 
REMARK    5  A    between atoms: C_23  and  C_24 
REMARK    6  A    between atoms: N_25  and  N_26 
REMARK       I    between atoms: N_26  and  C_27 
REMARK    7  A    between atoms: C_27  and  C_28 
REMARK    8  A    between atoms: C_32  and  C_33 
ROOT
HETATM    1  C   UNL     1      44.488 -10.180   8.157  1.00  0.00     0.076 A 
HETATM    2  C   UNL     1      43.181  -9.854   7.743  1.00  0.00     0.002 A 
HETATM    3  C   UNL     1      42.752 -10.310   6.490  1.00  0.00     0.024 A 
HETATM    4  C   UNL     1      43.564 -11.129   5.694  1.00  0.00    -0.016 A 
HETATM    5  C   UNL     1      44.850 -11.451   6.109  1.00  0.00     0.016 A 
HETATM    6  C   UNL     1      45.312 -10.967   7.339  1.00  0.00     0.038 A 
ENDROOT
BRANCH   2   7
HETATM    7  C   UNL     1      42.313  -8.983   8.626  1.00  0.00     0.276 C 
BRANCH   7   8
HETATM    8  N   UNL     1      40.958  -8.551   8.063  1.00  0.00    -0.066 N 
HETATM    9  H   UNL     1      41.056  -8.751   7.061  1.00  0.00     0.280 HD
HETATM   10  C   UNL     1      39.764  -9.384   8.510  1.00  0.00     0.246 C 
HETATM   11  C   UNL     1      39.019  -8.803   9.727  1.00  0.00     0.062 C 
HETATM   12  C   UNL     1      38.635  -7.355   9.457  1.00  0.00     0.020 C 
HETATM   13  C   UNL     1      39.840  -8.917  10.994  1.00  0.00     0.020 A 
HETATM   14  C   UNL     1      39.923  -6.565   9.303  1.00  0.00     0.031 C 
HETATM   15  C   UNL     1      40.706  -6.600  10.618  1.00  0.00     0.138 C 
HETATM   16  C   UNL     1      40.726  -7.061   8.097  1.00  0.00     0.241 C 
HETATM   17  N   UNL     1      40.696  -7.869  11.344  1.00  0.00    -0.317 N 
HETATM   18  C   UNL     1      41.512  -7.921  12.483  1.00  0.00     0.247 A 
HETATM   19  O   UNL     1      42.293  -7.031  12.806  1.00  0.00    -0.268 OA
HETATM   20  C   UNL     1      41.412  -9.146  13.313  1.00  0.00     0.074 A 
HETATM   21  C   UNL     1      40.572 -10.125  12.961  1.00  0.00     0.007 A 
HETATM   22  C   UNL     1      39.768 -10.010  11.773  1.00  0.00     0.026 A 
ENDBRANCH   7   8
ENDBRANCH   2   7
BRANCH   1  23
HETATM   23  O   UNL     1      44.852  -9.667   9.373  1.00  0.00    -0.351 OA
BRANCH  23  24
HETATM   24  C   UNL     1      45.174 -10.588  10.418  1.00  0.00     0.171 C 
HETATM   25  C   UNL     1      43.939 -10.753  11.285  1.00  0.00     0.034 C 
ENDBRANCH  23  24
ENDBRANCH   1  23
BRANCH   4  26
HETATM   26  C   UNL     1      43.001 -11.673   4.440  1.00  0.00     0.150 C 
HETATM   27  N   UNL     1      41.748 -11.986   4.420  1.00  0.00    -0.184 NA
BRANCH  27  28
HETATM   28  N   UNL     1      41.248 -12.501   3.273  1.00  0.00    -0.242 N 
HETATM   29  C   UNL     1      41.021 -13.867   3.175  1.00  0.00     0.292 C 
HETATM   30  O   UNL     1      41.247 -14.677   4.074  1.00  0.00    -0.264 OA
HETATM   31  H   UNL     1      41.033 -11.927   2.458  1.00  0.00     0.192 HD
BRANCH  29  32
HETATM   32  C   UNL     1      40.477 -14.257   1.868  1.00  0.00     0.148 A 
HETATM   33  N   UNL     1      40.071 -15.514   1.603  1.00  0.00    -0.169 NA
HETATM   34  N   UNL     1      39.642 -15.456   0.328  1.00  0.00    -0.281 N 
HETATM   35  H   UNL     1      39.272 -16.303  -0.092  1.00  0.00     0.189 HD
HETATM   36  C   UNL     1      39.772 -14.219  -0.252  1.00  0.00     0.038 A 
HETATM   37  C   UNL     1      40.300 -13.419   0.740  1.00  0.00     0.066 A 
BRANCH  36  38
HETATM   38  C   UNL     1      39.346 -13.921  -1.675  1.00  0.00    -0.007 C 
HETATM   39  C   UNL     1      40.545 -13.353  -2.455  1.00  0.00     0.021 C 
HETATM   40  C   UNL     1      38.863 -15.206  -2.378  1.00  0.00     0.021 C 
HETATM   41  C   UNL     1      38.190 -12.903  -1.707  1.00  0.00     0.021 C 
ENDBRANCH  36  38
ENDBRANCH  29  32
ENDBRANCH  27  28
ENDBRANCH   4  26
TORSDOF 8
ENDMDL
MODEL 5
REMARK VINA RESULT:      -7.7      3.038     10.911
REMARK  8 active torsions:
REMARK  status: ('A' for Active; 'I' for Inactive)
REMARK    1  A    between atoms: C_2  and  O_3 
REMARK    2  A    between atoms: O_3  and  C_4 
REMARK    3  A    between atoms: C_5  and  C_6 
REMARK    4  A    between atoms: C_6  and  N_7 
REMARK    5  A    between atoms: C_23  and  C_24 
REMARK    6  A    between atoms: N_25  and  N_26 
REMARK       I    between atoms: N_26  and  C_27 
REMARK    7  A    between atoms: C_27  and  C_28 
REMARK    8  A    between atoms: C_32  and  C_33 
ROOT
HETATM    1  C   UNL     1      43.784 -10.751   8.137  1.00  0.00     0.076 A 
HETATM    2  C   UNL     1      42.596 -10.176   7.641  1.00  0.00     0.002 A 
HETATM    3  C   UNL     1      42.179 -10.530   6.351  1.00  0.00     0.024 A 
HETATM    4  C   UNL     1      42.876 -11.482   5.595  1.00  0.00    -0.016 A 
HETATM    5  C   UNL     1      44.043 -12.049   6.090  1.00  0.00     0.016 A 
HETATM    6  C   UNL     1      44.499 -11.674   7.359  1.00  0.00     0.038 A 
ENDROOT
BRANCH   2   7
HETATM    7  C   UNL     1      41.849  -9.164   8.482  1.00  0.00     0.276 C 
BRANCH   7   8
HETATM    8  N   UNL     1      40.990  -9.707   9.627  1.00  0.00    -0.066 N 
HETATM    9  H   UNL     1      41.160 -10.718   9.576  1.00  0.00     0.280 HD
HETATM   10  C   UNL     1      41.434  -9.308  11.028  1.00  0.00     0.246 C 
HETATM   11  C   UNL     1      40.713  -8.064  11.581  1.00  0.00     0.062 C 
HETATM   12  C   UNL     1      39.206  -8.257  11.493  1.00  0.00     0.020 C 
HETATM   13  C   UNL     1      41.139  -6.803  10.859  1.00  0.00     0.020 A 
HETATM   14  C   UNL     1      38.846  -8.365  10.020  1.00  0.00     0.031 C 
HETATM   15  C   UNL     1      39.188  -7.051   9.312  1.00  0.00     0.138 C 
HETATM   16  C   UNL     1      39.505  -9.593   9.387  1.00  0.00     0.241 C 
HETATM   17  N   UNL     1      40.426  -6.395   9.728  1.00  0.00    -0.317 N 
HETATM   18  C   UNL     1      40.786  -5.257   8.990  1.00  0.00     0.247 A 
HETATM   19  O   UNL     1      40.199  -4.886   7.978  1.00  0.00    -0.268 OA
HETATM   20  C   UNL     1      41.960  -4.495   9.480  1.00  0.00     0.074 A 
HETATM   21  C   UNL     1      42.611  -4.901  10.574  1.00  0.00     0.007 A 
HETATM   22  C   UNL     1      42.194  -6.084  11.280  1.00  0.00     0.026 A 
ENDBRANCH   7   8
ENDBRANCH   2   7
BRANCH   1  23
HETATM   23  O   UNL     1      44.150 -10.329   9.387  1.00  0.00    -0.351 OA
BRANCH  23  24
HETATM   24  C   UNL     1      45.453  -9.764   9.548  1.00  0.00     0.171 C 
HETATM   25  C   UNL     1      45.600  -8.647   8.530  1.00  0.00     0.034 C 
ENDBRANCH  23  24
ENDBRANCH   1  23
BRANCH   4  26
HETATM   26  C   UNL     1      42.311 -11.896   4.293  1.00  0.00     0.150 C 
HETATM   27  N   UNL     1      41.236 -12.613   4.295  1.00  0.00    -0.184 NA
BRANCH  27  28
HETATM   28  N   UNL     1      40.740 -13.002   3.098  1.00  0.00    -0.242 N 
HETATM   29  C   UNL     1      40.893 -14.319   2.686  1.00  0.00     0.292 C 
HETATM   30  O   UNL     1      41.465 -15.192   3.340  1.00  0.00    -0.264 OA
HETATM   31  H   UNL     1      40.256 -12.364   2.467  1.00  0.00     0.192 HD
BRANCH  29  32
HETATM   32  C   UNL     1      40.297 -14.572   1.368  1.00  0.00     0.148 A 
HETATM   33  N   UNL     1      39.769 -15.766   1.034  1.00  0.00    -0.169 NA
HETATM   34  N   UNL     1      39.329 -15.587  -0.227  1.00  0.00    -0.281 N 
HETATM   35  H   UNL     1      38.874 -16.367  -0.691  1.00  0.00     0.189 HD
HETATM   36  C   UNL     1      39.568 -14.333  -0.731  1.00  0.00     0.038 A 
HETATM   37  C   UNL     1      40.184 -13.651   0.298  1.00  0.00     0.066 A 
BRANCH  36  38
HETATM   38  C   UNL     1      39.153 -13.906  -2.124  1.00  0.00    -0.007 C 
HETATM   39  C   UNL     1      38.656 -15.135  -2.904  1.00  0.00     0.021 C 
HETATM   40  C   UNL     1      38.014 -12.868  -2.058  1.00  0.00     0.021 C 
HETATM   41  C   UNL     1      40.332 -13.264  -2.882  1.00  0.00     0.021 C 
ENDBRANCH  36  38
ENDBRANCH  29  32
ENDBRANCH  27  28
ENDBRANCH   4  26
TORSDOF 8
ENDMDL
MODEL 6
REMARK VINA RESULT:      -7.5      4.753     10.483
REMARK  8 active torsions:
REMARK  status: ('A' for Active; 'I' for Inactive)
REMARK    1  A    between atoms: C_2  and  O_3 
REMARK    2  A    between atoms: O_3  and  C_4 
REMARK    3  A    between atoms: C_5  and  C_6 
REMARK    4  A    between atoms: C_6  and  N_7 
REMARK    5  A    between atoms: C_23  and  C_24 
REMARK    6  A    between atoms: N_25  and  N_26 
REMARK       I    between atoms: N_26  and  C_27 
REMARK    7  A    between atoms: C_27  and  C_28 
REMARK    8  A    between atoms: C_32  and  C_33 
ROOT
HETATM    1  C   UNL     1      41.076 -14.741   1.924  1.00  0.00     0.076 A 
HETATM    2  C   UNL     1      41.842 -13.559   1.916  1.00  0.00     0.002 A 
HETATM    3  C   UNL     1      41.717 -12.698   0.818  1.00  0.00     0.024 A 
HETATM    4  C   UNL     1      40.804 -12.959  -0.214  1.00  0.00    -0.016 A 
HETATM    5  C   UNL     1      40.048 -14.124  -0.198  1.00  0.00     0.016 A 
HETATM    6  C   UNL     1      40.193 -15.018   0.869  1.00  0.00     0.038 A 
ENDROOT
BRANCH   2   7
HETATM    7  C   UNL     1      42.808 -13.287   3.049  1.00  0.00     0.276 C 
BRANCH   7   8
HETATM    8  N   UNL     1      42.702 -11.926   3.744  1.00  0.00    -0.066 N 
HETATM    9  H   UNL     1      42.729 -11.269   2.956  1.00  0.00     0.280 HD
HETATM   10  C   UNL     1      41.378 -11.645   4.441  1.00  0.00     0.246 C 
HETATM   11  C   UNL     1      41.378 -11.988   5.942  1.00  0.00     0.062 C 
HETATM   12  C   UNL     1      42.544 -11.295   6.632  1.00  0.00     0.020 C 
HETATM   13  C   UNL     1      41.424 -13.484   6.175  1.00  0.00     0.020 A 
HETATM   14  C   UNL     1      43.824 -11.865   6.043  1.00  0.00     0.031 C 
HETATM   15  C   UNL     1      43.916 -13.359   6.366  1.00  0.00     0.138 C 
HETATM   16  C   UNL     1      43.922 -11.552   4.548  1.00  0.00     0.241 C 
HETATM   17  N   UNL     1      42.666 -14.114   6.295  1.00  0.00    -0.317 N 
HETATM   18  C   UNL     1      42.785 -15.500   6.477  1.00  0.00     0.247 A 
HETATM   19  O   UNL     1      43.859 -16.088   6.560  1.00  0.00    -0.268 OA
HETATM   20  C   UNL     1      41.519 -16.268   6.550  1.00  0.00     0.074 A 
HETATM   21  C   UNL     1      40.346 -15.635   6.447  1.00  0.00     0.007 A 
HETATM   22  C   UNL     1      40.296 -14.210   6.254  1.00  0.00     0.026 A 
ENDBRANCH   7   8
ENDBRANCH   2   7
BRANCH   1  23
HETATM   23  O   UNL     1      41.280 -15.552   3.009  1.00  0.00    -0.351 OA
BRANCH  23  24
HETATM   24  C   UNL     1      41.700 -16.897   2.770  1.00  0.00     0.171 C 
HETATM   25  C   UNL     1      43.215 -16.931   2.870  1.00  0.00     0.034 C 
ENDBRANCH  23  24
ENDBRANCH   1  23
BRANCH   4  26
HETATM   26  C   UNL     1      40.638 -11.948  -1.279  1.00  0.00     0.150 C 
HETATM   27  N   UNL     1      41.224 -10.805  -1.131  1.00  0.00    -0.184 NA
BRANCH  27  28
HETATM   28  N   UNL     1      41.048  -9.880  -2.103  1.00  0.00    -0.242 N 
HETATM   29  C   UNL     1      41.904  -8.789  -2.175  1.00  0.00     0.292 C 
HETATM   30  O   UNL     1      42.838  -8.584  -1.401  1.00  0.00    -0.264 OA
HETATM   31  H   UNL     1      40.301  -9.941  -2.794  1.00  0.00     0.192 HD
BRANCH  29  32
HETATM   32  C   UNL     1      41.574  -7.886  -3.286  1.00  0.00     0.148 A 
HETATM   33  N   UNL     1      40.351  -7.340  -3.429  1.00  0.00    -0.169 NA
HETATM   34  N   UNL     1      40.460  -6.586  -4.540  1.00  0.00    -0.281 N 
HETATM   35  H   UNL     1      39.646  -6.059  -4.843  1.00  0.00     0.189 HD
HETATM   36  C   UNL     1      41.696  -6.636  -5.133  1.00  0.00     0.038 A 
HETATM   37  C   UNL     1      42.442  -7.467  -4.323  1.00  0.00     0.066 A 
BRANCH  36  38
HETATM   38  C   UNL     1      42.046  -5.861  -6.387  1.00  0.00    -0.007 C 
HETATM   39  C   UNL     1      41.719  -4.374  -6.173  1.00  0.00     0.021 C 
HETATM   40  C   UNL     1      43.549  -5.996  -6.708  1.00  0.00     0.021 C 
HETATM   41  C   UNL     1      41.257  -6.386  -7.603  1.00  0.00     0.021 C 
ENDBRANCH  36  38
ENDBRANCH  29  32
ENDBRANCH  27  28
ENDBRANCH   4  26
TORSDOF 8
ENDMDL
MODEL 7
REMARK VINA RESULT:      -7.5      4.364      9.817
REMARK  8 active torsions:
REMARK  status: ('A' for Active; 'I' for Inactive)
REMARK    1  A    between atoms: C_2  and  O_3 
REMARK    2  A    between atoms: O_3  and  C_4 
REMARK    3  A    between atoms: C_5  and  C_6 
REMARK    4  A    between atoms: C_6  and  N_7 
REMARK    5  A    between atoms: C_23  and  C_24 
REMARK    6  A    between atoms: N_25  and  N_26 
REMARK       I    between atoms: N_26  and  C_27 
REMARK    7  A    between atoms: C_27  and  C_28 
REMARK    8  A    between atoms: C_32  and  C_33 
ROOT
HETATM    1  C   UNL     1      42.863 -11.015   6.076  1.00  0.00     0.076 A 
HETATM    2  C   UNL     1      42.926 -11.898   4.978  1.00  0.00     0.002 A 
HETATM    3  C   UNL     1      42.323 -11.502   3.777  1.00  0.00     0.024 A 
HETATM    4  C   UNL     1      41.737 -10.237   3.637  1.00  0.00    -0.016 A 
HETATM    5  C   UNL     1      41.682  -9.369   4.721  1.00  0.00     0.016 A 
HETATM    6  C   UNL     1      42.239  -9.766   5.942  1.00  0.00     0.038 A 
ENDROOT
BRANCH   2   7
HETATM    7  C   UNL     1      43.581 -13.252   5.146  1.00  0.00     0.276 C 
BRANCH   7   8
HETATM    8  N   UNL     1      43.001 -14.179   6.217  1.00  0.00    -0.066 N 
HETATM    9  H   UNL     1      43.223 -13.683   7.088  1.00  0.00     0.280 HD
HETATM   10  C   UNL     1      41.484 -14.311   6.220  1.00  0.00     0.246 C 
HETATM   11  C   UNL     1      40.961 -15.523   5.426  1.00  0.00     0.062 C 
HETATM   12  C   UNL     1      41.645 -16.794   5.909  1.00  0.00     0.020 C 
HETATM   13  C   UNL     1      41.152 -15.341   3.935  1.00  0.00     0.020 A 
HETATM   14  C   UNL     1      43.127 -16.659   5.597  1.00  0.00     0.031 C 
HETATM   15  C   UNL     1      43.324 -16.573   4.081  1.00  0.00     0.138 C 
HETATM   16  C   UNL     1      43.741 -15.485   6.363  1.00  0.00     0.241 C 
HETATM   17  N   UNL     1      42.336 -15.790   3.342  1.00  0.00    -0.317 N 
HETATM   18  C   UNL     1      42.595 -15.622   1.974  1.00  0.00     0.247 A 
HETATM   19  O   UNL     1      43.634 -15.981   1.427  1.00  0.00    -0.268 OA
HETATM   20  C   UNL     1      41.539 -14.952   1.178  1.00  0.00     0.074 A 
HETATM   21  C   UNL     1      40.410 -14.548   1.770  1.00  0.00     0.007 A 
HETATM   22  C   UNL     1      40.212 -14.744   3.182  1.00  0.00     0.026 A 
ENDBRANCH   7   8
ENDBRANCH   2   7
BRANCH   1  23
HETATM   23  O   UNL     1      43.438 -11.486   7.226  1.00  0.00    -0.351 OA
BRANCH  23  24
HETATM   24  C   UNL     1      44.482 -10.709   7.818  1.00  0.00     0.171 C 
HETATM   25  C   UNL     1      45.783 -11.088   7.135  1.00  0.00     0.034 C 
ENDBRANCH  23  24
ENDBRANCH   1  23
BRANCH   4  26
HETATM   26  C   UNL     1      41.229  -9.840   2.307  1.00  0.00     0.150 C 
HETATM   27  N   UNL     1      41.934 -10.148   1.269  1.00  0.00    -0.184 NA
BRANCH  27  28
HETATM   28  N   UNL     1      41.469  -9.763   0.058  1.00  0.00    -0.242 N 
HETATM   29  C   UNL     1      41.096 -10.723  -0.872  1.00  0.00     0.292 C 
HETATM   30  O   UNL     1      41.158 -11.938  -0.683  1.00  0.00    -0.264 OA
HETATM   31  H   UNL     1      41.383  -8.784  -0.214  1.00  0.00     0.192 HD
BRANCH  29  32
HETATM   32  C   UNL     1      40.614 -10.135  -2.129  1.00  0.00     0.148 A 
HETATM   33  N   UNL     1      39.610 -10.683  -2.841  1.00  0.00    -0.169 NA
HETATM   34  N   UNL     1      39.470  -9.856  -3.895  1.00  0.00    -0.281 N 
HETATM   35  H   UNL     1      38.748 -10.068  -4.578  1.00  0.00     0.189 HD
HETATM   36  C   UNL     1      40.353  -8.806  -3.906  1.00  0.00     0.038 A 
HETATM   37  C   UNL     1      41.098  -8.961  -2.756  1.00  0.00     0.066 A 
BRANCH  36  38
HETATM   38  C   UNL     1      40.371  -7.749  -4.991  1.00  0.00    -0.007 C 
HETATM   39  C   UNL     1      41.765  -7.100  -5.044  1.00  0.00     0.021 C 
HETATM   40  C   UNL     1      40.065  -8.376  -6.367  1.00  0.00     0.021 C 
HETATM   41  C   UNL     1      39.313  -6.661  -4.723  1.00  0.00     0.021 C 
ENDBRANCH  36  38
ENDBRANCH  29  32
ENDBRANCH  27  28
ENDBRANCH   4  26
TORSDOF 8
ENDMDL
MODEL 8
REMARK VINA RESULT:      -7.5      4.594     10.261
REMARK  8 active torsions:
REMARK  status: ('A' for Active; 'I' for Inactive)
REMARK    1  A    between atoms: C_2  and  O_3 
REMARK    2  A    between atoms: O_3  and  C_4 
REMARK    3  A    between atoms: C_5  and  C_6 
REMARK    4  A    between atoms: C_6  and  N_7 
REMARK    5  A    between atoms: C_23  and  C_24 
REMARK    6  A    between atoms: N_25  and  N_26 
REMARK       I    between atoms: N_26  and  C_27 
REMARK    7  A    between atoms: C_27  and  C_28 
REMARK    8  A    between atoms: C_32  and  C_33 
ROOT
HETATM    1  C   UNL     1      42.011 -15.721   2.737  1.00  0.00     0.076 A 
HETATM    2  C   UNL     1      42.240 -14.378   2.375  1.00  0.00     0.002 A 
HETATM    3  C   UNL     1      41.439 -13.819   1.371  1.00  0.00     0.024 A 
HETATM    4  C   UNL     1      40.390 -14.542   0.787  1.00  0.00    -0.016 A 
HETATM    5  C   UNL     1      40.166 -15.864   1.151  1.00  0.00     0.016 A 
HETATM    6  C   UNL     1      40.985 -16.453   2.121  1.00  0.00     0.038 A 
ENDROOT
BRANCH   2   7
HETATM    7  C   UNL     1      43.366 -13.609   3.032  1.00  0.00     0.276 C 
BRANCH   7   8
HETATM    8  N   UNL     1      43.096 -12.145   3.387  1.00  0.00    -0.066 N 
HETATM    9  H   UNL     1      43.250 -11.664   2.493  1.00  0.00     0.280 HD
HETATM   10  C   UNL     1      41.659 -11.814   3.764  1.00  0.00     0.246 C 
HETATM   11  C   UNL     1      41.390 -11.837   5.281  1.00  0.00     0.062 C 
HETATM   12  C   UNL     1      42.389 -10.940   5.998  1.00  0.00     0.020 C 
HETATM   13  C   UNL     1      41.434 -13.246   5.835  1.00  0.00     0.020 A 
HETATM   14  C   UNL     1      43.771 -11.533   5.779  1.00  0.00     0.031 C 
HETATM   15  C   UNL     1      43.842 -12.919   6.427  1.00  0.00     0.138 C 
HETATM   16  C   UNL     1      44.136 -11.532   4.292  1.00  0.00     0.241 C 
HETATM   17  N   UNL     1      42.649 -13.753   6.304  1.00  0.00    -0.317 N 
HETATM   18  C   UNL     1      42.770 -15.060   6.798  1.00  0.00     0.247 A 
HETATM   19  O   UNL     1      43.826 -15.546   7.193  1.00  0.00    -0.268 OA
HETATM   20  C   UNL     1      41.534 -15.880   6.812  1.00  0.00     0.074 A 
HETATM   21  C   UNL     1      40.383 -15.361   6.372  1.00  0.00     0.007 A 
HETATM   22  C   UNL     1      40.331 -14.013   5.870  1.00  0.00     0.026 A 
ENDBRANCH   7   8
ENDBRANCH   2   7
BRANCH   1  23
HETATM   23  O   UNL     1      42.856 -16.210   3.697  1.00  0.00    -0.351 OA
BRANCH  23  24
HETATM   24  C   UNL     1      42.880 -17.624   3.909  1.00  0.00     0.171 C 
HETATM   25  C   UNL     1      43.960 -18.207   3.015  1.00  0.00     0.034 C 
ENDBRANCH  23  24
ENDBRANCH   1  23
BRANCH   4  26
HETATM   26  C   UNL     1      39.511 -13.850  -0.179  1.00  0.00     0.150 C 
HETATM   27  N   UNL     1      39.397 -12.566  -0.087  1.00  0.00    -0.184 NA
BRANCH  27  28
HETATM   28  N   UNL     1      38.573 -11.946  -0.964  1.00  0.00    -0.242 N 
HETATM   29  C   UNL     1      39.110 -11.285  -2.060  1.00  0.00     0.292 C 
HETATM   30  O   UNL     1      40.313 -11.210  -2.309  1.00  0.00    -0.264 OA
HETATM   31  H   UNL     1      37.560 -11.932  -0.854  1.00  0.00     0.192 HD
BRANCH  29  32
HETATM   32  C   UNL     1      38.080 -10.669  -2.908  1.00  0.00     0.148 A 
HETATM   33  N   UNL     1      38.389  -9.864  -3.943  1.00  0.00    -0.169 NA
HETATM   34  N   UNL     1      37.191  -9.521  -4.456  1.00  0.00    -0.281 N 
HETATM   35  H   UNL     1      37.174  -8.913  -5.270  1.00  0.00     0.189 HD
HETATM   36  C   UNL     1      36.120 -10.055  -3.785  1.00  0.00     0.038 A 
HETATM   37  C   UNL     1      36.678 -10.818  -2.781  1.00  0.00     0.066 A 
BRANCH  36  38
HETATM   38  C   UNL     1      34.681  -9.810  -4.191  1.00  0.00    -0.007 C 
HETATM   39  C   UNL     1      34.396 -10.537  -5.517  1.00  0.00     0.021 C 
HETATM   40  C   UNL     1      33.713 -10.345  -3.116  1.00  0.00     0.021 C 
HETATM   41  C   UNL     1      34.402  -8.304  -4.368  1.00  0.00     0.021 C 
ENDBRANCH  36  38
ENDBRANCH  29  32
ENDBRANCH  27  28
ENDBRANCH   4  26
TORSDOF 8
ENDMDL
MODEL 9
REMARK VINA RESULT:      -7.4      1.968      3.518
REMARK  8 active torsions:
REMARK  status: ('A' for Active; 'I' for Inactive)
REMARK    1  A    between atoms: C_2  and  O_3 
REMARK    2  A    between atoms: O_3  and  C_4 
REMARK    3  A    between atoms: C_5  and  C_6 
REMARK    4  A    between atoms: C_6  and  N_7 
REMARK    5  A    between atoms: C_23  and  C_24 
REMARK    6  A    between atoms: N_25  and  N_26 
REMARK       I    between atoms: N_26  and  C_27 
REMARK    7  A    between atoms: C_27  and  C_28 
REMARK    8  A    between atoms: C_32  and  C_33 
ROOT
HETATM    1  C   UNL     1      39.924 -11.167   4.392  1.00  0.00     0.076 A 
HETATM    2  C   UNL     1      40.744 -11.544   5.475  1.00  0.00     0.002 A 
HETATM    3  C   UNL     1      40.708 -10.760   6.635  1.00  0.00     0.024 A 
HETATM    4  C   UNL     1      39.832  -9.673   6.754  1.00  0.00    -0.016 A 
HETATM    5  C   UNL     1      39.023  -9.309   5.685  1.00  0.00     0.016 A 
HETATM    6  C   UNL     1      39.078 -10.054   4.501  1.00  0.00     0.038 A 
ENDROOT
BRANCH   2   7
HETATM    7  C   UNL     1      41.669 -12.734   5.332  1.00  0.00     0.276 C 
BRANCH   7   8
HETATM    8  N   UNL     1      41.568 -13.828   6.399  1.00  0.00    -0.066 N 
HETATM    9  H   UNL     1      41.362 -13.293   7.250  1.00  0.00     0.280 HD
HETATM   10  C   UNL     1      40.395 -14.786   6.248  1.00  0.00     0.246 C 
HETATM   11  C   UNL     1      40.742 -16.083   5.491  1.00  0.00     0.062 C 
HETATM   12  C   UNL     1      41.946 -16.753   6.137  1.00  0.00     0.020 C 
HETATM   13  C   UNL     1      40.992 -15.824   4.020  1.00  0.00     0.020 A 
HETATM   14  C   UNL     1      43.129 -15.812   5.977  1.00  0.00     0.031 C 
HETATM   15  C   UNL     1      43.441 -15.629   4.489  1.00  0.00     0.138 C 
HETATM   16  C   UNL     1      42.882 -14.495   6.719  1.00  0.00     0.241 C 
HETATM   17  N   UNL     1      42.290 -15.533   3.594  1.00  0.00    -0.317 N 
HETATM   18  C   UNL     1      42.588 -15.248   2.253  1.00  0.00     0.247 A 
HETATM   19  O   UNL     1      43.712 -14.963   1.848  1.00  0.00    -0.268 OA
HETATM   20  C   UNL     1      41.452 -15.284   1.301  1.00  0.00     0.074 A 
HETATM   21  C   UNL     1      40.224 -15.581   1.736  1.00  0.00     0.007 A 
HETATM   22  C   UNL     1      39.986 -15.855   3.129  1.00  0.00     0.026 A 
ENDBRANCH   7   8
ENDBRANCH   2   7
BRANCH   1  23
HETATM   23  O   UNL     1      40.041 -11.956   3.279  1.00  0.00    -0.351 OA
BRANCH  23  24
HETATM   24  C   UNL     1      38.843 -12.335   2.598  1.00  0.00     0.171 C 
HETATM   25  C   UNL     1      39.069 -12.119   1.112  1.00  0.00     0.034 C 
ENDBRANCH  23  24
ENDBRANCH   1  23
BRANCH   4  26
HETATM   26  C   UNL     1      39.761  -8.965   8.050  1.00  0.00     0.150 C 
HETATM   27  N   UNL     1      39.630  -9.672   9.124  1.00  0.00    -0.184 NA
BRANCH  27  28
HETATM   28  N   UNL     1      39.546  -9.012  10.302  1.00  0.00    -0.242 N 
HETATM   29  C   UNL     1      40.601  -9.075  11.201  1.00  0.00     0.292 C 
HETATM   30  O   UNL     1      41.642  -9.705  11.012  1.00  0.00    -0.264 OA
HETATM   31  H   UNL     1      38.728  -8.467  10.572  1.00  0.00     0.192 HD
BRANCH  29  32
HETATM   32  C   UNL     1      40.347  -8.304  12.425  1.00  0.00     0.148 A 
HETATM   33  N   UNL     1      40.821  -8.687  13.628  1.00  0.00    -0.169 NA
HETATM   34  N   UNL     1      40.384  -7.729  14.469  1.00  0.00    -0.281 N 
HETATM   35  H   UNL     1      40.635  -7.803  15.450  1.00  0.00     0.189 HD
HETATM   36  C   UNL     1      39.631  -6.753  13.865  1.00  0.00     0.038 A 
HETATM   37  C   UNL     1      39.608  -7.101  12.531  1.00  0.00     0.066 A 
BRANCH  36  38
HETATM   38  C   UNL     1      39.045  -5.575  14.616  1.00  0.00    -0.007 C 
HETATM   39  C   UNL     1      40.036  -4.399  14.570  1.00  0.00     0.021 C 
HETATM   40  C   UNL     1      37.716  -5.127  13.973  1.00  0.00     0.021 C 
HETATM   41  C   UNL     1      38.757  -5.941  16.086  1.00  0.00     0.021 C 
ENDBRANCH  36  38
ENDBRANCH  29  32
ENDBRANCH  27  28
ENDBRANCH   4  26
TORSDOF 8
ENDMDL
MODEL 10
REMARK VINA RESULT:      -7.3      2.875     10.465
REMARK  8 active torsions:
REMARK  status: ('A' for Active; 'I' for Inactive)
REMARK    1  A    between atoms: C_2  and  O_3 
REMARK    2  A    between atoms: O_3  and  C_4 
REMARK    3  A    between atoms: C_5  and  C_6 
REMARK    4  A    between atoms: C_6  and  N_7 
REMARK    5  A    between atoms: C_23  and  C_24 
REMARK    6  A    between atoms: N_25  and  N_26 
REMARK       I    between atoms: N_26  and  C_27 
REMARK    7  A    between atoms: C_27  and  C_28 
REMARK    8  A    between atoms: C_32  and  C_33 
ROOT
HETATM    1  C   UNL     1      38.753  -6.811  10.074  1.00  0.00     0.076 A 
HETATM    2  C   UNL     1      39.288  -8.077  10.386  1.00  0.00     0.002 A 
HETATM    3  C   UNL     1      39.733  -8.884   9.332  1.00  0.00     0.024 A 
HETATM    4  C   UNL     1      39.718  -8.428   8.006  1.00  0.00    -0.016 A 
HETATM    5  C   UNL     1      39.193  -7.178   7.705  1.00  0.00     0.016 A 
HETATM    6  C   UNL     1      38.703  -6.375   8.741  1.00  0.00     0.038 A 
ENDROOT
BRANCH   2   7
HETATM    7  C   UNL     1      39.312  -8.543  11.826  1.00  0.00     0.276 C 
BRANCH   7   8
HETATM    8  N   UNL     1      40.479  -9.439  12.249  1.00  0.00    -0.066 N 
HETATM    9  H   UNL     1      40.078 -10.381  12.174  1.00  0.00     0.280 HD
HETATM   10  C   UNL     1      41.675  -9.448  11.308  1.00  0.00     0.246 C 
HETATM   11  C   UNL     1      42.788  -8.457  11.701  1.00  0.00     0.062 C 
HETATM   12  C   UNL     1      43.199  -8.688  13.148  1.00  0.00     0.020 C 
HETATM   13  C   UNL     1      42.361  -7.021  11.482  1.00  0.00     0.020 A 
HETATM   14  C   UNL     1      41.993  -8.375  14.018  1.00  0.00     0.031 C 
HETATM   15  C   UNL     1      41.624  -6.896  13.870  1.00  0.00     0.138 C 
HETATM   16  C   UNL     1      40.837  -9.330  13.711  1.00  0.00     0.241 C 
HETATM   17  N   UNL     1      41.735  -6.333  12.526  1.00  0.00    -0.317 N 
HETATM   18  C   UNL     1      41.282  -5.013  12.383  1.00  0.00     0.247 A 
HETATM   19  O   UNL     1      40.706  -4.389  13.269  1.00  0.00    -0.268 OA
HETATM   20  C   UNL     1      41.513  -4.374  11.065  1.00  0.00     0.074 A 
HETATM   21  C   UNL     1      42.128  -5.052  10.091  1.00  0.00     0.007 A 
HETATM   22  C   UNL     1      42.561  -6.408  10.303  1.00  0.00     0.026 A 
ENDBRANCH   7   8
ENDBRANCH   2   7
BRANCH   1  23
HETATM   23  O   UNL     1      38.303  -6.095  11.151  1.00  0.00    -0.351 OA
BRANCH  23  24
HETATM   24  C   UNL     1      37.839  -4.762  10.921  1.00  0.00     0.171 C 
HETATM   25  C   UNL     1      36.853  -4.421  12.024  1.00  0.00     0.034 C 
ENDBRANCH  23  24
ENDBRANCH   1  23
BRANCH   4  26
HETATM   26  C   UNL     1      40.314  -9.286   6.960  1.00  0.00     0.150 C 
HETATM   27  N   UNL     1      40.638 -10.496   7.276  1.00  0.00    -0.184 NA
BRANCH  27  28
HETATM   28  N   UNL     1      41.201 -11.265   6.316  1.00  0.00    -0.242 N 
HETATM   29  C   UNL     1      40.567 -12.432   5.911  1.00  0.00     0.292 C 
HETATM   30  O   UNL     1      39.501 -12.841   6.370  1.00  0.00    -0.264 OA
HETATM   31  H   UNL     1      42.088 -11.031   5.871  1.00  0.00     0.192 HD
BRANCH  29  32
HETATM   32  C   UNL     1      41.311 -13.144   4.863  1.00  0.00     0.148 A 
HETATM   33  N   UNL     1      42.119 -12.504   3.994  1.00  0.00    -0.169 NA
HETATM   34  N   UNL     1      42.608 -13.491   3.219  1.00  0.00    -0.281 N 
HETATM   35  H   UNL     1      43.263 -13.243   2.484  1.00  0.00     0.189 HD
HETATM   36  C   UNL     1      42.137 -14.741   3.537  1.00  0.00     0.038 A 
HETATM   37  C   UNL     1      41.301 -14.538   4.615  1.00  0.00     0.066 A 
BRANCH  36  38
HETATM   38  C   UNL     1      42.559 -15.997   2.803  1.00  0.00    -0.007 C 
HETATM   39  C   UNL     1      43.325 -16.917   3.770  1.00  0.00     0.021 C 
HETATM   40  C   UNL     1      41.325 -16.756   2.272  1.00  0.00     0.021 C 
HETATM   41  C   UNL     1      43.460 -15.661   1.599  1.00  0.00     0.021 C 
ENDBRANCH  36  38
ENDBRANCH  29  32
ENDBRANCH  27  28
ENDBRANCH   4  26
TORSDOF 8
ENDMDL
