MODEL 1
REMARK VINA RESULT:      -7.7      0.000      0.000
REMARK  6 active torsions:
REMARK  status: ('A' for Active; 'I' for Inactive)
REMARK    1  A    between atoms: C_2  and  N_3 
REMARK    2  A    between atoms: C_2  and  C_16 
REMARK    3  A    between atoms: N_3  and  C_6 
REMARK    4  A    between atoms: C_16  and  C_17 
REMARK       I    between atoms: C_17  and  N_18 
REMARK    5  A    between atoms: N_18  and  C_19 
REMARK    6  A    between atoms: C_21  and  O_22 
ROOT
HETATM    1  C   UNL     1      41.886 -12.272   5.716  1.00  0.00     0.040 C 
HETATM    2  C   UNL     1      42.148 -13.028   4.420  1.00  0.00     0.191 C 
ENDROOT
BRANCH   2   3
HETATM    3  N   UNL     1      42.732 -14.391   4.714  1.00  0.00    -0.063 N 
HETATM    4  H   UNL     1      43.557 -14.495   4.083  1.00  0.00     0.278 HD
HETATM    5  H   UNL     1      43.153 -14.341   5.650  1.00  0.00     0.278 HD
BRANCH   3   6
HETATM    6  C   UNL     1      41.901 -15.644   4.621  1.00  0.00     0.221 C 
HETATM    7  C   UNL     1      42.641 -16.832   4.069  1.00  0.00    -0.011 A 
HETATM    8  C   UNL     1      43.622 -17.469   4.844  1.00  0.00     0.009 A 
HETATM    9  C   UNL     1      42.355 -17.325   2.783  1.00  0.00     0.011 A 
HETATM   10  C   UNL     1      44.345 -18.539   4.310  1.00  0.00     0.019 A 
HETATM   11  S   UNL     1      44.013 -16.909   6.488  1.00  0.00    -0.129 SA
HETATM   12  C   UNL     1      44.070 -19.005   3.025  1.00  0.00     0.001 A 
HETATM   13  C   UNL     1      43.070 -18.405   2.265  1.00  0.00     0.001 A 
HETATM   14  C   UNL     1      42.398 -16.301   7.076  1.00  0.00     0.082 C 
HETATM   15  C   UNL     1      41.350 -15.999   6.007  1.00  0.00     0.048 C 
ENDBRANCH   3   6
ENDBRANCH   2   3
BRANCH   2  16
HETATM   16  C   UNL     1      40.914 -13.073   3.511  1.00  0.00     0.135 C 
BRANCH  16  17
HETATM   17  C   UNL     1      41.314 -13.202   2.058  1.00  0.00     0.224 C 
HETATM   18  N   UNL     1      40.333 -12.779   1.190  1.00  0.00    -0.327 N 
HETATM   19  H   UNL     1      39.409 -12.603   1.569  1.00  0.00     0.169 HD
HETATM   20  O   UNL     1      42.402 -13.694   1.773  1.00  0.00    -0.273 OA
BRANCH  18  21
HETATM   21  C   UNL     1      40.425 -12.698  -0.217  1.00  0.00     0.037 A 
HETATM   22  C   UNL     1      39.909 -13.665  -1.085  1.00  0.00     0.066 A 
HETATM   23  C   UNL     1      40.076 -13.531  -2.468  1.00  0.00     0.070 A 
HETATM   24  C   UNL     1      40.712 -12.403  -2.985  1.00  0.00     0.037 A 
HETATM   25  C   UNL     1      41.233 -11.436  -2.129  1.00  0.00     0.005 A 
HETATM   26  C   UNL     1      41.102 -11.592  -0.748  1.00  0.00     0.029 A 
BRANCH  23  27
HETATM   27  O   UNL     1      39.632 -14.427  -3.402  1.00  0.00    -0.356 OA
HETATM   28  C   UNL     1      38.243 -14.736  -3.338  1.00  0.00     0.210 C 
ENDBRANCH  23  27
ENDBRANCH  18  21
ENDBRANCH  16  17
ENDBRANCH   2  16
TORSDOF 6
ENDMDL
MODEL 2
REMARK VINA RESULT:      -7.7      4.059      7.852
REMARK  6 active torsions:
REMARK  status: ('A' for Active; 'I' for Inactive)
REMARK    1  A    between atoms: C_2  and  N_3 
REMARK    2  A    between atoms: C_2  and  C_16 
REMARK    3  A    between atoms: N_3  and  C_6 
REMARK    4  A    between atoms: C_16  and  C_17 
REMARK       I    between atoms: C_17  and  N_18 
REMARK    5  A    between atoms: N_18  and  C_19 
REMARK    6  A    between atoms: C_21  and  O_22 
ROOT
HETATM    1  C   UNL     1      41.906 -12.619   3.210  1.00  0.00     0.040 C 
HETATM    2  C   UNL     1      42.519 -12.943   4.567  1.00  0.00     0.191 C 
ENDROOT
BRANCH   2   3
HETATM    3  N   UNL     1      42.975 -14.384   4.609  1.00  0.00    -0.063 N 
HETATM    4  H   UNL     1      43.731 -14.470   3.895  1.00  0.00     0.278 HD
HETATM    5  H   UNL     1      43.472 -14.516   5.499  1.00  0.00     0.278 HD
BRANCH   3   6
HETATM    6  C   UNL     1      42.009 -15.525   4.419  1.00  0.00     0.221 C 
HETATM    7  C   UNL     1      42.658 -16.817   4.003  1.00  0.00    -0.011 A 
HETATM    8  C   UNL     1      43.427 -17.543   4.925  1.00  0.00     0.009 A 
HETATM    9  C   UNL     1      42.496 -17.317   2.699  1.00  0.00     0.011 A 
HETATM   10  C   UNL     1      44.074 -18.715   4.522  1.00  0.00     0.019 A 
HETATM   11  S   UNL     1      43.650 -16.976   6.597  1.00  0.00    -0.129 SA
HETATM   12  C   UNL     1      43.926 -19.190   3.220  1.00  0.00     0.001 A 
HETATM   13  C   UNL     1      43.131 -18.497   2.311  1.00  0.00     0.001 A 
HETATM   14  C   UNL     1      42.061 -16.148   6.932  1.00  0.00     0.082 C 
HETATM   15  C   UNL     1      41.225 -15.755   5.716  1.00  0.00     0.048 C 
ENDBRANCH   3   6
ENDBRANCH   2   3
BRANCH   2  16
HETATM   16  C   UNL     1      43.611 -11.944   4.967  1.00  0.00     0.135 C 
BRANCH  16  17
HETATM   17  C   UNL     1      43.744 -11.857   6.471  1.00  0.00     0.224 C 
HETATM   18  N   UNL     1      43.889 -10.566   6.926  1.00  0.00    -0.327 N 
HETATM   19  H   UNL     1      44.072  -9.841   6.241  1.00  0.00     0.169 HD
HETATM   20  O   UNL     1      43.763 -12.890   7.136  1.00  0.00    -0.273 OA
BRANCH  18  21
HETATM   21  C   UNL     1      43.957 -10.144   8.272  1.00  0.00     0.037 A 
HETATM   22  C   UNL     1      42.860  -9.659   8.989  1.00  0.00     0.066 A 
HETATM   23  C   UNL     1      43.019  -9.223  10.309  1.00  0.00     0.070 A 
HETATM   24  C   UNL     1      44.264  -9.323  10.930  1.00  0.00     0.037 A 
HETATM   25  C   UNL     1      45.363  -9.802  10.222  1.00  0.00     0.005 A 
HETATM   26  C   UNL     1      45.213 -10.196   8.892  1.00  0.00     0.029 A 
BRANCH  23  27
HETATM   27  O   UNL     1      42.019  -8.712  11.091  1.00  0.00    -0.356 OA
HETATM   28  C   UNL     1      41.119  -9.671  11.637  1.00  0.00     0.210 C 
ENDBRANCH  23  27
ENDBRANCH  18  21
ENDBRANCH  16  17
ENDBRANCH   2  16
TORSDOF 6
ENDMDL
MODEL 3
REMARK VINA RESULT:      -7.4      1.657      2.036
REMARK  6 active torsions:
REMARK  status: ('A' for Active; 'I' for Inactive)
REMARK    1  A    between atoms: C_2  and  N_3 
REMARK    2  A    between atoms: C_2  and  C_16 
REMARK    3  A    between atoms: N_3  and  C_6 
REMARK    4  A    between atoms: C_16  and  C_17 
REMARK       I    between atoms: C_17  and  N_18 
REMARK    5  A    between atoms: N_18  and  C_19 
REMARK    6  A    between atoms: C_21  and  O_22 
ROOT
HETATM    1  C   UNL     1      43.569 -12.458   3.259  1.00  0.00     0.040 C 
HETATM    2  C   UNL     1      42.280 -13.269   3.303  1.00  0.00     0.191 C 
ENDROOT
BRANCH   2   3
HETATM    3  N   UNL     1      42.327 -14.273   4.432  1.00  0.00    -0.063 N 
HETATM    4  H   UNL     1      43.337 -14.474   4.599  1.00  0.00     0.278 HD
HETATM    5  H   UNL     1      42.038 -13.779   5.286  1.00  0.00     0.278 HD
BRANCH   3   6
HETATM    6  C   UNL     1      41.588 -15.584   4.356  1.00  0.00     0.221 C 
HETATM    7  C   UNL     1      42.438 -16.744   3.914  1.00  0.00    -0.011 A 
HETATM    8  C   UNL     1      43.406 -17.273   4.781  1.00  0.00     0.009 A 
HETATM    9  C   UNL     1      42.268 -17.318   2.642  1.00  0.00     0.011 A 
HETATM   10  C   UNL     1      44.231 -18.315   4.350  1.00  0.00     0.019 A 
HETATM   11  S   UNL     1      43.653 -16.607   6.413  1.00  0.00    -0.129 SA
HETATM   12  C   UNL     1      44.071 -18.862   3.078  1.00  0.00     0.001 A 
HETATM   13  C   UNL     1      43.085 -18.371   2.227  1.00  0.00     0.001 A 
HETATM   14  C   UNL     1      41.968 -16.084   6.869  1.00  0.00     0.082 C 
HETATM   15  C   UNL     1      40.973 -15.907   5.723  1.00  0.00     0.048 C 
ENDBRANCH   3   6
ENDBRANCH   2   3
BRANCH   2  16
HETATM   16  C   UNL     1      41.032 -12.378   3.328  1.00  0.00     0.135 C 
BRANCH  16  17
HETATM   17  C   UNL     1      40.000 -12.861   2.333  1.00  0.00     0.224 C 
HETATM   18  N   UNL     1      40.334 -12.575   1.029  1.00  0.00    -0.327 N 
HETATM   19  H   UNL     1      41.106 -11.938   0.867  1.00  0.00     0.169 HD
HETATM   20  O   UNL     1      38.972 -13.396   2.741  1.00  0.00    -0.273 OA
BRANCH  18  21
HETATM   21  C   UNL     1      39.625 -12.958  -0.131  1.00  0.00     0.037 A 
HETATM   22  C   UNL     1      38.760 -12.107  -0.827  1.00  0.00     0.066 A 
HETATM   23  C   UNL     1      38.063 -12.576  -1.946  1.00  0.00     0.070 A 
HETATM   24  C   UNL     1      38.270 -13.879  -2.400  1.00  0.00     0.037 A 
HETATM   25  C   UNL     1      39.126 -14.734  -1.710  1.00  0.00     0.005 A 
HETATM   26  C   UNL     1      39.789 -14.278  -0.570  1.00  0.00     0.029 A 
BRANCH  23  27
HETATM   27  O   UNL     1      37.179 -11.837  -2.685  1.00  0.00    -0.356 OA
HETATM   28  C   UNL     1      36.714 -10.643  -2.063  1.00  0.00     0.210 C 
ENDBRANCH  23  27
ENDBRANCH  18  21
ENDBRANCH  16  17
ENDBRANCH   2  16
TORSDOF 6
ENDMDL
MODEL 4
REMARK VINA RESULT:      -7.0      2.972      7.073
REMARK  6 active torsions:
REMARK  status: ('A' for Active; 'I' for Inactive)
REMARK    1  A    between atoms: C_2  and  N_3 
REMARK    2  A    between atoms: C_2  and  C_16 
REMARK    3  A    between atoms: N_3  and  C_6 
REMARK    4  A    between atoms: C_16  and  C_17 
REMARK       I    between atoms: C_17  and  N_18 
REMARK    5  A    between atoms: N_18  and  C_19 
REMARK    6  A    between atoms: C_21  and  O_22 
ROOT
HETATM    1  C   UNL     1      40.115 -13.286  -0.232  1.00  0.00     0.040 C 
HETATM    2  C   UNL     1      40.092 -13.883   1.169  1.00  0.00     0.191 C 
ENDROOT
BRANCH   2   3
HETATM    3  N   UNL     1      39.091 -13.154   2.036  1.00  0.00    -0.063 N 
HETATM    4  H   UNL     1      38.727 -12.366   1.457  1.00  0.00     0.278 HD
HETATM    5  H   UNL     1      38.276 -13.772   2.138  1.00  0.00     0.278 HD
BRANCH   3   6
HETATM    6  C   UNL     1      39.464 -12.615   3.393  1.00  0.00     0.221 C 
HETATM    7  C   UNL     1      40.935 -12.347   3.564  1.00  0.00    -0.011 A 
HETATM    8  C   UNL     1      41.531 -11.262   2.904  1.00  0.00     0.009 A 
HETATM    9  C   UNL     1      41.724 -13.166   4.391  1.00  0.00     0.011 A 
HETATM   10  C   UNL     1      42.906 -11.046   3.021  1.00  0.00     0.019 A 
HETATM   11  S   UNL     1      40.581 -10.174   1.864  1.00  0.00    -0.129 SA
HETATM   12  C   UNL     1      43.685 -11.878   3.824  1.00  0.00     0.001 A 
HETATM   13  C   UNL     1      43.094 -12.932   4.516  1.00  0.00     0.001 A 
HETATM   14  C   UNL     1      38.960 -10.172   2.696  1.00  0.00     0.082 C 
HETATM   15  C   UNL     1      38.687 -11.322   3.664  1.00  0.00     0.048 C 
ENDBRANCH   3   6
ENDBRANCH   2   3
BRANCH   2  16
HETATM   16  C   UNL     1      39.895 -15.404   1.152  1.00  0.00     0.135 C 
BRANCH  16  17
HETATM   17  C   UNL     1      40.599 -16.056   2.321  1.00  0.00     0.224 C 
HETATM   18  N   UNL     1      41.773 -16.680   1.963  1.00  0.00    -0.327 N 
HETATM   19  H   UNL     1      41.960 -16.803   0.974  1.00  0.00     0.169 HD
HETATM   20  O   UNL     1      40.077 -16.028   3.432  1.00  0.00    -0.273 OA
BRANCH  18  21
HETATM   21  C   UNL     1      42.696 -17.309   2.827  1.00  0.00     0.037 A 
HETATM   22  C   UNL     1      43.179 -16.725   4.002  1.00  0.00     0.066 A 
HETATM   23  C   UNL     1      44.124 -17.398   4.785  1.00  0.00     0.070 A 
HETATM   24  C   UNL     1      44.545 -18.677   4.421  1.00  0.00     0.037 A 
HETATM   25  C   UNL     1      44.072 -19.264   3.250  1.00  0.00     0.005 A 
HETATM   26  C   UNL     1      43.162 -18.575   2.448  1.00  0.00     0.029 A 
BRANCH  23  27
HETATM   27  O   UNL     1      44.677 -16.910   5.938  1.00  0.00    -0.356 OA
HETATM   28  C   UNL     1      43.969 -15.834   6.545  1.00  0.00     0.210 C 
ENDBRANCH  23  27
ENDBRANCH  18  21
ENDBRANCH  16  17
ENDBRANCH   2  16
TORSDOF 6
ENDMDL
MODEL 5
REMARK VINA RESULT:      -7.0      3.657      7.012
REMARK  6 active torsions:
REMARK  status: ('A' for Active; 'I' for Inactive)
REMARK    1  A    between atoms: C_2  and  N_3 
REMARK    2  A    between atoms: C_2  and  C_16 
REMARK    3  A    between atoms: N_3  and  C_6 
REMARK    4  A    between atoms: C_16  and  C_17 
REMARK       I    between atoms: C_17  and  N_18 
REMARK    5  A    between atoms: N_18  and  C_19 
REMARK    6  A    between atoms: C_21  and  O_22 
ROOT
HETATM    1  C   UNL     1      43.442 -14.187   1.970  1.00  0.00     0.040 C 
HETATM    2  C   UNL     1      42.667 -13.618   3.152  1.00  0.00     0.191 C 
ENDROOT
BRANCH   2   3
HETATM    3  N   UNL     1      42.706 -14.577   4.319  1.00  0.00    -0.063 N 
HETATM    4  H   UNL     1      43.709 -14.827   4.455  1.00  0.00     0.278 HD
HETATM    5  H   UNL     1      42.479 -14.034   5.162  1.00  0.00     0.278 HD
BRANCH   3   6
HETATM    6  C   UNL     1      41.894 -15.847   4.327  1.00  0.00     0.221 C 
HETATM    7  C   UNL     1      42.651 -17.062   3.864  1.00  0.00    -0.011 A 
HETATM    8  C   UNL     1      43.644 -17.623   4.681  1.00  0.00     0.009 A 
HETATM    9  C   UNL     1      42.367 -17.657   2.621  1.00  0.00     0.011 A 
HETATM   10  C   UNL     1      44.382 -18.718   4.227  1.00  0.00     0.019 A 
HETATM   11  S   UNL     1      44.032 -16.932   6.275  1.00  0.00    -0.129 SA
HETATM   12  C   UNL     1      44.110 -19.286   2.983  1.00  0.00     0.001 A 
HETATM   13  C   UNL     1      43.098 -18.762   2.184  1.00  0.00     0.001 A 
HETATM   14  C   UNL     1      42.410 -16.306   6.823  1.00  0.00     0.082 C 
HETATM   15  C   UNL     1      41.354 -16.103   5.739  1.00  0.00     0.048 C 
ENDBRANCH   3   6
ENDBRANCH   2   3
BRANCH   2  16
HETATM   16  C   UNL     1      43.115 -12.196   3.512  1.00  0.00     0.135 C 
BRANCH  16  17
HETATM   17  C   UNL     1      42.488 -11.742   4.812  1.00  0.00     0.224 C 
HETATM   18  N   UNL     1      43.314 -10.930   5.554  1.00  0.00    -0.327 N 
HETATM   19  H   UNL     1      44.286 -10.859   5.272  1.00  0.00     0.169 HD
HETATM   20  O   UNL     1      41.370 -12.151   5.118  1.00  0.00    -0.273 OA
BRANCH  18  21
HETATM   21  C   UNL     1      42.998 -10.282   6.769  1.00  0.00     0.037 A 
HETATM   22  C   UNL     1      43.656 -10.535   7.976  1.00  0.00     0.066 A 
HETATM   23  C   UNL     1      43.256  -9.880   9.146  1.00  0.00     0.070 A 
HETATM   24  C   UNL     1      42.233  -8.933   9.098  1.00  0.00     0.037 A 
HETATM   25  C   UNL     1      41.569  -8.678   7.901  1.00  0.00     0.005 A 
HETATM   26  C   UNL     1      41.941  -9.363   6.743  1.00  0.00     0.029 A 
BRANCH  23  27
HETATM   27  O   UNL     1      43.816 -10.069  10.380  1.00  0.00    -0.356 OA
HETATM   28  C   UNL     1      45.237 -10.002  10.422  1.00  0.00     0.210 C 
ENDBRANCH  23  27
ENDBRANCH  18  21
ENDBRANCH  16  17
ENDBRANCH   2  16
TORSDOF 6
ENDMDL
MODEL 6
REMARK VINA RESULT:      -6.9     14.912     16.195
REMARK  6 active torsions:
REMARK  status: ('A' for Active; 'I' for Inactive)
REMARK    1  A    between atoms: C_2  and  N_3 
REMARK    2  A    between atoms: C_2  and  C_16 
REMARK    3  A    between atoms: N_3  and  C_6 
REMARK    4  A    between atoms: C_16  and  C_17 
REMARK       I    between atoms: C_17  and  N_18 
REMARK    5  A    between atoms: N_18  and  C_19 
REMARK    6  A    between atoms: C_21  and  O_22 
ROOT
HETATM    1  C   UNL     1      44.770 -31.835   3.577  1.00  0.00     0.040 C 
HETATM    2  C   UNL     1      44.780 -30.567   2.732  1.00  0.00     0.191 C 
ENDROOT
BRANCH   2   3
HETATM    3  N   UNL     1      46.145 -30.353   2.119  1.00  0.00    -0.063 N 
HETATM    4  H   UNL     1      46.670 -31.243   2.263  1.00  0.00     0.278 HD
HETATM    5  H   UNL     1      46.014 -30.315   1.100  1.00  0.00     0.278 HD
BRANCH   3   6
HETATM    6  C   UNL     1      47.029 -29.207   2.537  1.00  0.00     0.221 C 
HETATM    7  C   UNL     1      48.451 -29.602   2.830  1.00  0.00    -0.011 A 
HETATM    8  C   UNL     1      49.309 -29.959   1.779  1.00  0.00     0.009 A 
HETATM    9  C   UNL     1      48.939 -29.610   4.149  1.00  0.00     0.011 A 
HETATM   10  C   UNL     1      50.613 -30.377   2.057  1.00  0.00     0.019 A 
HETATM   11  S   UNL     1      48.758 -29.945   0.087  1.00  0.00    -0.129 SA
HETATM   12  C   UNL     1      51.081 -30.404   3.370  1.00  0.00     0.001 A 
HETATM   13  C   UNL     1      50.248 -30.013   4.415  1.00  0.00     0.001 A 
HETATM   14  C   UNL     1      47.566 -28.567   0.086  1.00  0.00     0.082 C 
HETATM   15  C   UNL     1      47.025 -28.130   1.446  1.00  0.00     0.048 C 
ENDBRANCH   3   6
ENDBRANCH   2   3
BRANCH   2  16
HETATM   16  C   UNL     1      43.638 -30.539   1.709  1.00  0.00     0.135 C 
BRANCH  16  17
HETATM   17  C   UNL     1      44.174 -30.577   0.295  1.00  0.00     0.224 C 
HETATM   18  N   UNL     1      43.794 -29.487  -0.455  1.00  0.00    -0.327 N 
HETATM   19  H   UNL     1      43.076 -28.880  -0.076  1.00  0.00     0.169 HD
HETATM   20  O   UNL     1      44.829 -31.548  -0.076  1.00  0.00    -0.273 OA
BRANCH  18  21
HETATM   21  C   UNL     1      44.191 -29.188  -1.777  1.00  0.00     0.037 A 
HETATM   22  C   UNL     1      43.831 -29.958  -2.887  1.00  0.00     0.066 A 
HETATM   23  C   UNL     1      44.299 -29.617  -4.161  1.00  0.00     0.070 A 
HETATM   24  C   UNL     1      45.083 -28.477  -4.332  1.00  0.00     0.037 A 
HETATM   25  C   UNL     1      45.450 -27.706  -3.231  1.00  0.00     0.005 A 
HETATM   26  C   UNL     1      45.018 -28.071  -1.956  1.00  0.00     0.029 A 
BRANCH  23  27
HETATM   27  O   UNL     1      44.026 -30.313  -5.308  1.00  0.00    -0.356 OA
HETATM   28  C   UNL     1      45.105 -31.084  -5.825  1.00  0.00     0.210 C 
ENDBRANCH  23  27
ENDBRANCH  18  21
ENDBRANCH  16  17
ENDBRANCH   2  16
TORSDOF 6
ENDMDL
MODEL 7
REMARK VINA RESULT:      -6.9     15.060     17.826
REMARK  6 active torsions:
REMARK  status: ('A' for Active; 'I' for Inactive)
REMARK    1  A    between atoms: C_2  and  N_3 
REMARK    2  A    between atoms: C_2  and  C_16 
REMARK    3  A    between atoms: N_3  and  C_6 
REMARK    4  A    between atoms: C_16  and  C_17 
REMARK       I    between atoms: C_17  and  N_18 
REMARK    5  A    between atoms: N_18  and  C_19 
REMARK    6  A    between atoms: C_21  and  O_22 
ROOT
HETATM    1  C   UNL     1      47.712 -29.122  -1.975  1.00  0.00     0.040 C 
HETATM    2  C   UNL     1      46.851 -28.252  -1.068  1.00  0.00     0.191 C 
ENDROOT
BRANCH   2   3
HETATM    3  N   UNL     1      45.716 -29.061  -0.483  1.00  0.00    -0.063 N 
HETATM    4  H   UNL     1      46.054 -30.047  -0.443  1.00  0.00     0.278 HD
HETATM    5  H   UNL     1      45.637 -28.796   0.507  1.00  0.00     0.278 HD
BRANCH   3   6
HETATM    6  C   UNL     1      44.341 -29.054  -1.099  1.00  0.00     0.221 C 
HETATM    7  C   UNL     1      44.232 -29.855  -2.368  1.00  0.00    -0.011 A 
HETATM    8  C   UNL     1      44.266 -31.257  -2.316  1.00  0.00     0.009 A 
HETATM    9  C   UNL     1      44.083 -29.217  -3.612  1.00  0.00     0.011 A 
HETATM   10  C   UNL     1      44.218 -31.998  -3.500  1.00  0.00     0.019 A 
HETATM   11  S   UNL     1      44.427 -32.124  -0.770  1.00  0.00    -0.129 SA
HETATM   12  C   UNL     1      44.095 -31.355  -4.731  1.00  0.00     0.001 A 
HETATM   13  C   UNL     1      44.019 -29.966  -4.787  1.00  0.00     0.001 A 
HETATM   14  C   UNL     1      43.536 -31.023   0.378  1.00  0.00     0.082 C 
HETATM   15  C   UNL     1      43.321 -29.584  -0.085  1.00  0.00     0.048 C 
ENDBRANCH   3   6
ENDBRANCH   2   3
BRANCH   2  16
HETATM   16  C   UNL     1      47.682 -27.511  -0.013  1.00  0.00     0.135 C 
BRANCH  16  17
HETATM   17  C   UNL     1      47.632 -28.226   1.319  1.00  0.00     0.224 C 
HETATM   18  N   UNL     1      48.678 -29.102   1.500  1.00  0.00    -0.327 N 
HETATM   19  H   UNL     1      49.257 -29.320   0.696  1.00  0.00     0.169 HD
HETATM   20  O   UNL     1      46.687 -28.024   2.077  1.00  0.00    -0.273 OA
BRANCH  18  21
HETATM   21  C   UNL     1      48.959 -29.859   2.659  1.00  0.00     0.037 A 
HETATM   22  C   UNL     1      50.159 -29.770   3.370  1.00  0.00     0.066 A 
HETATM   23  C   UNL     1      50.377 -30.584   4.488  1.00  0.00     0.070 A 
HETATM   24  C   UNL     1      49.373 -31.448   4.925  1.00  0.00     0.037 A 
HETATM   25  C   UNL     1      48.176 -31.545   4.220  1.00  0.00     0.005 A 
HETATM   26  C   UNL     1      47.977 -30.764   3.081  1.00  0.00     0.029 A 
BRANCH  23  27
HETATM   27  O   UNL     1      51.520 -30.593   5.240  1.00  0.00    -0.356 OA
HETATM   28  C   UNL     1      51.952 -31.877   5.678  1.00  0.00     0.210 C 
ENDBRANCH  23  27
ENDBRANCH  18  21
ENDBRANCH  16  17
ENDBRANCH   2  16
TORSDOF 6
ENDMDL
MODEL 8
REMARK VINA RESULT:      -6.8      3.258      7.491
REMARK  6 active torsions:
REMARK  status: ('A' for Active; 'I' for Inactive)
REMARK    1  A    between atoms: C_2  and  N_3 
REMARK    2  A    between atoms: C_2  and  C_16 
REMARK    3  A    between atoms: N_3  and  C_6 
REMARK    4  A    between atoms: C_16  and  C_17 
REMARK       I    between atoms: C_17  and  N_18 
REMARK    5  A    between atoms: N_18  and  C_19 
REMARK    6  A    between atoms: C_21  and  O_22 
ROOT
HETATM    1  C   UNL     1      37.422 -11.087   1.132  1.00  0.00     0.040 C 
HETATM    2  C   UNL     1      38.682 -11.937   1.242  1.00  0.00     0.191 C 
ENDROOT
BRANCH   2   3
HETATM    3  N   UNL     1      39.843 -11.248   0.562  1.00  0.00    -0.063 N 
HETATM    4  H   UNL     1      39.471 -10.343   0.199  1.00  0.00     0.278 HD
HETATM    5  H   UNL     1      40.495 -10.957   1.302  1.00  0.00     0.278 HD
BRANCH   3   6
HETATM    6  C   UNL     1      40.625 -11.917  -0.539  1.00  0.00     0.221 C 
HETATM    7  C   UNL     1      39.800 -12.819  -1.417  1.00  0.00    -0.011 A 
HETATM    8  C   UNL     1      38.883 -12.267  -2.323  1.00  0.00     0.009 A 
HETATM    9  C   UNL     1      39.945 -14.216  -1.351  1.00  0.00     0.011 A 
HETATM   10  C   UNL     1      38.080 -13.106  -3.099  1.00  0.00     0.019 A 
HETATM   11  S   UNL     1      38.672 -10.505  -2.471  1.00  0.00    -0.129 SA
HETATM   12  C   UNL     1      38.213 -14.491  -3.009  1.00  0.00     0.001 A 
HETATM   13  C   UNL     1      39.151 -15.046  -2.142  1.00  0.00     0.001 A 
HETATM   14  C   UNL     1      40.353  -9.891  -2.129  1.00  0.00     0.082 C 
HETATM   15  C   UNL     1      41.299 -10.851  -1.411  1.00  0.00     0.048 C 
ENDBRANCH   3   6
ENDBRANCH   2   3
BRANCH   2  16
HETATM   16  C   UNL     1      38.979 -12.354   2.688  1.00  0.00     0.135 C 
BRANCH  16  17
HETATM   17  C   UNL     1      40.330 -13.027   2.792  1.00  0.00     0.224 C 
HETATM   18  N   UNL     1      40.254 -14.400   2.722  1.00  0.00    -0.327 N 
HETATM   19  H   UNL     1      39.337 -14.827   2.790  1.00  0.00     0.169 HD
HETATM   20  O   UNL     1      41.333 -12.343   2.974  1.00  0.00    -0.273 OA
BRANCH  18  21
HETATM   21  C   UNL     1      41.336 -15.308   2.710  1.00  0.00     0.037 A 
HETATM   22  C   UNL     1      41.705 -16.088   3.810  1.00  0.00     0.066 A 
HETATM   23  C   UNL     1      42.815 -16.936   3.730  1.00  0.00     0.070 A 
HETATM   24  C   UNL     1      43.524 -17.044   2.533  1.00  0.00     0.037 A 
HETATM   25  C   UNL     1      43.165 -16.269   1.434  1.00  0.00     0.005 A 
HETATM   26  C   UNL     1      42.083 -15.392   1.528  1.00  0.00     0.029 A 
BRANCH  23  27
HETATM   27  O   UNL     1      43.275 -17.723   4.751  1.00  0.00    -0.356 OA
HETATM   28  C   UNL     1      42.842 -17.347   6.054  1.00  0.00     0.210 C 
ENDBRANCH  23  27
ENDBRANCH  18  21
ENDBRANCH  16  17
ENDBRANCH   2  16
TORSDOF 6
ENDMDL
MODEL 9
REMARK VINA RESULT:      -6.7      1.849      2.623
REMARK  6 active torsions:
REMARK  status: ('A' for Active; 'I' for Inactive)
REMARK    1  A    between atoms: C_2  and  N_3 
REMARK    2  A    between atoms: C_2  and  C_16 
REMARK    3  A    between atoms: N_3  and  C_6 
REMARK    4  A    between atoms: C_16  and  C_17 
REMARK       I    between atoms: C_17  and  N_18 
REMARK    5  A    between atoms: N_18  and  C_19 
REMARK    6  A    between atoms: C_21  and  O_22 
ROOT
HETATM    1  C   UNL     1      41.831 -12.073   3.675  1.00  0.00     0.040 C 
HETATM    2  C   UNL     1      41.721 -13.480   3.100  1.00  0.00     0.191 C 
ENDROOT
BRANCH   2   3
HETATM    3  N   UNL     1      42.102 -14.507   4.142  1.00  0.00    -0.063 N 
HETATM    4  H   UNL     1      43.137 -14.618   4.073  1.00  0.00     0.278 HD
HETATM    5  H   UNL     1      41.970 -14.065   5.060  1.00  0.00     0.278 HD
BRANCH   3   6
HETATM    6  C   UNL     1      41.476 -15.877   4.168  1.00  0.00     0.221 C 
HETATM    7  C   UNL     1      42.423 -16.992   3.816  1.00  0.00    -0.011 A 
HETATM    8  C   UNL     1      43.428 -17.369   4.720  1.00  0.00     0.009 A 
HETATM    9  C   UNL     1      42.309 -17.674   2.592  1.00  0.00     0.011 A 
HETATM   10  C   UNL     1      44.340 -18.367   4.371  1.00  0.00     0.019 A 
HETATM   11  S   UNL     1      43.608 -16.560   6.296  1.00  0.00    -0.129 SA
HETATM   12  C   UNL     1      44.234 -19.022   3.145  1.00  0.00     0.001 A 
HETATM   13  C   UNL     1      43.214 -18.683   2.259  1.00  0.00     0.001 A 
HETATM   14  C   UNL     1      41.882 -16.147   6.711  1.00  0.00     0.082 C 
HETATM   15  C   UNL     1      40.883 -16.145   5.556  1.00  0.00     0.048 C 
ENDBRANCH   3   6
ENDBRANCH   2   3
BRANCH   2  16
HETATM   16  C   UNL     1      40.355 -13.741   2.454  1.00  0.00     0.135 C 
BRANCH  16  17
HETATM   17  C   UNL     1      40.060 -12.721   1.375  1.00  0.00     0.224 C 
HETATM   18  N   UNL     1      41.008 -12.704   0.377  1.00  0.00    -0.327 N 
HETATM   19  H   UNL     1      41.870 -13.214   0.534  1.00  0.00     0.169 HD
HETATM   20  O   UNL     1      39.081 -11.989   1.489  1.00  0.00    -0.273 OA
BRANCH  18  21
HETATM   21  C   UNL     1      40.982 -11.927  -0.802  1.00  0.00     0.037 A 
HETATM   22  C   UNL     1      41.376 -10.586  -0.856  1.00  0.00     0.066 A 
HETATM   23  C   UNL     1      41.282  -9.874  -2.057  1.00  0.00     0.070 A 
HETATM   24  C   UNL     1      40.846 -10.517  -3.215  1.00  0.00     0.037 A 
HETATM   25  C   UNL     1      40.448 -11.850  -3.170  1.00  0.00     0.005 A 
HETATM   26  C   UNL     1      40.502 -12.548  -1.962  1.00  0.00     0.029 A 
BRANCH  23  27
HETATM   27  O   UNL     1      41.619  -8.557  -2.214  1.00  0.00    -0.356 OA
HETATM   28  C   UNL     1      42.501  -8.030  -1.228  1.00  0.00     0.210 C 
ENDBRANCH  23  27
ENDBRANCH  18  21
ENDBRANCH  16  17
ENDBRANCH   2  16
TORSDOF 6
ENDMDL
MODEL 10
REMARK VINA RESULT:      -6.6     15.350     17.431
REMARK  6 active torsions:
REMARK  status: ('A' for Active; 'I' for Inactive)
REMARK    1  A    between atoms: C_2  and  N_3 
REMARK    2  A    between atoms: C_2  and  C_16 
REMARK    3  A    between atoms: N_3  and  C_6 
REMARK    4  A    between atoms: C_16  and  C_17 
REMARK       I    between atoms: C_17  and  N_18 
REMARK    5  A    between atoms: N_18  and  C_19 
REMARK    6  A    between atoms: C_21  and  O_22 
ROOT
HETATM    1  C   UNL     1      43.775 -31.708  -0.546  1.00  0.00     0.040 C 
HETATM    2  C   UNL     1      44.210 -30.248  -0.497  1.00  0.00     0.191 C 
ENDROOT
BRANCH   2   3
HETATM    3  N   UNL     1      43.994 -29.589  -1.840  1.00  0.00    -0.063 N 
HETATM    4  H   UNL     1      43.792 -30.361  -2.513  1.00  0.00     0.278 HD
HETATM    5  H   UNL     1      43.102 -29.081  -1.786  1.00  0.00     0.278 HD
BRANCH   3   6
HETATM    6  C   UNL     1      45.031 -28.683  -2.452  1.00  0.00     0.221 C 
HETATM    7  C   UNL     1      46.448 -29.040  -2.092  1.00  0.00    -0.011 A 
HETATM    8  C   UNL     1      47.042 -30.188  -2.639  1.00  0.00     0.009 A 
HETATM    9  C   UNL     1      47.195 -28.229  -1.219  1.00  0.00     0.011 A 
HETATM   10  C   UNL     1      48.338 -30.547  -2.262  1.00  0.00     0.019 A 
HETATM   11  S   UNL     1      46.157 -31.241  -3.769  1.00  0.00    -0.129 SA
HETATM   12  C   UNL     1      49.063 -29.749  -1.377  1.00  0.00     0.001 A 
HETATM   13  C   UNL     1      48.495 -28.587  -0.863  1.00  0.00     0.001 A 
HETATM   14  C   UNL     1      45.100 -30.047  -4.653  1.00  0.00     0.082 C 
HETATM   15  C   UNL     1      44.886 -28.694  -3.978  1.00  0.00     0.048 C 
ENDBRANCH   3   6
ENDBRANCH   2   3
BRANCH   2  16
HETATM   16  C   UNL     1      43.568 -29.487   0.669  1.00  0.00     0.135 C 
BRANCH  16  17
HETATM   17  C   UNL     1      44.497 -29.438   1.862  1.00  0.00     0.224 C 
HETATM   18  N   UNL     1      45.784 -29.821   1.559  1.00  0.00    -0.327 N 
HETATM   19  H   UNL     1      45.948 -30.257   0.658  1.00  0.00     0.169 HD
HETATM   20  O   UNL     1      44.050 -29.128   2.963  1.00  0.00    -0.273 OA
BRANCH  18  21
HETATM   21  C   UNL     1      46.898 -29.809   2.427  1.00  0.00     0.037 A 
HETATM   22  C   UNL     1      47.296 -30.909   3.193  1.00  0.00     0.066 A 
HETATM   23  C   UNL     1      48.389 -30.804   4.060  1.00  0.00     0.070 A 
HETATM   24  C   UNL     1      49.117 -29.616   4.122  1.00  0.00     0.037 A 
HETATM   25  C   UNL     1      48.725 -28.514   3.366  1.00  0.00     0.005 A 
HETATM   26  C   UNL     1      47.610 -28.607   2.533  1.00  0.00     0.029 A 
BRANCH  23  27
HETATM   27  O   UNL     1      48.847 -31.810   4.868  1.00  0.00    -0.356 OA
HETATM   28  C   UNL     1      47.857 -32.727   5.321  1.00  0.00     0.210 C 
ENDBRANCH  23  27
ENDBRANCH  18  21
ENDBRANCH  16  17
ENDBRANCH   2  16
TORSDOF 6
ENDMDL
