MODEL 1
REMARK VINA RESULT:      -8.3      0.000      0.000
REMARK  5 active torsions:
REMARK  status: ('A' for Active; 'I' for Inactive)
REMARK    1  A    between atoms: O_2  and  C_3 
REMARK    2  A    between atoms: C_4  and  C_5 
REMARK       I    between atoms: C_5  and  N_6 
REMARK    3  A    between atoms: N_6  and  C_7 
REMARK    4  A    between atoms: C_7  and  C_8 
REMARK       I    between atoms: C_8  and  N_9 
REMARK    5  A    between atoms: N_9  and  N_10 
ROOT
HETATM    1  C   UNL     1      42.531 -12.542   4.641  1.00  0.00     0.255 C 
HETATM    2  N   UNL     1      43.417 -13.026   5.590  1.00  0.00    -0.245 N 
HETATM    3  O   UNL     1      41.683 -11.673   4.859  1.00  0.00    -0.270 OA
HETATM    4  H   UNL     1      44.191 -13.633   5.302  1.00  0.00     0.192 HD
ENDROOT
BRANCH   1   5
HETATM    5  C   UNL     1      42.777 -13.038   3.215  1.00  0.00     0.227 C 
BRANCH   5   6
HETATM    6  N   UNL     1      43.213 -14.419   3.071  1.00  0.00    -0.348 N 
HETATM    7  C   UNL     1      42.306 -15.458   3.114  1.00  0.00     0.254 C 
HETATM    8  O   UNL     1      41.098 -15.271   3.031  1.00  0.00    -0.268 OA
HETATM    9  H   UNL     1      44.182 -14.617   3.281  1.00  0.00     0.163 HD
BRANCH   7  10
HETATM   10  C   UNL     1      42.893 -16.817   3.252  1.00  0.00     0.065 A 
HETATM   11  C   UNL     1      43.639 -17.167   4.384  1.00  0.00     0.084 A 
HETATM   12  C   UNL     1      44.221 -18.436   4.477  1.00  0.00     0.038 A 
HETATM   13  C   UNL     1      44.026 -19.371   3.459  1.00  0.00     0.003 A 
HETATM   14  C   UNL     1      43.259 -19.039   2.343  1.00  0.00     0.001 A 
HETATM   15  C   UNL     1      42.691 -17.767   2.238  1.00  0.00     0.020 A 
BRANCH  11  16
HETATM   16  O   UNL     1      43.907 -16.244   5.360  1.00  0.00    -0.355 OA
HETATM   17  C   UNL     1      43.213 -16.574   6.565  1.00  0.00     0.210 C 
ENDBRANCH  11  16
ENDBRANCH   7  10
ENDBRANCH   5   6
ENDBRANCH   1   5
BRANCH   2  18
HETATM   18  N   UNL     1      43.405 -12.482   6.844  1.00  0.00    -0.166 NA
HETATM   19  C   UNL     1      44.344 -11.648   7.149  1.00  0.00     0.157 A 
HETATM   20  C   UNL     1      45.559 -11.202   6.329  1.00  0.00     0.277 A 
HETATM   21  C   UNL     1      44.423 -10.915   8.408  1.00  0.00     0.028 A 
HETATM   22  O   UNL     1      45.883 -11.640   5.249  1.00  0.00    -0.266 OA
HETATM   23  N   UNL     1      46.194 -10.250   7.102  1.00  0.00    -0.321 N 
HETATM   24  C   UNL     1      45.538 -10.084   8.318  1.00  0.00     0.048 A 
HETATM   25  H   UNL     1      47.035  -9.776   6.809  1.00  0.00     0.169 HD
HETATM   26  C   UNL     1      45.883  -9.236   9.350  1.00  0.00     0.032 A 
HETATM   27  C   UNL     1      45.070  -9.246  10.490  1.00  0.00     0.021 A 
HETATM   28  C   UNL     1      43.944 -10.095  10.568  1.00  0.00     0.012 A 
HETATM   29 BR   UNL     1      42.879 -10.075  12.131  1.00  0.00    -0.051 Br
HETATM   30  C   UNL     1      43.603 -10.946   9.517  1.00  0.00     0.035 A 
ENDBRANCH   2  18
TORSDOF 5
ENDMDL
MODEL 2
REMARK VINA RESULT:      -8.3      3.391      8.520
REMARK  5 active torsions:
REMARK  status: ('A' for Active; 'I' for Inactive)
REMARK    1  A    between atoms: O_2  and  C_3 
REMARK    2  A    between atoms: C_4  and  C_5 
REMARK       I    between atoms: C_5  and  N_6 
REMARK    3  A    between atoms: N_6  and  C_7 
REMARK    4  A    between atoms: C_7  and  C_8 
REMARK       I    between atoms: C_8  and  N_9 
REMARK    5  A    between atoms: N_9  and  N_10 
ROOT
HETATM    1  C   UNL     1      42.628 -12.920   5.167  1.00  0.00     0.255 C 
HETATM    2  N   UNL     1      42.009 -14.123   5.465  1.00  0.00    -0.245 N 
HETATM    3  O   UNL     1      43.584 -12.801   4.398  1.00  0.00    -0.270 OA
HETATM    4  H   UNL     1      41.128 -14.126   5.991  1.00  0.00     0.192 HD
ENDROOT
BRANCH   1   5
HETATM    5  C   UNL     1      41.934 -11.678   5.732  1.00  0.00     0.227 C 
BRANCH   5   6
HETATM    6  N   UNL     1      42.311 -11.278   7.080  1.00  0.00    -0.348 N 
HETATM    7  C   UNL     1      42.503  -9.949   7.399  1.00  0.00     0.254 C 
HETATM    8  O   UNL     1      42.141  -9.043   6.658  1.00  0.00    -0.268 OA
HETATM    9  H   UNL     1      42.750 -11.980   7.660  1.00  0.00     0.163 HD
BRANCH   7  10
HETATM   10  C   UNL     1      43.163  -9.692   8.706  1.00  0.00     0.065 A 
HETATM   11  C   UNL     1      44.357 -10.338   9.047  1.00  0.00     0.084 A 
HETATM   12  C   UNL     1      44.942 -10.117  10.299  1.00  0.00     0.038 A 
HETATM   13  C   UNL     1      44.357  -9.223  11.197  1.00  0.00     0.003 A 
HETATM   14  C   UNL     1      43.183  -8.554  10.851  1.00  0.00     0.001 A 
HETATM   15  C   UNL     1      42.586  -8.784   9.609  1.00  0.00     0.020 A 
BRANCH  11  16
HETATM   16  O   UNL     1      44.911 -11.275   8.216  1.00  0.00    -0.355 OA
HETATM   17  C   UNL     1      46.074 -10.750   7.574  1.00  0.00     0.210 C 
ENDBRANCH  11  16
ENDBRANCH   7  10
ENDBRANCH   5   6
ENDBRANCH   1   5
BRANCH   2  18
HETATM   18  N   UNL     1      42.434 -15.259   4.837  1.00  0.00    -0.166 NA
HETATM   19  C   UNL     1      42.809 -16.252   5.573  1.00  0.00     0.157 A 
HETATM   20  C   UNL     1      42.928 -16.348   7.098  1.00  0.00     0.277 A 
HETATM   21  C   UNL     1      43.203 -17.560   5.061  1.00  0.00     0.028 A 
HETATM   22  O   UNL     1      42.752 -15.441   7.879  1.00  0.00    -0.266 OA
HETATM   23  N   UNL     1      43.306 -17.651   7.355  1.00  0.00    -0.321 N 
HETATM   24  C   UNL     1      43.474 -18.360   6.170  1.00  0.00     0.048 A 
HETATM   25  H   UNL     1      43.460 -18.004   8.288  1.00  0.00     0.169 HD
HETATM   26  C   UNL     1      43.858 -19.676   6.026  1.00  0.00     0.032 A 
HETATM   27  C   UNL     1      43.967 -20.175   4.721  1.00  0.00     0.021 A 
HETATM   28  C   UNL     1      43.691 -19.353   3.607  1.00  0.00     0.012 A 
HETATM   29 BR   UNL     1      43.857 -20.073   1.865  1.00  0.00    -0.051 Br
HETATM   30  C   UNL     1      43.301 -18.024   3.765  1.00  0.00     0.035 A 
ENDBRANCH   2  18
TORSDOF 5
ENDMDL
MODEL 3
REMARK VINA RESULT:      -8.1      5.032      8.092
REMARK  5 active torsions:
REMARK  status: ('A' for Active; 'I' for Inactive)
REMARK    1  A    between atoms: O_2  and  C_3 
REMARK    2  A    between atoms: C_4  and  C_5 
REMARK       I    between atoms: C_5  and  N_6 
REMARK    3  A    between atoms: N_6  and  C_7 
REMARK    4  A    between atoms: C_7  and  C_8 
REMARK       I    between atoms: C_8  and  N_9 
REMARK    5  A    between atoms: N_9  and  N_10 
ROOT
HETATM    1  C   UNL     1      42.092 -12.294   2.517  1.00  0.00     0.255 C 
HETATM    2  N   UNL     1      40.895 -12.824   2.064  1.00  0.00    -0.245 N 
HETATM    3  O   UNL     1      42.541 -11.196   2.177  1.00  0.00    -0.270 OA
HETATM    4  H   UNL     1      40.513 -13.668   2.504  1.00  0.00     0.192 HD
ENDROOT
BRANCH   1   5
HETATM    5  C   UNL     1      42.775 -13.094   3.629  1.00  0.00     0.227 C 
BRANCH   5   6
HETATM    6  N   UNL     1      43.152 -14.463   3.309  1.00  0.00    -0.348 N 
HETATM    7  C   UNL     1      42.298 -15.514   3.573  1.00  0.00     0.254 C 
HETATM    8  O   UNL     1      41.118 -15.340   3.852  1.00  0.00    -0.268 OA
HETATM    9  H   UNL     1      44.140 -14.656   3.220  1.00  0.00     0.163 HD
BRANCH   7  10
HETATM   10  C   UNL     1      42.903 -16.870   3.479  1.00  0.00     0.065 A 
HETATM   11  C   UNL     1      43.770 -17.340   4.472  1.00  0.00     0.084 A 
HETATM   12  C   UNL     1      44.363 -18.601   4.346  1.00  0.00     0.038 A 
HETATM   13  C   UNL     1      44.061 -19.410   3.249  1.00  0.00     0.003 A 
HETATM   14  C   UNL     1      43.174 -18.959   2.273  1.00  0.00     0.001 A 
HETATM   15  C   UNL     1      42.593 -17.694   2.385  1.00  0.00     0.020 A 
BRANCH  11  16
HETATM   16  O   UNL     1      44.140 -16.538   5.518  1.00  0.00    -0.355 OA
HETATM   17  C   UNL     1      43.745 -17.121   6.761  1.00  0.00     0.210 C 
ENDBRANCH  11  16
ENDBRANCH   7  10
ENDBRANCH   5   6
ENDBRANCH   1   5
BRANCH   2  18
HETATM   18  N   UNL     1      40.116 -12.078   1.226  1.00  0.00    -0.166 NA
HETATM   19  C   UNL     1      39.561 -12.676   0.224  1.00  0.00     0.157 A 
HETATM   20  C   UNL     1      39.692 -14.131  -0.240  1.00  0.00     0.277 A 
HETATM   21  C   UNL     1      38.632 -12.044  -0.707  1.00  0.00     0.028 A 
HETATM   22  O   UNL     1      40.430 -14.962   0.238  1.00  0.00    -0.266 OA
HETATM   23  N   UNL     1      38.834 -14.252  -1.315  1.00  0.00    -0.321 N 
HETATM   24  C   UNL     1      38.219 -13.036  -1.595  1.00  0.00     0.048 A 
HETATM   25  H   UNL     1      38.713 -15.113  -1.827  1.00  0.00     0.169 HD
HETATM   26  C   UNL     1      37.314 -12.764  -2.599  1.00  0.00     0.032 A 
HETATM   27  C   UNL     1      36.830 -11.453  -2.691  1.00  0.00     0.021 A 
HETATM   28  C   UNL     1      37.260 -10.458  -1.786  1.00  0.00     0.012 A 
HETATM   29 BR   UNL     1      36.580  -8.700  -1.955  1.00  0.00    -0.051 Br
HETATM   30  C   UNL     1      38.173 -10.745  -0.773  1.00  0.00     0.035 A 
ENDBRANCH   2  18
TORSDOF 5
ENDMDL
MODEL 4
REMARK VINA RESULT:      -7.9      4.160      5.971
REMARK  5 active torsions:
REMARK  status: ('A' for Active; 'I' for Inactive)
REMARK    1  A    between atoms: O_2  and  C_3 
REMARK    2  A    between atoms: C_4  and  C_5 
REMARK       I    between atoms: C_5  and  N_6 
REMARK    3  A    between atoms: N_6  and  C_7 
REMARK    4  A    between atoms: C_7  and  C_8 
REMARK       I    between atoms: C_8  and  N_9 
REMARK    5  A    between atoms: N_9  and  N_10 
ROOT
HETATM    1  C   UNL     1      42.344 -14.668   6.712  1.00  0.00     0.255 C 
HETATM    2  N   UNL     1      41.113 -14.614   6.079  1.00  0.00    -0.245 N 
HETATM    3  O   UNL     1      43.081 -13.695   6.885  1.00  0.00    -0.270 OA
HETATM    4  H   UNL     1      40.489 -15.429   6.106  1.00  0.00     0.192 HD
ENDROOT
BRANCH   1   5
HETATM    5  C   UNL     1      42.682 -16.015   7.355  1.00  0.00     0.227 C 
BRANCH   5   6
HETATM    6  N   UNL     1      42.796 -17.156   6.459  1.00  0.00    -0.348 N 
HETATM    7  C   UNL     1      43.947 -17.373   5.729  1.00  0.00     0.254 C 
HETATM    8  O   UNL     1      44.992 -16.781   5.971  1.00  0.00    -0.268 OA
HETATM    9  H   UNL     1      41.933 -17.568   6.131  1.00  0.00     0.163 HD
BRANCH   7  10
HETATM   10  C   UNL     1      43.837 -18.384   4.645  1.00  0.00     0.065 A 
HETATM   11  C   UNL     1      43.459 -18.011   3.350  1.00  0.00     0.084 A 
HETATM   12  C   UNL     1      43.320 -18.981   2.352  1.00  0.00     0.038 A 
HETATM   13  C   UNL     1      43.595 -20.320   2.634  1.00  0.00     0.003 A 
HETATM   14  C   UNL     1      44.001 -20.694   3.914  1.00  0.00     0.001 A 
HETATM   15  C   UNL     1      44.125 -19.731   4.918  1.00  0.00     0.020 A 
BRANCH  11  16
HETATM   16  O   UNL     1      43.112 -16.716   3.065  1.00  0.00    -0.355 OA
HETATM   17  C   UNL     1      43.361 -16.421   1.690  1.00  0.00     0.210 C 
ENDBRANCH  11  16
ENDBRANCH   7  10
ENDBRANCH   5   6
ENDBRANCH   1   5
BRANCH   2  18
HETATM   18  N   UNL     1      40.638 -13.404   5.658  1.00  0.00    -0.166 NA
HETATM   19  C   UNL     1      40.085 -13.345   4.492  1.00  0.00     0.157 A 
HETATM   20  C   UNL     1      39.927 -14.437   3.428  1.00  0.00     0.277 A 
HETATM   21  C   UNL     1      39.450 -12.154   3.936  1.00  0.00     0.028 A 
HETATM   22  O   UNL     1      40.386 -15.555   3.489  1.00  0.00    -0.266 OA
HETATM   23  N   UNL     1      39.202 -13.854   2.408  1.00  0.00    -0.321 N 
HETATM   24  C   UNL     1      38.927 -12.521   2.697  1.00  0.00     0.048 A 
HETATM   25  H   UNL     1      38.946 -14.346   1.566  1.00  0.00     0.169 HD
HETATM   26  C   UNL     1      38.240 -11.617   1.915  1.00  0.00     0.032 A 
HETATM   27  C   UNL     1      38.092 -10.316   2.415  1.00  0.00     0.021 A 
HETATM   28  C   UNL     1      38.629  -9.959   3.671  1.00  0.00     0.012 A 
HETATM   29 BR   UNL     1      38.406  -8.189   4.300  1.00  0.00    -0.051 Br
HETATM   30  C   UNL     1      39.320 -10.882   4.454  1.00  0.00     0.035 A 
ENDBRANCH   2  18
TORSDOF 5
ENDMDL
MODEL 5
REMARK VINA RESULT:      -7.9      3.398      9.109
REMARK  5 active torsions:
REMARK  status: ('A' for Active; 'I' for Inactive)
REMARK    1  A    between atoms: O_2  and  C_3 
REMARK    2  A    between atoms: C_4  and  C_5 
REMARK       I    between atoms: C_5  and  N_6 
REMARK    3  A    between atoms: N_6  and  C_7 
REMARK    4  A    between atoms: C_7  and  C_8 
REMARK       I    between atoms: C_8  and  N_9 
REMARK    5  A    between atoms: N_9  and  N_10 
ROOT
HETATM    1  C   UNL     1      43.453 -11.414   7.251  1.00  0.00     0.255 C 
HETATM    2  N   UNL     1      42.535 -12.070   6.447  1.00  0.00    -0.245 N 
HETATM    3  O   UNL     1      44.412 -11.961   7.801  1.00  0.00    -0.270 OA
HETATM    4  H   UNL     1      41.856 -11.528   5.902  1.00  0.00     0.192 HD
ENDROOT
BRANCH   1   5
HETATM    5  C   UNL     1      43.309  -9.891   7.288  1.00  0.00     0.227 C 
BRANCH   5   6
HETATM    6  N   UNL     1      42.903  -9.306   8.557  1.00  0.00    -0.348 N 
HETATM    7  C   UNL     1      43.513  -8.167   9.041  1.00  0.00     0.254 C 
HETATM    8  O   UNL     1      44.234  -7.467   8.341  1.00  0.00    -0.268 OA
HETATM    9  H   UNL     1      42.433  -9.916   9.212  1.00  0.00     0.163 HD
BRANCH   7  10
HETATM   10  C   UNL     1      43.223  -7.839  10.462  1.00  0.00     0.065 A 
HETATM   11  C   UNL     1      43.663  -8.673  11.497  1.00  0.00     0.084 A 
HETATM   12  C   UNL     1      43.344  -8.372  12.825  1.00  0.00     0.038 A 
HETATM   13  C   UNL     1      42.620  -7.217  13.127  1.00  0.00     0.003 A 
HETATM   14  C   UNL     1      42.205  -6.366  12.103  1.00  0.00     0.001 A 
HETATM   15  C   UNL     1      42.506  -6.672  10.773  1.00  0.00     0.020 A 
BRANCH  11  16
HETATM   16  O   UNL     1      44.309  -9.849  11.223  1.00  0.00    -0.355 OA
HETATM   17  C   UNL     1      43.591 -10.955  11.771  1.00  0.00     0.210 C 
ENDBRANCH  11  16
ENDBRANCH   7  10
ENDBRANCH   5   6
ENDBRANCH   1   5
BRANCH   2  18
HETATM   18  N   UNL     1      42.713 -13.400   6.189  1.00  0.00    -0.166 NA
HETATM   19  C   UNL     1      42.727 -13.779   4.954  1.00  0.00     0.157 A 
HETATM   20  C   UNL     1      42.498 -12.961   3.678  1.00  0.00     0.277 A 
HETATM   21  C   UNL     1      42.995 -15.143   4.509  1.00  0.00     0.028 A 
HETATM   22  O   UNL     1      42.179 -11.795   3.634  1.00  0.00    -0.266 OA
HETATM   23  N   UNL     1      42.695 -13.845   2.635  1.00  0.00    -0.321 N 
HETATM   24  C   UNL     1      42.978 -15.119   3.115  1.00  0.00     0.048 A 
HETATM   25  H   UNL     1      42.609 -13.578   1.666  1.00  0.00     0.169 HD
HETATM   26  C   UNL     1      43.218 -16.260   2.379  1.00  0.00     0.032 A 
HETATM   27  C   UNL     1      43.477 -17.441   3.087  1.00  0.00     0.021 A 
HETATM   28  C   UNL     1      43.488 -17.450   4.499  1.00  0.00     0.012 A 
HETATM   29 BR   UNL     1      43.838 -19.071   5.409  1.00  0.00    -0.051 Br
HETATM   30  C   UNL     1      43.247 -16.289   5.234  1.00  0.00     0.035 A 
ENDBRANCH   2  18
TORSDOF 5
ENDMDL
MODEL 6
REMARK VINA RESULT:      -7.8      3.039      8.457
REMARK  5 active torsions:
REMARK  status: ('A' for Active; 'I' for Inactive)
REMARK    1  A    between atoms: O_2  and  C_3 
REMARK    2  A    between atoms: C_4  and  C_5 
REMARK       I    between atoms: C_5  and  N_6 
REMARK    3  A    between atoms: N_6  and  C_7 
REMARK    4  A    between atoms: C_7  and  C_8 
REMARK       I    between atoms: C_8  and  N_9 
REMARK    5  A    between atoms: N_9  and  N_10 
ROOT
HETATM    1  C   UNL     1      41.321 -12.646   5.804  1.00  0.00     0.255 C 
HETATM    2  N   UNL     1      42.563 -13.101   5.392  1.00  0.00    -0.245 N 
HETATM    3  O   UNL     1      40.364 -13.378   6.070  1.00  0.00    -0.270 OA
HETATM    4  H   UNL     1      43.352 -12.449   5.337  1.00  0.00     0.192 HD
ENDROOT
BRANCH   1   5
HETATM    5  C   UNL     1      41.242 -11.143   6.081  1.00  0.00     0.227 C 
BRANCH   5   6
HETATM    6  N   UNL     1      41.632 -10.705   7.413  1.00  0.00    -0.348 N 
HETATM    7  C   UNL     1      42.289  -9.507   7.603  1.00  0.00     0.254 C 
HETATM    8  O   UNL     1      42.361  -8.657   6.723  1.00  0.00    -0.268 OA
HETATM    9  H   UNL     1      41.721 -11.420   8.122  1.00  0.00     0.163 HD
BRANCH   7  10
HETATM   10  C   UNL     1      42.888  -9.310   8.950  1.00  0.00     0.065 A 
HETATM   11  C   UNL     1      43.910 -10.148   9.411  1.00  0.00     0.084 A 
HETATM   12  C   UNL     1      44.432  -9.975  10.698  1.00  0.00     0.038 A 
HETATM   13  C   UNL     1      43.963  -8.943  11.510  1.00  0.00     0.003 A 
HETATM   14  C   UNL     1      42.967  -8.085  11.045  1.00  0.00     0.001 A 
HETATM   15  C   UNL     1      42.430  -8.265   9.768  1.00  0.00     0.020 A 
BRANCH  11  16
HETATM   16  O   UNL     1      44.335 -11.214   8.663  1.00  0.00    -0.355 OA
HETATM   17  C   UNL     1      45.499 -10.866   7.911  1.00  0.00     0.210 C 
ENDBRANCH  11  16
ENDBRANCH   7  10
ENDBRANCH   5   6
ENDBRANCH   1   5
BRANCH   2  18
HETATM   18  N   UNL     1      42.783 -14.448   5.321  1.00  0.00    -0.166 NA
HETATM   19  C   UNL     1      42.864 -14.985   4.149  1.00  0.00     0.157 A 
HETATM   20  C   UNL     1      42.676 -14.350   2.767  1.00  0.00     0.277 A 
HETATM   21  C   UNL     1      43.184 -16.388   3.901  1.00  0.00     0.028 A 
HETATM   22  O   UNL     1      42.333 -13.210   2.554  1.00  0.00    -0.266 OA
HETATM   23  N   UNL     1      42.941 -15.357   1.861  1.00  0.00    -0.321 N 
HETATM   24  C   UNL     1      43.231 -16.549   2.518  1.00  0.00     0.048 A 
HETATM   25  H   UNL     1      42.895 -15.223   0.862  1.00  0.00     0.169 HD
HETATM   26  C   UNL     1      43.532 -17.769   1.950  1.00  0.00     0.032 A 
HETATM   27  C   UNL     1      43.784 -18.838   2.820  1.00  0.00     0.021 A 
HETATM   28  C   UNL     1      43.730 -18.661   4.220  1.00  0.00     0.012 A 
HETATM   29 BR   UNL     1      44.074 -20.137   5.351  1.00  0.00    -0.051 Br
HETATM   30  C   UNL     1      43.428 -17.421   4.782  1.00  0.00     0.035 A 
ENDBRANCH   2  18
TORSDOF 5
ENDMDL
MODEL 7
REMARK VINA RESULT:      -7.7      3.445      7.954
REMARK  5 active torsions:
REMARK  status: ('A' for Active; 'I' for Inactive)
REMARK    1  A    between atoms: O_2  and  C_3 
REMARK    2  A    between atoms: C_4  and  C_5 
REMARK       I    between atoms: C_5  and  N_6 
REMARK    3  A    between atoms: N_6  and  C_7 
REMARK    4  A    between atoms: C_7  and  C_8 
REMARK       I    between atoms: C_8  and  N_9 
REMARK    5  A    between atoms: N_9  and  N_10 
ROOT
HETATM    1  C   UNL     1      40.308 -12.090   5.803  1.00  0.00     0.255 C 
HETATM    2  N   UNL     1      41.467 -12.183   5.049  1.00  0.00    -0.245 N 
HETATM    3  O   UNL     1      39.534 -13.028   6.009  1.00  0.00    -0.270 OA
HETATM    4  H   UNL     1      42.137 -11.407   5.047  1.00  0.00     0.192 HD
ENDROOT
BRANCH   1   5
HETATM    5  C   UNL     1      40.116 -10.758   6.532  1.00  0.00     0.227 C 
BRANCH   5   6
HETATM    6  N   UNL     1      41.042 -10.468   7.616  1.00  0.00    -0.348 N 
HETATM    7  C   UNL     1      42.017  -9.502   7.478  1.00  0.00     0.254 C 
HETATM    8  O   UNL     1      42.003  -8.689   6.561  1.00  0.00    -0.268 OA
HETATM    9  H   UNL     1      41.178 -11.194   8.307  1.00  0.00     0.163 HD
BRANCH   7  10
HETATM   10  C   UNL     1      43.074  -9.502   8.524  1.00  0.00     0.065 A 
HETATM   11  C   UNL     1      42.739  -9.523   9.884  1.00  0.00     0.084 A 
HETATM   12  C   UNL     1      43.745  -9.480  10.855  1.00  0.00     0.038 A 
HETATM   13  C   UNL     1      45.086  -9.456  10.473  1.00  0.00     0.003 A 
HETATM   14  C   UNL     1      45.427  -9.466   9.120  1.00  0.00     0.001 A 
HETATM   15  C   UNL     1      44.426  -9.491   8.147  1.00  0.00     0.020 A 
BRANCH  11  16
HETATM   16  O   UNL     1      41.430  -9.471  10.285  1.00  0.00    -0.355 OA
HETATM   17  C   UNL     1      41.332  -9.655  11.698  1.00  0.00     0.210 C 
ENDBRANCH  11  16
ENDBRANCH   7  10
ENDBRANCH   5   6
ENDBRANCH   1   5
BRANCH   2  18
HETATM   18  N   UNL     1      41.825 -13.397   4.534  1.00  0.00    -0.166 NA
HETATM   19  C   UNL     1      42.672 -14.109   5.200  1.00  0.00     0.157 A 
HETATM   20  C   UNL     1      43.429 -13.775   6.490  1.00  0.00     0.277 A 
HETATM   21  C   UNL     1      43.087 -15.459   4.834  1.00  0.00     0.028 A 
HETATM   22  O   UNL     1      43.404 -12.713   7.070  1.00  0.00    -0.266 OA
HETATM   23  N   UNL     1      44.147 -14.913   6.799  1.00  0.00    -0.321 N 
HETATM   24  C   UNL     1      43.956 -15.895   5.833  1.00  0.00     0.048 A 
HETATM   25  H   UNL     1      44.745 -14.982   7.609  1.00  0.00     0.169 HD
HETATM   26  C   UNL     1      44.517 -17.154   5.793  1.00  0.00     0.032 A 
HETATM   27  C   UNL     1      44.180 -17.975   4.709  1.00  0.00     0.021 A 
HETATM   28  C   UNL     1      43.300 -17.519   3.703  1.00  0.00     0.012 A 
HETATM   29 BR   UNL     1      42.879 -18.663   2.256  1.00  0.00    -0.051 Br
HETATM   30  C   UNL     1      42.736 -16.244   3.755  1.00  0.00     0.035 A 
ENDBRANCH   2  18
TORSDOF 5
ENDMDL
MODEL 8
REMARK VINA RESULT:      -7.4      3.031      3.874
REMARK  5 active torsions:
REMARK  status: ('A' for Active; 'I' for Inactive)
REMARK    1  A    between atoms: O_2  and  C_3 
REMARK    2  A    between atoms: C_4  and  C_5 
REMARK       I    between atoms: C_5  and  N_6 
REMARK    3  A    between atoms: N_6  and  C_7 
REMARK    4  A    between atoms: C_7  and  C_8 
REMARK       I    between atoms: C_8  and  N_9 
REMARK    5  A    between atoms: N_9  and  N_10 
ROOT
HETATM    1  C   UNL     1      40.521 -13.993   2.098  1.00  0.00     0.255 C 
HETATM    2  N   UNL     1      39.712 -13.570   3.140  1.00  0.00    -0.245 N 
HETATM    3  O   UNL     1      41.393 -13.300   1.568  1.00  0.00    -0.270 OA
HETATM    4  H   UNL     1      39.117 -14.247   3.630  1.00  0.00     0.192 HD
ENDROOT
BRANCH   1   5
HETATM    5  C   UNL     1      40.387 -15.474   1.734  1.00  0.00     0.227 C 
BRANCH   5   6
HETATM    6  N   UNL     1      41.172 -16.412   2.521  1.00  0.00    -0.348 N 
HETATM    7  C   UNL     1      42.460 -16.744   2.154  1.00  0.00     0.254 C 
HETATM    8  O   UNL     1      43.083 -16.104   1.316  1.00  0.00    -0.268 OA
HETATM    9  H   UNL     1      40.660 -17.053   3.113  1.00  0.00     0.163 HD
BRANCH   7  10
HETATM   10  C   UNL     1      43.045 -17.917   2.856  1.00  0.00     0.065 A 
HETATM   11  C   UNL     1      43.508 -17.809   4.173  1.00  0.00     0.084 A 
HETATM   12  C   UNL     1      44.095 -18.911   4.803  1.00  0.00     0.038 A 
HETATM   13  C   UNL     1      44.186 -20.133   4.135  1.00  0.00     0.003 A 
HETATM   14  C   UNL     1      43.698 -20.255   2.834  1.00  0.00     0.001 A 
HETATM   15  C   UNL     1      43.127 -19.152   2.194  1.00  0.00     0.020 A 
BRANCH  11  16
HETATM   16  O   UNL     1      43.499 -16.604   4.823  1.00  0.00    -0.355 OA
HETATM   17  C   UNL     1      44.452 -16.602   5.887  1.00  0.00     0.210 C 
ENDBRANCH  11  16
ENDBRANCH   7  10
ENDBRANCH   5   6
ENDBRANCH   1   5
BRANCH   2  18
HETATM   18  N   UNL     1      39.911 -12.326   3.669  1.00  0.00    -0.166 NA
HETATM   19  C   UNL     1      40.671 -12.227   4.709  1.00  0.00     0.157 A 
HETATM   20  C   UNL     1      41.360 -13.326   5.525  1.00  0.00     0.277 A 
HETATM   21  C   UNL     1      41.055 -10.966   5.336  1.00  0.00     0.028 A 
HETATM   22  O   UNL     1      41.230 -14.517   5.358  1.00  0.00    -0.266 OA
HETATM   23  N   UNL     1      42.101 -12.662   6.482  1.00  0.00    -0.321 N 
HETATM   24  C   UNL     1      41.921 -11.287   6.380  1.00  0.00     0.048 A 
HETATM   25  H   UNL     1      42.666 -13.140   7.168  1.00  0.00     0.169 HD
HETATM   26  C   UNL     1      42.484 -10.305   7.168  1.00  0.00     0.032 A 
HETATM   27  C   UNL     1      42.148  -8.976   6.879  1.00  0.00     0.021 A 
HETATM   28  C   UNL     1      41.267  -8.667   5.820  1.00  0.00     0.012 A 
HETATM   29 BR   UNL     1      40.841  -6.857   5.472  1.00  0.00    -0.051 Br
HETATM   30  C   UNL     1      40.705  -9.668   5.027  1.00  0.00     0.035 A 
ENDBRANCH   2  18
TORSDOF 5
ENDMDL
MODEL 9
REMARK VINA RESULT:      -7.3      4.708      7.881
REMARK  5 active torsions:
REMARK  status: ('A' for Active; 'I' for Inactive)
REMARK    1  A    between atoms: O_2  and  C_3 
REMARK    2  A    between atoms: C_4  and  C_5 
REMARK       I    between atoms: C_5  and  N_6 
REMARK    3  A    between atoms: N_6  and  C_7 
REMARK    4  A    between atoms: C_7  and  C_8 
REMARK       I    between atoms: C_8  and  N_9 
REMARK    5  A    between atoms: N_9  and  N_10 
ROOT
HETATM    1  C   UNL     1      41.726 -11.608   3.726  1.00  0.00     0.255 C 
HETATM    2  N   UNL     1      41.928 -12.381   2.594  1.00  0.00    -0.245 N 
HETATM    3  O   UNL     1      41.433 -10.410   3.708  1.00  0.00    -0.270 OA
HETATM    4  H   UNL     1      42.018 -13.399   2.682  1.00  0.00     0.192 HD
ENDROOT
BRANCH   1   5
HETATM    5  C   UNL     1      41.723 -12.382   5.046  1.00  0.00     0.227 C 
BRANCH   5   6
HETATM    6  N   UNL     1      41.949 -13.817   4.961  1.00  0.00    -0.348 N 
HETATM    7  C   UNL     1      43.076 -14.393   5.509  1.00  0.00     0.254 C 
HETATM    8  O   UNL     1      43.803 -13.787   6.287  1.00  0.00    -0.268 OA
HETATM    9  H   UNL     1      41.465 -14.313   4.224  1.00  0.00     0.163 HD
BRANCH   7  10
HETATM   10  C   UNL     1      43.339 -15.800   5.106  1.00  0.00     0.065 A 
HETATM   11  C   UNL     1      43.313 -16.179   3.759  1.00  0.00     0.084 A 
HETATM   12  C   UNL     1      43.519 -17.515   3.401  1.00  0.00     0.038 A 
HETATM   13  C   UNL     1      43.791 -18.469   4.384  1.00  0.00     0.003 A 
HETATM   14  C   UNL     1      43.848 -18.092   5.725  1.00  0.00     0.001 A 
HETATM   15  C   UNL     1      43.625 -16.762   6.089  1.00  0.00     0.020 A 
BRANCH  11  16
HETATM   16  O   UNL     1      42.976 -15.279   2.783  1.00  0.00    -0.355 OA
HETATM   17  C   UNL     1      43.352 -15.770   1.496  1.00  0.00     0.210 C 
ENDBRANCH  11  16
ENDBRANCH   7  10
ENDBRANCH   5   6
ENDBRANCH   1   5
BRANCH   2  18
HETATM   18  N   UNL     1      41.742 -11.814   1.365  1.00  0.00    -0.166 NA
HETATM   19  C   UNL     1      40.832 -12.319   0.599  1.00  0.00     0.157 A 
HETATM   20  C   UNL     1      39.937 -13.543   0.820  1.00  0.00     0.277 A 
HETATM   21  C   UNL     1      40.450 -11.776  -0.701  1.00  0.00     0.028 A 
HETATM   22  O   UNL     1      40.000 -14.304   1.758  1.00  0.00    -0.266 OA
HETATM   23  N   UNL     1      39.103 -13.591  -0.279  1.00  0.00    -0.321 N 
HETATM   24  C   UNL     1      39.403 -12.566  -1.172  1.00  0.00     0.048 A 
HETATM   25  H   UNL     1      38.399 -14.302  -0.404  1.00  0.00     0.169 HD
HETATM   26  C   UNL     1      38.796 -12.302  -2.382  1.00  0.00     0.032 A 
HETATM   27  C   UNL     1      39.277 -11.211  -3.117  1.00  0.00     0.021 A 
HETATM   28  C   UNL     1      40.340 -10.421  -2.629  1.00  0.00     0.012 A 
HETATM   29 BR   UNL     1      40.956  -8.961  -3.662  1.00  0.00    -0.051 Br
HETATM   30  C   UNL     1      40.944 -10.696  -1.402  1.00  0.00     0.035 A 
ENDBRANCH   2  18
TORSDOF 5
ENDMDL
MODEL 10
REMARK VINA RESULT:      -7.2      5.269      8.296
REMARK  5 active torsions:
REMARK  status: ('A' for Active; 'I' for Inactive)
REMARK    1  A    between atoms: O_2  and  C_3 
REMARK    2  A    between atoms: C_4  and  C_5 
REMARK       I    between atoms: C_5  and  N_6 
REMARK    3  A    between atoms: N_6  and  C_7 
REMARK    4  A    between atoms: C_7  and  C_8 
REMARK       I    between atoms: C_8  and  N_9 
REMARK    5  A    between atoms: N_9  and  N_10 
ROOT
HETATM    1  C   UNL     1      39.819 -14.157  -0.295  1.00  0.00     0.255 C 
HETATM    2  N   UNL     1      40.692 -13.446   0.514  1.00  0.00    -0.245 N 
HETATM    3  O   UNL     1      39.620 -15.371  -0.206  1.00  0.00    -0.270 OA
HETATM    4  H   UNL     1      40.693 -12.421   0.484  1.00  0.00     0.192 HD
ENDROOT
BRANCH   1   5
HETATM    5  C   UNL     1      38.961 -13.301  -1.229  1.00  0.00     0.227 C 
BRANCH   5   6
HETATM    6  N   UNL     1      39.451 -11.962  -1.521  1.00  0.00    -0.348 N 
HETATM    7  C   UNL     1      40.351 -11.742  -2.543  1.00  0.00     0.254 C 
HETATM    8  O   UNL     1      40.591 -12.591  -3.393  1.00  0.00    -0.268 OA
HETATM    9  H   UNL     1      39.394 -11.282  -0.775  1.00  0.00     0.163 HD
BRANCH   7  10
HETATM   10  C   UNL     1      40.994 -10.401  -2.554  1.00  0.00     0.065 A 
HETATM   11  C   UNL     1      41.648  -9.909  -1.418  1.00  0.00     0.084 A 
HETATM   12  C   UNL     1      42.210  -8.628  -1.432  1.00  0.00     0.038 A 
HETATM   13  C   UNL     1      42.156  -7.853  -2.590  1.00  0.00     0.003 A 
HETATM   14  C   UNL     1      41.534  -8.350  -3.735  1.00  0.00     0.001 A 
HETATM   15  C   UNL     1      40.955  -9.621  -3.720  1.00  0.00     0.020 A 
BRANCH  11  16
HETATM   16  O   UNL     1      41.649 -10.618  -0.246  1.00  0.00    -0.355 OA
HETATM   17  C   UNL     1      41.190  -9.804   0.834  1.00  0.00     0.210 C 
ENDBRANCH  11  16
ENDBRANCH   7  10
ENDBRANCH   5   6
ENDBRANCH   1   5
BRANCH   2  18
HETATM   18  N   UNL     1      41.345 -14.102   1.519  1.00  0.00    -0.166 NA
HETATM   19  C   UNL     1      40.874 -13.992   2.717  1.00  0.00     0.157 A 
HETATM   20  C   UNL     1      39.697 -13.157   3.232  1.00  0.00     0.277 A 
HETATM   21  C   UNL     1      41.399 -14.699   3.881  1.00  0.00     0.028 A 
HETATM   22  O   UNL     1      39.043 -12.377   2.577  1.00  0.00    -0.266 OA
HETATM   23  N   UNL     1      39.589 -13.463   4.574  1.00  0.00    -0.321 N 
HETATM   24  C   UNL     1      40.583 -14.356   4.958  1.00  0.00     0.048 A 
HETATM   25  H   UNL     1      38.889 -13.055   5.175  1.00  0.00     0.169 HD
HETATM   26  C   UNL     1      40.803 -14.879   6.215  1.00  0.00     0.032 A 
HETATM   27  C   UNL     1      41.879 -15.763   6.365  1.00  0.00     0.021 A 
HETATM   28  C   UNL     1      42.699 -16.098   5.265  1.00  0.00     0.012 A 
HETATM   29 BR   UNL     1      44.142 -17.294   5.520  1.00  0.00    -0.051 Br
HETATM   30  C   UNL     1      42.465 -15.567   3.998  1.00  0.00     0.035 A 
ENDBRANCH   2  18
TORSDOF 5
ENDMDL
