MODEL 1
REMARK VINA RESULT:      -9.2      0.000      0.000
REMARK  5 active torsions:
REMARK  status: ('A' for Active; 'I' for Inactive)
REMARK    1  A    between atoms: C_4  and  N_5 
REMARK    2  A    between atoms: N_8  and  C_10 
REMARK    3  A    between atoms: N_13  and  C_15 
REMARK    4  A    between atoms: C_15  and  C_16 
REMARK    5  A    between atoms: C_17  and  O_18 
ROOT
HETATM    1  C   UNL     1      40.711 -13.110   4.607  1.00  0.00     0.191 C 
HETATM    2  C   UNL     1      41.327 -11.711   4.732  1.00  0.00     0.061 C 
HETATM    3  C   UNL     1      42.706 -11.643   5.389  1.00  0.00     0.237 C 
HETATM    4  N   UNL     1      42.837 -12.537   6.589  1.00  0.00    -0.067 N 
HETATM    5  H   UNL     1      42.369 -12.087   7.402  1.00  0.00     0.280 HD
HETATM    6  C   UNL     1      42.264 -13.920   6.448  1.00  0.00     0.237 C 
HETATM    7  C   UNL     1      40.840 -13.840   5.943  1.00  0.00     0.061 C 
ENDROOT
BRANCH   1   8
HETATM    8  N   UNL     1      41.174 -13.906   3.372  1.00  0.00    -0.064 N 
HETATM    9  C   UNL     1      42.685 -14.020   3.083  1.00  0.00     0.255 C 
HETATM   10  C   UNL     1      42.978 -14.838   1.805  1.00  0.00     0.150 C 
HETATM   11  N   UNL     1      42.353 -16.165   1.931  1.00  0.00    -0.378 N 
HETATM   12  C   UNL     1      40.882 -16.054   1.951  1.00  0.00     0.150 C 
HETATM   13  C   UNL     1      40.434 -15.276   3.208  1.00  0.00     0.255 C 
HETATM   14  H   UNL     1      40.825 -13.370   2.560  1.00  0.00     0.280 HD
BRANCH  11  15
HETATM   15  C   UNL     1      43.002 -17.115   2.737  1.00  0.00     0.030 A 
HETATM   16  C   UNL     1      43.508 -16.821   4.016  1.00  0.00     0.029 A 
HETATM   17  C   UNL     1      44.200 -17.770   4.784  1.00  0.00     0.002 A 
HETATM   18  C   UNL     1      44.378 -19.060   4.307  1.00  0.00     0.000 A 
HETATM   19  C   UNL     1      43.838 -19.408   3.078  1.00  0.00     0.002 A 
HETATM   20  C   UNL     1      43.152 -18.451   2.317  1.00  0.00     0.029 A 
ENDBRANCH  11  15
ENDBRANCH   1   8
BRANCH   4  21
HETATM   21  C   UNL     1      44.298 -12.573   7.065  1.00  0.00     0.276 C 
BRANCH  21  22
HETATM   22  C   UNL     1      44.751 -11.308   7.733  1.00  0.00     0.002 A 
HETATM   23  C   UNL     1      45.880 -10.622   7.274  1.00  0.00     0.073 A 
HETATM   24  C   UNL     1      46.302  -9.439   7.878  1.00  0.00     0.038 A 
HETATM   25  C   UNL     1      45.576  -8.920   8.952  1.00  0.00     0.022 A 
HETATM   26  C   UNL     1      44.444  -9.588   9.412  1.00  0.00     0.011 A 
HETATM   27 BR   UNL     1      43.436  -8.868  10.839  1.00  0.00    -0.051 Br
HETATM   28  C   UNL     1      44.032 -10.779   8.816  1.00  0.00     0.030 A 
BRANCH  23  29
HETATM   29  O   UNL     1      46.536 -11.123   6.182  1.00  0.00    -0.360 OA
HETATM   30  H   UNL     1      47.120 -10.413   5.838  1.00  0.00     0.217 HD
ENDBRANCH  23  29
ENDBRANCH  21  22
ENDBRANCH   4  21
TORSDOF 5
ENDMDL
MODEL 2
REMARK VINA RESULT:      -9.2      2.391      4.093
REMARK  5 active torsions:
REMARK  status: ('A' for Active; 'I' for Inactive)
REMARK    1  A    between atoms: C_4  and  N_5 
REMARK    2  A    between atoms: N_8  and  C_10 
REMARK    3  A    between atoms: N_13  and  C_15 
REMARK    4  A    between atoms: C_15  and  C_16 
REMARK    5  A    between atoms: C_17  and  O_18 
ROOT
HETATM    1  C   UNL     1      43.196 -11.455   6.229  1.00  0.00     0.191 C 
HETATM    2  C   UNL     1      44.725 -11.494   6.343  1.00  0.00     0.061 C 
HETATM    3  C   UNL     1      45.299 -11.220   7.734  1.00  0.00     0.237 C 
HETATM    4  N   UNL     1      44.607 -10.097   8.451  1.00  0.00    -0.067 N 
HETATM    5  H   UNL     1      44.948  -9.190   8.074  1.00  0.00     0.280 HD
HETATM    6  C   UNL     1      43.106 -10.085   8.367  1.00  0.00     0.237 C 
HETATM    7  C   UNL     1      42.669 -10.199   6.923  1.00  0.00     0.061 C 
ENDROOT
BRANCH   1   8
HETATM    8  N   UNL     1      42.490 -12.769   6.615  1.00  0.00    -0.064 N 
HETATM    9  C   UNL     1      41.235 -13.199   5.828  1.00  0.00     0.255 C 
HETATM   10  C   UNL     1      40.643 -14.528   6.348  1.00  0.00     0.150 C 
HETATM   11  N   UNL     1      41.686 -15.566   6.308  1.00  0.00    -0.378 N 
HETATM   12  C   UNL     1      42.768 -15.262   7.262  1.00  0.00     0.150 C 
HETATM   13  C   UNL     1      43.482 -13.957   6.846  1.00  0.00     0.255 C 
HETATM   14  H   UNL     1      42.120 -12.605   7.566  1.00  0.00     0.280 HD
BRANCH  11  15
HETATM   15  C   UNL     1      41.983 -16.140   5.059  1.00  0.00     0.030 A 
HETATM   16  C   UNL     1      43.159 -16.870   4.810  1.00  0.00     0.029 A 
HETATM   17  C   UNL     1      43.463 -17.390   3.542  1.00  0.00     0.002 A 
HETATM   18  C   UNL     1      42.577 -17.223   2.487  1.00  0.00     0.000 A 
HETATM   19  C   UNL     1      41.377 -16.565   2.709  1.00  0.00     0.002 A 
HETATM   20  C   UNL     1      41.085 -16.046   3.979  1.00  0.00     0.029 A 
ENDBRANCH  11  15
ENDBRANCH   1   8
BRANCH   4  21
HETATM   21  C   UNL     1      45.095 -10.020   9.907  1.00  0.00     0.276 C 
BRANCH  21  22
HETATM   22  C   UNL     1      44.029  -9.620  10.884  1.00  0.00     0.002 A 
HETATM   23  C   UNL     1      43.452 -10.565  11.740  1.00  0.00     0.073 A 
HETATM   24  C   UNL     1      42.471 -10.202  12.660  1.00  0.00     0.038 A 
HETATM   25  C   UNL     1      42.066  -8.869  12.743  1.00  0.00     0.022 A 
HETATM   26  C   UNL     1      42.640  -7.916  11.905  1.00  0.00     0.011 A 
HETATM   27 BR   UNL     1      42.123  -6.104  12.040  1.00  0.00    -0.051 Br
HETATM   28  C   UNL     1      43.611  -8.283  10.973  1.00  0.00     0.030 A 
BRANCH  23  29
HETATM   29  O   UNL     1      43.912 -11.852  11.677  1.00  0.00    -0.360 OA
HETATM   30  H   UNL     1      43.702 -12.282  12.535  1.00  0.00     0.217 HD
ENDBRANCH  23  29
ENDBRANCH  21  22
ENDBRANCH   4  21
TORSDOF 5
ENDMDL
MODEL 3
REMARK VINA RESULT:      -9.0      0.971      1.360
REMARK  5 active torsions:
REMARK  status: ('A' for Active; 'I' for Inactive)
REMARK    1  A    between atoms: C_4  and  N_5 
REMARK    2  A    between atoms: N_8  and  C_10 
REMARK    3  A    between atoms: N_13  and  C_15 
REMARK    4  A    between atoms: C_15  and  C_16 
REMARK    5  A    between atoms: C_17  and  O_18 
ROOT
HETATM    1  C   UNL     1      41.569 -12.371   3.180  1.00  0.00     0.191 C 
HETATM    2  C   UNL     1      42.765 -11.411   3.220  1.00  0.00     0.061 C 
HETATM    3  C   UNL     1      43.785 -11.659   4.332  1.00  0.00     0.237 C 
HETATM    4  N   UNL     1      43.155 -11.991   5.653  1.00  0.00    -0.067 N 
HETATM    5  H   UNL     1      42.807 -11.116   6.095  1.00  0.00     0.280 HD
HETATM    6  C   UNL     1      42.007 -12.961   5.612  1.00  0.00     0.237 C 
HETATM    7  C   UNL     1      40.988 -12.514   4.587  1.00  0.00     0.061 C 
ENDROOT
BRANCH   1   8
HETATM    8  N   UNL     1      41.834 -13.694   2.437  1.00  0.00    -0.064 N 
HETATM    9  C   UNL     1      43.281 -14.223   2.350  1.00  0.00     0.255 C 
HETATM   10  C   UNL     1      43.375 -15.549   1.564  1.00  0.00     0.150 C 
HETATM   11  N   UNL     1      42.477 -16.539   2.182  1.00  0.00    -0.378 N 
HETATM   12  C   UNL     1      41.066 -16.136   2.031  1.00  0.00     0.150 C 
HETATM   13  C   UNL     1      40.812 -14.822   2.803  1.00  0.00     0.255 C 
HETATM   14  H   UNL     1      41.601 -13.499   1.450  1.00  0.00     0.280 HD
BRANCH  11  15
HETATM   15  C   UNL     1      42.913 -17.162   3.365  1.00  0.00     0.030 A 
HETATM   16  C   UNL     1      43.810 -18.244   3.378  1.00  0.00     0.029 A 
HETATM   17  C   UNL     1      44.191 -18.886   4.566  1.00  0.00     0.002 A 
HETATM   18  C   UNL     1      43.710 -18.439   5.788  1.00  0.00     0.000 A 
HETATM   19  C   UNL     1      42.873 -17.334   5.822  1.00  0.00     0.002 A 
HETATM   20  C   UNL     1      42.494 -16.702   4.629  1.00  0.00     0.029 A 
ENDBRANCH  11  15
ENDBRANCH   1   8
BRANCH   4  21
HETATM   21  C   UNL     1      44.232 -12.428   6.658  1.00  0.00     0.276 C 
BRANCH  21  22
HETATM   22  C   UNL     1      44.771 -11.307   7.497  1.00  0.00     0.002 A 
HETATM   23  C   UNL     1      46.002 -10.715   7.195  1.00  0.00     0.073 A 
HETATM   24  C   UNL     1      46.506  -9.664   7.959  1.00  0.00     0.038 A 
HETATM   25  C   UNL     1      45.762  -9.181   9.037  1.00  0.00     0.022 A 
HETATM   26  C   UNL     1      44.530  -9.755   9.343  1.00  0.00     0.011 A 
HETATM   27 BR   UNL     1      43.503  -9.079  10.778  1.00  0.00    -0.051 Br
HETATM   28  C   UNL     1      44.035 -10.817   8.587  1.00  0.00     0.030 A 
BRANCH  23  29
HETATM   29  O   UNL     1      46.679 -11.169   6.096  1.00  0.00    -0.360 OA
HETATM   30  H   UNL     1      46.290 -12.037   5.848  1.00  0.00     0.217 HD
ENDBRANCH  23  29
ENDBRANCH  21  22
ENDBRANCH   4  21
TORSDOF 5
ENDMDL
MODEL 4
REMARK VINA RESULT:      -8.5      2.266      3.769
REMARK  5 active torsions:
REMARK  status: ('A' for Active; 'I' for Inactive)
REMARK    1  A    between atoms: C_4  and  N_5 
REMARK    2  A    between atoms: N_8  and  C_10 
REMARK    3  A    between atoms: N_13  and  C_15 
REMARK    4  A    between atoms: C_15  and  C_16 
REMARK    5  A    between atoms: C_17  and  O_18 
ROOT
HETATM    1  C   UNL     1      43.264 -11.738   5.897  1.00  0.00     0.191 C 
HETATM    2  C   UNL     1      44.779 -11.652   6.116  1.00  0.00     0.061 C 
HETATM    3  C   UNL     1      45.230 -11.205   7.507  1.00  0.00     0.237 C 
HETATM    4  N   UNL     1      44.414 -10.073   8.060  1.00  0.00    -0.067 N 
HETATM    5  H   UNL     1      44.720  -9.183   7.617  1.00  0.00     0.280 HD
HETATM    6  C   UNL     1      42.925 -10.180   7.875  1.00  0.00     0.237 C 
HETATM    7  C   UNL     1      42.604 -10.464   6.424  1.00  0.00     0.061 C 
ENDROOT
BRANCH   1   8
HETATM    8  N   UNL     1      42.621 -13.057   6.366  1.00  0.00    -0.064 N 
HETATM    9  C   UNL     1      41.440 -13.637   5.561  1.00  0.00     0.255 C 
HETATM   10  C   UNL     1      40.904 -14.952   6.170  1.00  0.00     0.150 C 
HETATM   11  N   UNL     1      42.010 -15.918   6.274  1.00  0.00    -0.378 N 
HETATM   12  C   UNL     1      43.018 -15.461   7.249  1.00  0.00     0.150 C 
HETATM   13  C   UNL     1      43.671 -14.153   6.751  1.00  0.00     0.255 C 
HETATM   14  H   UNL     1      42.190 -12.836   7.279  1.00  0.00     0.280 HD
BRANCH  11  15
HETATM   15  C   UNL     1      42.409 -16.578   5.098  1.00  0.00     0.030 A 
HETATM   16  C   UNL     1      43.532 -17.422   5.035  1.00  0.00     0.029 A 
HETATM   17  C   UNL     1      43.945 -18.029   3.839  1.00  0.00     0.002 A 
HETATM   18  C   UNL     1      43.223 -17.836   2.670  1.00  0.00     0.000 A 
HETATM   19  C   UNL     1      42.073 -17.061   2.706  1.00  0.00     0.002 A 
HETATM   20  C   UNL     1      41.671 -16.456   3.905  1.00  0.00     0.029 A 
ENDBRANCH  11  15
ENDBRANCH   1   8
BRANCH   4  21
HETATM   21  C   UNL     1      44.787  -9.821   9.530  1.00  0.00     0.276 C 
BRANCH  21  22
HETATM   22  C   UNL     1      43.862  -8.874  10.237  1.00  0.00     0.002 A 
HETATM   23  C   UNL     1      43.689  -7.565   9.776  1.00  0.00     0.073 A 
HETATM   24  C   UNL     1      42.824  -6.681  10.416  1.00  0.00     0.038 A 
HETATM   25  C   UNL     1      42.102  -7.113  11.531  1.00  0.00     0.022 A 
HETATM   26  C   UNL     1      42.257  -8.417  11.995  1.00  0.00     0.011 A 
HETATM   27 BR   UNL     1      41.254  -9.017  13.479  1.00  0.00    -0.051 Br
HETATM   28  C   UNL     1      43.136  -9.296  11.362  1.00  0.00     0.030 A 
BRANCH  23  29
HETATM   29  O   UNL     1      44.363  -7.189   8.645  1.00  0.00    -0.360 OA
HETATM   30  H   UNL     1      44.782  -6.319   8.827  1.00  0.00     0.217 HD
ENDBRANCH  23  29
ENDBRANCH  21  22
ENDBRANCH   4  21
TORSDOF 5
ENDMDL
MODEL 5
REMARK VINA RESULT:      -8.5      4.582      7.587
REMARK  5 active torsions:
REMARK  status: ('A' for Active; 'I' for Inactive)
REMARK    1  A    between atoms: C_4  and  N_5 
REMARK    2  A    between atoms: N_8  and  C_10 
REMARK    3  A    between atoms: N_13  and  C_15 
REMARK    4  A    between atoms: C_15  and  C_16 
REMARK    5  A    between atoms: C_17  and  O_18 
ROOT
HETATM    1  C   UNL     1      41.350 -12.654   4.341  1.00  0.00     0.191 C 
HETATM    2  C   UNL     1      39.892 -12.586   3.871  1.00  0.00     0.061 C 
HETATM    3  C   UNL     1      39.519 -13.510   2.711  1.00  0.00     0.237 C 
HETATM    4  N   UNL     1      40.562 -13.560   1.633  1.00  0.00    -0.067 N 
HETATM    5  H   UNL     1      40.487 -12.705   1.045  1.00  0.00     0.280 HD
HETATM    6  C   UNL     1      41.988 -13.664   2.098  1.00  0.00     0.237 C 
HETATM    7  C   UNL     1      42.276 -12.591   3.125  1.00  0.00     0.061 C 
ENDROOT
BRANCH   1   8
HETATM    8  N   UNL     1      41.650 -13.785   5.342  1.00  0.00    -0.064 N 
HETATM    9  C   UNL     1      40.836 -15.093   5.253  1.00  0.00     0.255 C 
HETATM   10  C   UNL     1      41.251 -16.117   6.333  1.00  0.00     0.150 C 
HETATM   11  N   UNL     1      42.696 -16.375   6.220  1.00  0.00    -0.378 N 
HETATM   12  C   UNL     1      43.474 -15.167   6.558  1.00  0.00     0.150 C 
HETATM   13  C   UNL     1      43.181 -14.052   5.531  1.00  0.00     0.255 C 
HETATM   14  H   UNL     1      41.378 -13.408   6.264  1.00  0.00     0.280 HD
BRANCH  11  15
HETATM   15  C   UNL     1      43.126 -17.227   5.188  1.00  0.00     0.030 A 
HETATM   16  C   UNL     1      42.841 -16.995   3.831  1.00  0.00     0.029 A 
HETATM   17  C   UNL     1      43.233 -17.886   2.821  1.00  0.00     0.002 A 
HETATM   18  C   UNL     1      43.958 -19.027   3.136  1.00  0.00     0.000 A 
HETATM   19  C   UNL     1      44.314 -19.258   4.456  1.00  0.00     0.002 A 
HETATM   20  C   UNL     1      43.913 -18.363   5.459  1.00  0.00     0.029 A 
ENDBRANCH  11  15
ENDBRANCH   1   8
BRANCH   4  21
HETATM   21  C   UNL     1      40.216 -14.657   0.613  1.00  0.00     0.276 C 
BRANCH  21  22
HETATM   22  C   UNL     1      39.896 -14.135  -0.756  1.00  0.00     0.002 A 
HETATM   23  C   UNL     1      39.135 -14.893  -1.652  1.00  0.00     0.073 A 
HETATM   24  C   UNL     1      38.820 -14.412  -2.921  1.00  0.00     0.038 A 
HETATM   25  C   UNL     1      39.259 -13.143  -3.303  1.00  0.00     0.022 A 
HETATM   26  C   UNL     1      40.010 -12.373  -2.417  1.00  0.00     0.011 A 
HETATM   27 BR   UNL     1      40.573 -10.640  -2.915  1.00  0.00    -0.051 Br
HETATM   28  C   UNL     1      40.337 -12.863  -1.153  1.00  0.00     0.030 A 
BRANCH  23  29
HETATM   29  O   UNL     1      38.667 -16.107  -1.227  1.00  0.00    -0.360 OA
HETATM   30  H   UNL     1      38.278 -15.978  -0.334  1.00  0.00     0.217 HD
ENDBRANCH  23  29
ENDBRANCH  21  22
ENDBRANCH   4  21
TORSDOF 5
ENDMDL
MODEL 6
REMARK VINA RESULT:      -8.4      4.641      7.485
REMARK  5 active torsions:
REMARK  status: ('A' for Active; 'I' for Inactive)
REMARK    1  A    between atoms: C_4  and  N_5 
REMARK    2  A    between atoms: N_8  and  C_10 
REMARK    3  A    between atoms: N_13  and  C_15 
REMARK    4  A    between atoms: C_15  and  C_16 
REMARK    5  A    between atoms: C_17  and  O_18 
ROOT
HETATM    1  C   UNL     1      39.570 -12.727   3.299  1.00  0.00     0.191 C 
HETATM    2  C   UNL     1      40.705 -12.483   4.302  1.00  0.00     0.061 C 
HETATM    3  C   UNL     1      42.030 -13.181   3.994  1.00  0.00     0.237 C 
HETATM    4  N   UNL     1      41.861 -14.593   3.513  1.00  0.00    -0.067 N 
HETATM    5  H   UNL     1      41.665 -15.209   4.327  1.00  0.00     0.280 HD
HETATM    6  C   UNL     1      40.771 -14.819   2.502  1.00  0.00     0.237 C 
HETATM    7  C   UNL     1      39.473 -14.223   3.000  1.00  0.00     0.061 C 
ENDROOT
BRANCH   1   8
HETATM    8  N   UNL     1      39.596 -11.806   2.064  1.00  0.00    -0.064 N 
HETATM    9  C   UNL     1      40.687 -12.026   0.995  1.00  0.00     0.255 C 
HETATM   10  C   UNL     1      40.580 -11.014  -0.168  1.00  0.00     0.150 C 
HETATM   11  N   UNL     1      39.231 -11.094  -0.752  1.00  0.00    -0.378 N 
HETATM   12  C   UNL     1      38.213 -10.635   0.212  1.00  0.00     0.150 C 
HETATM   13  C   UNL     1      38.182 -11.583   1.431  1.00  0.00     0.255 C 
HETATM   14  H   UNL     1      39.822 -10.868   2.433  1.00  0.00     0.280 HD
BRANCH  11  15
HETATM   15  C   UNL     1      38.958 -12.173  -1.611  1.00  0.00     0.030 A 
HETATM   16  C   UNL     1      37.660 -12.502  -2.041  1.00  0.00     0.029 A 
HETATM   17  C   UNL     1      37.402 -13.615  -2.856  1.00  0.00     0.002 A 
HETATM   18  C   UNL     1      38.444 -14.417  -3.296  1.00  0.00     0.000 A 
HETATM   19  C   UNL     1      39.745 -14.087  -2.946  1.00  0.00     0.002 A 
HETATM   20  C   UNL     1      39.993 -12.976  -2.128  1.00  0.00     0.029 A 
ENDBRANCH  11  15
ENDBRANCH   1   8
BRANCH   4  21
HETATM   21  C   UNL     1      43.209 -15.152   3.029  1.00  0.00     0.276 C 
BRANCH  21  22
HETATM   22  C   UNL     1      43.505 -16.536   3.526  1.00  0.00     0.002 A 
HETATM   23  C   UNL     1      43.800 -16.765   4.874  1.00  0.00     0.073 A 
HETATM   24  C   UNL     1      44.063 -18.048   5.349  1.00  0.00     0.038 A 
HETATM   25  C   UNL     1      44.017 -19.129   4.467  1.00  0.00     0.022 A 
HETATM   26  C   UNL     1      43.714 -18.917   3.124  1.00  0.00     0.011 A 
HETATM   27 BR   UNL     1      43.613 -20.382   1.935  1.00  0.00    -0.051 Br
HETATM   28  C   UNL     1      43.466 -17.630   2.647  1.00  0.00     0.030 A 
BRANCH  23  29
HETATM   29  O   UNL     1      43.778 -15.694   5.726  1.00  0.00    -0.360 OA
HETATM   30  H   UNL     1      43.359 -15.991   6.563  1.00  0.00     0.217 HD
ENDBRANCH  23  29
ENDBRANCH  21  22
ENDBRANCH   4  21
TORSDOF 5
ENDMDL
MODEL 7
REMARK VINA RESULT:      -8.3      1.812      2.365
REMARK  5 active torsions:
REMARK  status: ('A' for Active; 'I' for Inactive)
REMARK    1  A    between atoms: C_4  and  N_5 
REMARK    2  A    between atoms: N_8  and  C_10 
REMARK    3  A    between atoms: N_13  and  C_15 
REMARK    4  A    between atoms: C_15  and  C_16 
REMARK    5  A    between atoms: C_17  and  O_18 
ROOT
HETATM    1  C   UNL     1      41.048 -14.537   5.704  1.00  0.00     0.191 C 
HETATM    2  C   UNL     1      40.338 -13.179   5.770  1.00  0.00     0.061 C 
HETATM    3  C   UNL     1      41.247 -11.954   5.887  1.00  0.00     0.237 C 
HETATM    4  N   UNL     1      42.392 -12.153   6.837  1.00  0.00    -0.067 N 
HETATM    5  H   UNL     1      42.046 -12.055   7.813  1.00  0.00     0.280 HD
HETATM    6  C   UNL     1      43.108 -13.471   6.743  1.00  0.00     0.237 C 
HETATM    7  C   UNL     1      42.109 -14.607   6.802  1.00  0.00     0.061 C 
ENDROOT
BRANCH   1   8
HETATM    8  N   UNL     1      41.526 -14.943   4.297  1.00  0.00    -0.064 N 
HETATM    9  C   UNL     1      43.038 -15.121   4.046  1.00  0.00     0.255 C 
HETATM   10  C   UNL     1      43.348 -15.515   2.585  1.00  0.00     0.150 C 
HETATM   11  N   UNL     1      42.600 -16.737   2.248  1.00  0.00    -0.378 N 
HETATM   12  C   UNL     1      41.147 -16.481   2.246  1.00  0.00     0.150 C 
HETATM   13  C   UNL     1      40.680 -16.101   3.668  1.00  0.00     0.255 C 
HETATM   14  H   UNL     1      41.286 -14.142   3.690  1.00  0.00     0.280 HD
BRANCH  11  15
HETATM   15  C   UNL     1      43.102 -17.960   2.728  1.00  0.00     0.030 A 
HETATM   16  C   UNL     1      42.998 -19.166   2.014  1.00  0.00     0.029 A 
HETATM   17  C   UNL     1      43.458 -20.386   2.534  1.00  0.00     0.002 A 
HETATM   18  C   UNL     1      44.071 -20.430   3.777  1.00  0.00     0.000 A 
HETATM   19  C   UNL     1      44.249 -19.250   4.485  1.00  0.00     0.002 A 
HETATM   20  C   UNL     1      43.782 -18.038   3.959  1.00  0.00     0.029 A 
ENDBRANCH  11  15
ENDBRANCH   1   8
BRANCH   4  21
HETATM   21  C   UNL     1      43.368 -10.969   6.744  1.00  0.00     0.276 C 
BRANCH  21  22
HETATM   22  C   UNL     1      43.117  -9.893   7.759  1.00  0.00     0.002 A 
HETATM   23  C   UNL     1      43.405 -10.104   9.111  1.00  0.00     0.073 A 
HETATM   24  C   UNL     1      43.188  -9.108  10.060  1.00  0.00     0.038 A 
HETATM   25  C   UNL     1      42.689  -7.869   9.654  1.00  0.00     0.022 A 
HETATM   26  C   UNL     1      42.408  -7.641   8.309  1.00  0.00     0.011 A 
HETATM   27 BR   UNL     1      41.769  -5.953   7.749  1.00  0.00    -0.051 Br
HETATM   28  C   UNL     1      42.611  -8.645   7.362  1.00  0.00     0.030 A 
BRANCH  23  29
HETATM   29  O   UNL     1      43.950 -11.307   9.470  1.00  0.00    -0.360 OA
HETATM   30  H   UNL     1      43.572 -11.991   8.875  1.00  0.00     0.217 HD
ENDBRANCH  23  29
ENDBRANCH  21  22
ENDBRANCH   4  21
TORSDOF 5
ENDMDL
MODEL 8
REMARK VINA RESULT:      -8.3      4.166      6.520
REMARK  5 active torsions:
REMARK  status: ('A' for Active; 'I' for Inactive)
REMARK    1  A    between atoms: C_4  and  N_5 
REMARK    2  A    between atoms: N_8  and  C_10 
REMARK    3  A    between atoms: N_13  and  C_15 
REMARK    4  A    between atoms: C_15  and  C_16 
REMARK    5  A    between atoms: C_17  and  O_18 
ROOT
HETATM    1  C   UNL     1      41.794 -12.159   5.896  1.00  0.00     0.191 C 
HETATM    2  C   UNL     1      40.556 -11.709   5.111  1.00  0.00     0.061 C 
HETATM    3  C   UNL     1      40.476 -12.184   3.659  1.00  0.00     0.237 C 
HETATM    4  N   UNL     1      41.788 -12.102   2.934  1.00  0.00    -0.067 N 
HETATM    5  H   UNL     1      41.964 -11.115   2.658  1.00  0.00     0.280 HD
HETATM    6  C   UNL     1      42.994 -12.578   3.696  1.00  0.00     0.237 C 
HETATM    7  C   UNL     1      43.045 -11.911   5.053  1.00  0.00     0.061 C 
ENDROOT
BRANCH   1   8
HETATM    8  N   UNL     1      41.685 -13.564   6.518  1.00  0.00    -0.064 N 
HETATM    9  C   UNL     1      40.773 -14.609   5.841  1.00  0.00     0.255 C 
HETATM   10  C   UNL     1      40.765 -15.957   6.595  1.00  0.00     0.150 C 
HETATM   11  N   UNL     1      42.148 -16.448   6.715  1.00  0.00    -0.378 N 
HETATM   12  C   UNL     1      42.947 -15.561   7.582  1.00  0.00     0.150 C 
HETATM   13  C   UNL     1      43.070 -14.165   6.932  1.00  0.00     0.255 C 
HETATM   14  H   UNL     1      41.227 -13.418   7.432  1.00  0.00     0.280 HD
BRANCH  11  15
HETATM   15  C   UNL     1      42.729 -17.039   5.580  1.00  0.00     0.030 A 
HETATM   16  C   UNL     1      42.385 -16.678   4.265  1.00  0.00     0.029 A 
HETATM   17  C   UNL     1      42.938 -17.317   3.145  1.00  0.00     0.002 A 
HETATM   18  C   UNL     1      43.883 -18.319   3.307  1.00  0.00     0.000 A 
HETATM   19  C   UNL     1      44.296 -18.660   4.586  1.00  0.00     0.002 A 
HETATM   20  C   UNL     1      43.734 -18.018   5.699  1.00  0.00     0.029 A 
ENDBRANCH  11  15
ENDBRANCH   1   8
BRANCH   4  21
HETATM   21  C   UNL     1      41.677 -12.784   1.561  1.00  0.00     0.276 C 
BRANCH  21  22
HETATM   22  C   UNL     1      40.864 -12.014   0.564  1.00  0.00     0.002 A 
HETATM   23  C   UNL     1      41.123 -10.660   0.322  1.00  0.00     0.073 A 
HETATM   24  C   UNL     1      40.383  -9.938  -0.612  1.00  0.00     0.038 A 
HETATM   25  C   UNL     1      39.374 -10.579  -1.332  1.00  0.00     0.022 A 
HETATM   26  C   UNL     1      39.111 -11.929  -1.108  1.00  0.00     0.011 A 
HETATM   27 BR   UNL     1      37.772 -12.810  -2.108  1.00  0.00    -0.051 Br
HETATM   28  C   UNL     1      39.843 -12.646  -0.162  1.00  0.00     0.030 A 
BRANCH  23  29
HETATM   29  O   UNL     1      42.159 -10.075   0.999  1.00  0.00    -0.360 OA
HETATM   30  H   UNL     1      42.822  -9.789   0.333  1.00  0.00     0.217 HD
ENDBRANCH  23  29
ENDBRANCH  21  22
ENDBRANCH   4  21
TORSDOF 5
ENDMDL
MODEL 9
REMARK VINA RESULT:      -8.2      2.281      4.090
REMARK  5 active torsions:
REMARK  status: ('A' for Active; 'I' for Inactive)
REMARK    1  A    between atoms: C_4  and  N_5 
REMARK    2  A    between atoms: N_8  and  C_10 
REMARK    3  A    between atoms: N_13  and  C_15 
REMARK    4  A    between atoms: C_15  and  C_16 
REMARK    5  A    between atoms: C_17  and  O_18 
ROOT
HETATM    1  C   UNL     1      40.499 -13.334   4.825  1.00  0.00     0.191 C 
HETATM    2  C   UNL     1      41.073 -11.913   4.894  1.00  0.00     0.061 C 
HETATM    3  C   UNL     1      42.508 -11.796   5.408  1.00  0.00     0.237 C 
HETATM    4  N   UNL     1      42.792 -12.684   6.584  1.00  0.00    -0.067 N 
HETATM    5  H   UNL     1      42.393 -12.252   7.442  1.00  0.00     0.280 HD
HETATM    6  C   UNL     1      42.259 -14.087   6.496  1.00  0.00     0.237 C 
HETATM    7  C   UNL     1      40.789 -14.059   6.139  1.00  0.00     0.061 C 
ENDROOT
BRANCH   1   8
HETATM    8  N   UNL     1      40.862 -14.112   3.547  1.00  0.00    -0.064 N 
HETATM    9  C   UNL     1      39.787 -14.997   2.882  1.00  0.00     0.255 C 
HETATM   10  C   UNL     1      40.316 -15.716   1.621  1.00  0.00     0.150 C 
HETATM   11  N   UNL     1      40.843 -14.713   0.682  1.00  0.00    -0.378 N 
HETATM   12  C   UNL     1      42.037 -14.048   1.238  1.00  0.00     0.150 C 
HETATM   13  C   UNL     1      41.650 -13.251   2.503  1.00  0.00     0.255 C 
HETATM   14  H   UNL     1      41.573 -14.800   3.844  1.00  0.00     0.280 HD
BRANCH  11  15
HETATM   15  C   UNL     1      39.913 -13.981  -0.076  1.00  0.00     0.030 A 
HETATM   16  C   UNL     1      39.475 -12.694   0.280  1.00  0.00     0.029 A 
HETATM   17  C   UNL     1      38.506 -12.000  -0.461  1.00  0.00     0.002 A 
HETATM   18  C   UNL     1      37.969 -12.564  -1.609  1.00  0.00     0.000 A 
HETATM   19  C   UNL     1      38.422 -13.805  -2.029  1.00  0.00     0.002 A 
HETATM   20  C   UNL     1      39.387 -14.491  -1.279  1.00  0.00     0.029 A 
ENDBRANCH  11  15
ENDBRANCH   1   8
BRANCH   4  21
HETATM   21  C   UNL     1      44.294 -12.667   6.910  1.00  0.00     0.276 C 
BRANCH  21  22
HETATM   22  C   UNL     1      44.748 -11.425   7.620  1.00  0.00     0.002 A 
HETATM   23  C   UNL     1      45.891 -10.737   7.198  1.00  0.00     0.073 A 
HETATM   24  C   UNL     1      46.314  -9.576   7.842  1.00  0.00     0.038 A 
HETATM   25  C   UNL     1      45.575  -9.080   8.918  1.00  0.00     0.022 A 
HETATM   26  C   UNL     1      44.430  -9.749   9.341  1.00  0.00     0.011 A 
HETATM   27 BR   UNL     1      43.407  -9.060  10.772  1.00  0.00    -0.051 Br
HETATM   28  C   UNL     1      44.017 -10.920   8.706  1.00  0.00     0.030 A 
BRANCH  23  29
HETATM   29  O   UNL     1      46.559 -11.214   6.103  1.00  0.00    -0.360 OA
HETATM   30  H   UNL     1      47.345 -10.642   5.966  1.00  0.00     0.217 HD
ENDBRANCH  23  29
ENDBRANCH  21  22
ENDBRANCH   4  21
TORSDOF 5
ENDMDL
MODEL 10
REMARK VINA RESULT:      -8.2      5.198      8.421
REMARK  5 active torsions:
REMARK  status: ('A' for Active; 'I' for Inactive)
REMARK    1  A    between atoms: C_4  and  N_5 
REMARK    2  A    between atoms: N_8  and  C_10 
REMARK    3  A    between atoms: N_13  and  C_15 
REMARK    4  A    between atoms: C_15  and  C_16 
REMARK    5  A    between atoms: C_17  and  O_18 
ROOT
HETATM    1  C   UNL     1      40.712 -13.676   1.137  1.00  0.00     0.191 C 
HETATM    2  C   UNL     1      42.076 -13.445   1.799  1.00  0.00     0.061 C 
HETATM    3  C   UNL     1      43.001 -14.660   1.869  1.00  0.00     0.237 C 
HETATM    4  N   UNL     1      42.289 -15.928   2.243  1.00  0.00    -0.067 N 
HETATM    5  H   UNL     1      42.117 -15.933   3.268  1.00  0.00     0.280 HD
HETATM    6  C   UNL     1      40.969 -16.168   1.563  1.00  0.00     0.237 C 
HETATM    7  C   UNL     1      40.085 -14.949   1.706  1.00  0.00     0.061 C 
ENDROOT
BRANCH   1   8
HETATM    8  N   UNL     1      40.718 -13.574  -0.400  1.00  0.00    -0.064 N 
HETATM    9  C   UNL     1      39.520 -14.141  -1.189  1.00  0.00     0.255 C 
HETATM   10  C   UNL     1      39.689 -13.970  -2.715  1.00  0.00     0.150 C 
HETATM   11  N   UNL     1      39.905 -12.546  -3.017  1.00  0.00    -0.378 N 
HETATM   12  C   UNL     1      41.191 -12.080  -2.464  1.00  0.00     0.150 C 
HETATM   13  C   UNL     1      41.158 -12.165  -0.922  1.00  0.00     0.255 C 
HETATM   14  H   UNL     1      41.501 -14.175  -0.706  1.00  0.00     0.280 HD
BRANCH  11  15
HETATM   15  C   UNL     1      38.781 -11.701  -3.005  1.00  0.00     0.030 A 
HETATM   16  C   UNL     1      37.483 -12.154  -2.713  1.00  0.00     0.029 A 
HETATM   17  C   UNL     1      36.366 -11.305  -2.758  1.00  0.00     0.002 A 
HETATM   18  C   UNL     1      36.521  -9.961  -3.065  1.00  0.00     0.000 A 
HETATM   19  C   UNL     1      37.794  -9.463  -3.296  1.00  0.00     0.002 A 
HETATM   20  C   UNL     1      38.903 -10.320  -3.253  1.00  0.00     0.029 A 
ENDBRANCH  11  15
ENDBRANCH   1   8
BRANCH   4  21
HETATM   21  C   UNL     1      43.234 -17.130   2.090  1.00  0.00     0.276 C 
BRANCH  21  22
HETATM   22  C   UNL     1      43.471 -17.883   3.366  1.00  0.00     0.002 A 
HETATM   23  C   UNL     1      43.777 -19.248   3.345  1.00  0.00     0.073 A 
HETATM   24  C   UNL     1      44.012 -19.954   4.522  1.00  0.00     0.038 A 
HETATM   25  C   UNL     1      43.956 -19.285   5.746  1.00  0.00     0.022 A 
HETATM   26  C   UNL     1      43.662 -17.925   5.781  1.00  0.00     0.011 A 
HETATM   27 BR   UNL     1      43.624 -17.008   7.433  1.00  0.00    -0.051 Br
HETATM   28  C   UNL     1      43.412 -17.222   4.602  1.00  0.00     0.030 A 
BRANCH  23  29
HETATM   29  O   UNL     1      43.885 -19.862   2.126  1.00  0.00    -0.360 OA
HETATM   30  H   UNL     1      44.221 -19.195   1.489  1.00  0.00     0.217 HD
ENDBRANCH  23  29
ENDBRANCH  21  22
ENDBRANCH   4  21
TORSDOF 5
ENDMDL
