MODEL 1
REMARK VINA RESULT:      -8.8      0.000      0.000
REMARK  10 active torsions:
REMARK  status: ('A' for Active; 'I' for Inactive)
REMARK    1  A    between atoms: C_4  and  C_5 
REMARK    2  A    between atoms: C_6  and  O_7 
REMARK    3  A    between atoms: C_14  and  C_15 
REMARK    4  A    between atoms: C_18  and  C_19 
REMARK    5  A    between atoms: C_19  and  N_20 
REMARK    6  A    between atoms: N_20  and  C_21 
REMARK    7  A    between atoms: C_21  and  N_22 
REMARK    8  A    between atoms: N_22  and  C_23 
REMARK    9  A    between atoms: C_25  and  C_26 
REMARK   10  A    between atoms: C_26  and  O_27 
ROOT
HETATM    1  C   UNL     1      41.135 -12.232   4.399  1.00  0.00     0.067 C 
HETATM    2  C   UNL     1      42.187 -11.262   3.791  1.00  0.00     0.001 C 
HETATM    3  C   UNL     1      43.501 -11.302   4.606  1.00  0.00     0.040 C 
HETATM    4  C   UNL     1      43.266 -10.778   6.032  1.00  0.00     0.206 C 
HETATM    5  N   UNL     1      41.754 -10.643   6.232  1.00  0.00    -0.065 N 
HETATM    6  H   UNL     1      41.574 -10.417   7.220  1.00  0.00     0.280 HD
HETATM    7  C   UNL     1      40.994 -11.920   5.906  1.00  0.00     0.246 C 
HETATM    8  C   UNL     1      41.616  -9.829   3.906  1.00  0.00     0.033 C 
HETATM    9  C   UNL     1      41.238  -9.513   5.358  1.00  0.00     0.236 C 
ENDROOT
BRANCH   4  10
HETATM   10  C   UNL     1      43.947 -11.572   7.164  1.00  0.00     0.155 C 
BRANCH  10  11
HETATM   11  N   UNL     1      43.568 -11.177   8.516  1.00  0.00    -0.365 N 
HETATM   12  H   UNL     1      43.002 -11.835   9.043  1.00  0.00     0.161 HD
BRANCH  11  13
HETATM   13  C   UNL     1      44.289 -10.335   9.319  1.00  0.00     0.172 C 
HETATM   14  S   UNL     1      45.221  -9.080   8.737  1.00  0.00    -0.041 SA
BRANCH  13  15
HETATM   15  N   UNL     1      44.118 -10.480  10.670  1.00  0.00    -0.333 N 
HETATM   16  H   UNL     1      44.549 -11.319  11.052  1.00  0.00     0.168 HD
BRANCH  15  17
HETATM   17  C   UNL     1      43.332  -9.731  11.575  1.00  0.00     0.035 A 
HETATM   18  C   UNL     1      42.027 -10.083  11.924  1.00  0.00     0.047 A 
HETATM   19  C   UNL     1      41.263  -9.285  12.787  1.00  0.00     0.041 A 
HETATM   20  C   UNL     1      41.837  -8.151  13.365  1.00  0.00     0.018 A 
HETATM   21  C   UNL     1      43.164  -7.827  13.073  1.00  0.00     0.003 A 
HETATM   22  C   UNL     1      43.907  -8.613  12.184  1.00  0.00     0.029 A 
BRANCH  19  23
HETATM   23  C   UNL     1      39.851  -9.687  12.999  1.00  0.00     0.293 C 
HETATM   24  O   UNL     1      38.915  -8.925  12.798  1.00  0.00    -0.259 OA
BRANCH  23  25
HETATM   25  O   UNL     1      39.769 -10.967  13.429  1.00  0.00    -0.323 OA
HETATM   26  C   UNL     1      38.781 -11.747  12.754  1.00  0.00     0.213 C 
ENDBRANCH  23  25
ENDBRANCH  19  23
ENDBRANCH  15  17
ENDBRANCH  13  15
ENDBRANCH  11  13
ENDBRANCH  10  11
ENDBRANCH   4  10
BRANCH   1  27
HETATM   27  C   UNL     1      41.392 -13.689   4.127  1.00  0.00     0.038 C 
HETATM   28  N   UNL     1      40.753 -14.408   3.137  1.00  0.00    -0.277 N 
HETATM   29  C   UNL     1      39.807 -13.944   2.147  1.00  0.00     0.179 C 
HETATM   30  N   UNL     1      41.088 -15.702   3.115  1.00  0.00    -0.172 NA
HETATM   31  C   UNL     1      42.124 -15.801   3.954  1.00  0.00     0.092 C 
HETATM   32  C   UNL     1      42.317 -14.581   4.647  1.00  0.00     0.061 C 
BRANCH  31  33
HETATM   33  C   UNL     1      42.884 -17.034   4.089  1.00  0.00     0.028 A 
HETATM   34  C   UNL     1      43.147 -17.592   5.353  1.00  0.00     0.080 A 
HETATM   35  C   UNL     1      43.876 -18.783   5.445  1.00  0.00     0.037 A 
HETATM   36  C   UNL     1      44.364 -19.401   4.291  1.00  0.00     0.003 A 
HETATM   37  C   UNL     1      44.114 -18.842   3.039  1.00  0.00     0.001 A 
HETATM   38  C   UNL     1      43.374 -17.664   2.937  1.00  0.00     0.017 A 
BRANCH  34  39
HETATM   39  O   UNL     1      42.605 -16.980   6.458  1.00  0.00    -0.355 OA
HETATM   40  C   UNL     1      43.546 -16.703   7.492  1.00  0.00     0.210 C 
ENDBRANCH  34  39
ENDBRANCH  31  33
ENDBRANCH   1  27
TORSDOF 10
ENDMDL
MODEL 2
REMARK VINA RESULT:      -8.5      3.441      4.816
REMARK  10 active torsions:
REMARK  status: ('A' for Active; 'I' for Inactive)
REMARK    1  A    between atoms: C_4  and  C_5 
REMARK    2  A    between atoms: C_6  and  O_7 
REMARK    3  A    between atoms: C_14  and  C_15 
REMARK    4  A    between atoms: C_18  and  C_19 
REMARK    5  A    between atoms: C_19  and  N_20 
REMARK    6  A    between atoms: N_20  and  C_21 
REMARK    7  A    between atoms: C_21  and  N_22 
REMARK    8  A    between atoms: N_22  and  C_23 
REMARK    9  A    between atoms: C_25  and  C_26 
REMARK   10  A    between atoms: C_26  and  O_27 
ROOT
HETATM    1  C   UNL     1      40.038 -12.788   1.517  1.00  0.00     0.067 C 
HETATM    2  C   UNL     1      41.096 -11.860   0.856  1.00  0.00     0.001 C 
HETATM    3  C   UNL     1      41.663 -10.857   1.887  1.00  0.00     0.040 C 
HETATM    4  C   UNL     1      40.561  -9.904   2.373  1.00  0.00     0.206 C 
HETATM    5  N   UNL     1      39.222 -10.446   1.863  1.00  0.00    -0.065 N 
HETATM    6  H   UNL     1      38.463  -9.894   2.286  1.00  0.00     0.280 HD
HETATM    7  C   UNL     1      38.991 -11.903   2.233  1.00  0.00     0.246 C 
HETATM    8  C   UNL     1      40.374 -11.040  -0.237  1.00  0.00     0.033 C 
HETATM    9  C   UNL     1      39.171 -10.295   0.353  1.00  0.00     0.236 C 
ENDROOT
BRANCH   4  10
HETATM   10  C   UNL     1      40.543  -9.606   3.886  1.00  0.00     0.155 C 
BRANCH  10  11
HETATM   11  N   UNL     1      41.370 -10.488   4.703  1.00  0.00    -0.365 N 
HETATM   12  H   UNL     1      42.373 -10.331   4.673  1.00  0.00     0.161 HD
BRANCH  11  13
HETATM   13  C   UNL     1      40.963 -11.098   5.858  1.00  0.00     0.172 C 
HETATM   14  S   UNL     1      39.370 -11.168   6.351  1.00  0.00    -0.041 SA
BRANCH  13  15
HETATM   15  N   UNL     1      41.918 -11.783   6.560  1.00  0.00    -0.333 N 
HETATM   16  H   UNL     1      41.564 -12.602   7.048  1.00  0.00     0.168 HD
BRANCH  15  17
HETATM   17  C   UNL     1      43.268 -11.454   6.820  1.00  0.00     0.035 A 
HETATM   18  C   UNL     1      43.658 -10.573   7.831  1.00  0.00     0.047 A 
HETATM   19  C   UNL     1      45.004 -10.235   8.024  1.00  0.00     0.041 A 
HETATM   20  C   UNL     1      45.986 -10.840   7.238  1.00  0.00     0.018 A 
HETATM   21  C   UNL     1      45.611 -11.774   6.268  1.00  0.00     0.003 A 
HETATM   22  C   UNL     1      44.260 -12.079   6.061  1.00  0.00     0.029 A 
BRANCH  19  23
HETATM   23  C   UNL     1      45.297  -9.201   9.047  1.00  0.00     0.293 C 
HETATM   24  O   UNL     1      45.586  -9.484  10.201  1.00  0.00    -0.259 OA
BRANCH  23  25
HETATM   25  O   UNL     1      45.195  -7.957   8.524  1.00  0.00    -0.323 OA
HETATM   26  C   UNL     1      44.074  -7.213   9.005  1.00  0.00     0.213 C 
ENDBRANCH  23  25
ENDBRANCH  19  23
ENDBRANCH  15  17
ENDBRANCH  13  15
ENDBRANCH  11  13
ENDBRANCH  10  11
ENDBRANCH   4  10
BRANCH   1  27
HETATM   27  C   UNL     1      40.608 -13.855   2.411  1.00  0.00     0.038 C 
HETATM   28  N   UNL     1      40.474 -15.208   2.171  1.00  0.00    -0.277 N 
HETATM   29  C   UNL     1      39.862 -15.872   1.042  1.00  0.00     0.179 C 
HETATM   30  N   UNL     1      41.004 -15.976   3.128  1.00  0.00    -0.172 NA
HETATM   31  C   UNL     1      41.690 -15.131   3.904  1.00  0.00     0.092 C 
HETATM   32  C   UNL     1      41.431 -13.790   3.524  1.00  0.00     0.061 C 
BRANCH  31  33
HETATM   33  C   UNL     1      42.549 -15.604   4.978  1.00  0.00     0.028 A 
HETATM   34  C   UNL     1      42.245 -15.338   6.325  1.00  0.00     0.080 A 
HETATM   35  C   UNL     1      43.090 -15.814   7.333  1.00  0.00     0.037 A 
HETATM   36  C   UNL     1      44.245 -16.528   7.004  1.00  0.00     0.003 A 
HETATM   37  C   UNL     1      44.555 -16.781   5.669  1.00  0.00     0.001 A 
HETATM   38  C   UNL     1      43.709 -16.324   4.658  1.00  0.00     0.017 A 
BRANCH  34  39
HETATM   39  O   UNL     1      41.072 -14.678   6.606  1.00  0.00    -0.355 OA
HETATM   40  C   UNL     1      39.960 -15.539   6.839  1.00  0.00     0.210 C 
ENDBRANCH  34  39
ENDBRANCH  31  33
ENDBRANCH   1  27
TORSDOF 10
ENDMDL
MODEL 3
REMARK VINA RESULT:      -8.5      1.811      2.415
REMARK  10 active torsions:
REMARK  status: ('A' for Active; 'I' for Inactive)
REMARK    1  A    between atoms: C_4  and  C_5 
REMARK    2  A    between atoms: C_6  and  O_7 
REMARK    3  A    between atoms: C_14  and  C_15 
REMARK    4  A    between atoms: C_18  and  C_19 
REMARK    5  A    between atoms: C_19  and  N_20 
REMARK    6  A    between atoms: N_20  and  C_21 
REMARK    7  A    between atoms: C_21  and  N_22 
REMARK    8  A    between atoms: N_22  and  C_23 
REMARK    9  A    between atoms: C_25  and  C_26 
REMARK   10  A    between atoms: C_26  and  O_27 
ROOT
HETATM    1  C   UNL     1      41.379 -12.448   4.298  1.00  0.00     0.067 C 
HETATM    2  C   UNL     1      42.449 -11.539   3.630  1.00  0.00     0.001 C 
HETATM    3  C   UNL     1      43.797 -11.640   4.380  1.00  0.00     0.040 C 
HETATM    4  C   UNL     1      43.660 -11.093   5.809  1.00  0.00     0.206 C 
HETATM    5  N   UNL     1      42.168 -10.878   6.081  1.00  0.00    -0.065 N 
HETATM    6  H   UNL     1      42.049 -10.634   7.075  1.00  0.00     0.280 HD
HETATM    7  C   UNL     1      41.329 -12.116   5.807  1.00  0.00     0.246 C 
HETATM    8  C   UNL     1      41.958 -10.078   3.756  1.00  0.00     0.033 C 
HETATM    9  C   UNL     1      41.669  -9.730   5.220  1.00  0.00     0.236 C 
ENDROOT
BRANCH   4  10
HETATM   10  C   UNL     1      44.354 -11.911   6.916  1.00  0.00     0.155 C 
BRANCH  10  11
HETATM   11  N   UNL     1      43.952 -11.580   8.279  1.00  0.00    -0.365 N 
HETATM   12  H   UNL     1      43.967 -12.337   8.956  1.00  0.00     0.161 HD
BRANCH  11  13
HETATM   13  C   UNL     1      44.081 -10.347   8.858  1.00  0.00     0.172 C 
HETATM   14  S   UNL     1      45.454  -9.408   8.729  1.00  0.00    -0.041 SA
BRANCH  13  15
HETATM   15  N   UNL     1      42.966  -9.834   9.463  1.00  0.00    -0.333 N 
HETATM   16  H   UNL     1      42.093 -10.094   9.010  1.00  0.00     0.168 HD
BRANCH  15  17
HETATM   17  C   UNL     1      42.850  -8.900  10.519  1.00  0.00     0.035 A 
HETATM   18  C   UNL     1      42.289  -7.632  10.357  1.00  0.00     0.047 A 
HETATM   19  C   UNL     1      42.238  -6.718  11.418  1.00  0.00     0.041 A 
HETATM   20  C   UNL     1      42.694  -7.100  12.681  1.00  0.00     0.018 A 
HETATM   21  C   UNL     1      43.197  -8.391  12.868  1.00  0.00     0.003 A 
HETATM   22  C   UNL     1      43.273  -9.285  11.793  1.00  0.00     0.029 A 
BRANCH  19  23
HETATM   23  C   UNL     1      41.729  -5.358  11.109  1.00  0.00     0.293 C 
HETATM   24  O   UNL     1      40.578  -5.155  10.748  1.00  0.00    -0.259 OA
BRANCH  23  25
HETATM   25  O   UNL     1      42.696  -4.427  11.280  1.00  0.00    -0.323 OA
HETATM   26  C   UNL     1      42.445  -3.519  12.354  1.00  0.00     0.213 C 
ENDBRANCH  23  25
ENDBRANCH  19  23
ENDBRANCH  15  17
ENDBRANCH  13  15
ENDBRANCH  11  13
ENDBRANCH  10  11
ENDBRANCH   4  10
BRANCH   1  27
HETATM   27  C   UNL     1      41.548 -13.919   4.031  1.00  0.00     0.038 C 
HETATM   28  N   UNL     1      40.778 -14.627   3.129  1.00  0.00    -0.277 N 
HETATM   29  C   UNL     1      39.750 -14.141   2.237  1.00  0.00     0.179 C 
HETATM   30  N   UNL     1      41.057 -15.934   3.098  1.00  0.00    -0.172 NA
HETATM   31  C   UNL     1      42.173 -16.063   3.824  1.00  0.00     0.092 C 
HETATM   32  C   UNL     1      42.487 -14.840   4.467  1.00  0.00     0.061 C 
BRANCH  31  33
HETATM   33  C   UNL     1      42.893 -17.323   3.903  1.00  0.00     0.028 A 
HETATM   34  C   UNL     1      43.260 -17.877   5.143  1.00  0.00     0.080 A 
HETATM   35  C   UNL     1      43.947 -19.095   5.181  1.00  0.00     0.037 A 
HETATM   36  C   UNL     1      44.292 -19.746   3.994  1.00  0.00     0.003 A 
HETATM   37  C   UNL     1      43.941 -19.192   2.764  1.00  0.00     0.001 A 
HETATM   38  C   UNL     1      43.241 -17.986   2.718  1.00  0.00     0.017 A 
BRANCH  34  39
HETATM   39  O   UNL     1      42.855 -17.230   6.286  1.00  0.00    -0.355 OA
HETATM   40  C   UNL     1      43.917 -16.904   7.179  1.00  0.00     0.210 C 
ENDBRANCH  34  39
ENDBRANCH  31  33
ENDBRANCH   1  27
TORSDOF 10
ENDMDL
MODEL 4
REMARK VINA RESULT:      -8.4      2.906      3.854
REMARK  10 active torsions:
REMARK  status: ('A' for Active; 'I' for Inactive)
REMARK    1  A    between atoms: C_4  and  C_5 
REMARK    2  A    between atoms: C_6  and  O_7 
REMARK    3  A    between atoms: C_14  and  C_15 
REMARK    4  A    between atoms: C_18  and  C_19 
REMARK    5  A    between atoms: C_19  and  N_20 
REMARK    6  A    between atoms: N_20  and  C_21 
REMARK    7  A    between atoms: C_21  and  N_22 
REMARK    8  A    between atoms: N_22  and  C_23 
REMARK    9  A    between atoms: C_25  and  C_26 
REMARK   10  A    between atoms: C_26  and  O_27 
ROOT
HETATM    1  C   UNL     1      40.848 -12.473   2.021  1.00  0.00     0.067 C 
HETATM    2  C   UNL     1      41.950 -11.450   2.417  1.00  0.00     0.001 C 
HETATM    3  C   UNL     1      42.037 -11.307   3.954  1.00  0.00     0.040 C 
HETATM    4  C   UNL     1      40.735 -10.713   4.514  1.00  0.00     0.206 C 
HETATM    5  N   UNL     1      39.703 -10.711   3.382  1.00  0.00    -0.065 N 
HETATM    6  H   UNL     1      38.790 -10.436   3.773  1.00  0.00     0.280 HD
HETATM    7  C   UNL     1      39.533 -12.074   2.730  1.00  0.00     0.246 C 
HETATM    8  C   UNL     1      41.529 -10.074   1.849  1.00  0.00     0.033 C 
HETATM    9  C   UNL     1      40.124  -9.698   2.332  1.00  0.00     0.236 C 
ENDROOT
BRANCH   4  10
HETATM   10  C   UNL     1      40.198 -11.359   5.807  1.00  0.00     0.155 C 
BRANCH  10  11
HETATM   11  N   UNL     1      40.793 -10.863   7.043  1.00  0.00    -0.365 N 
HETATM   12  H   UNL     1      41.739 -11.170   7.249  1.00  0.00     0.161 HD
BRANCH  11  13
HETATM   13  C   UNL     1      40.474  -9.678   7.647  1.00  0.00     0.172 C 
HETATM   14  S   UNL     1      39.458  -8.542   6.968  1.00  0.00    -0.041 SA
BRANCH  13  15
HETATM   15  N   UNL     1      40.931  -9.498   8.925  1.00  0.00    -0.333 N 
HETATM   16  H   UNL     1      40.215  -9.194   9.581  1.00  0.00     0.168 HD
BRANCH  15  17
HETATM   17  C   UNL     1      42.249  -9.533   9.435  1.00  0.00     0.035 A 
HETATM   18  C   UNL     1      43.383  -9.445   8.626  1.00  0.00     0.047 A 
HETATM   19  C   UNL     1      44.673  -9.534   9.167  1.00  0.00     0.041 A 
HETATM   20  C   UNL     1      44.834  -9.645  10.549  1.00  0.00     0.018 A 
HETATM   21  C   UNL     1      43.706  -9.667  11.373  1.00  0.00     0.003 A 
HETATM   22  C   UNL     1      42.421  -9.611  10.819  1.00  0.00     0.029 A 
BRANCH  19  23
HETATM   23  C   UNL     1      45.804  -9.547   8.207  1.00  0.00     0.293 C 
HETATM   24  O   UNL     1      46.299  -8.519   7.763  1.00  0.00    -0.259 OA
BRANCH  23  25
HETATM   25  O   UNL     1      46.180 -10.813   7.916  1.00  0.00    -0.323 OA
HETATM   26  C   UNL     1      45.852 -11.227   6.588  1.00  0.00     0.213 C 
ENDBRANCH  23  25
ENDBRANCH  19  23
ENDBRANCH  15  17
ENDBRANCH  13  15
ENDBRANCH  11  13
ENDBRANCH  10  11
ENDBRANCH   4  10
BRANCH   1  27
HETATM   27  C   UNL     1      41.217 -13.914   2.247  1.00  0.00     0.038 C 
HETATM   28  N   UNL     1      40.754 -14.955   1.468  1.00  0.00    -0.277 N 
HETATM   29  C   UNL     1      39.922 -14.902   0.287  1.00  0.00     0.179 C 
HETATM   30  N   UNL     1      41.159 -16.158   1.887  1.00  0.00    -0.172 NA
HETATM   31  C   UNL     1      42.080 -15.902   2.822  1.00  0.00     0.092 C 
HETATM   32  C   UNL     1      42.114 -14.516   3.116  1.00  0.00     0.061 C 
BRANCH  31  33
HETATM   33  C   UNL     1      42.881 -16.960   3.416  1.00  0.00     0.028 A 
HETATM   34  C   UNL     1      43.233 -16.930   4.778  1.00  0.00     0.080 A 
HETATM   35  C   UNL     1      44.000 -17.968   5.317  1.00  0.00     0.037 A 
HETATM   36  C   UNL     1      44.438 -19.017   4.504  1.00  0.00     0.003 A 
HETATM   37  C   UNL     1      44.101 -19.041   3.152  1.00  0.00     0.001 A 
HETATM   38  C   UNL     1      43.322 -18.018   2.610  1.00  0.00     0.017 A 
BRANCH  34  39
HETATM   39  O   UNL     1      42.738 -15.908   5.553  1.00  0.00    -0.355 OA
HETATM   40  C   UNL     1      41.997 -16.345   6.689  1.00  0.00     0.210 C 
ENDBRANCH  34  39
ENDBRANCH  31  33
ENDBRANCH   1  27
TORSDOF 10
ENDMDL
MODEL 5
REMARK VINA RESULT:      -8.4      5.898      9.367
REMARK  10 active torsions:
REMARK  status: ('A' for Active; 'I' for Inactive)
REMARK    1  A    between atoms: C_4  and  C_5 
REMARK    2  A    between atoms: C_6  and  O_7 
REMARK    3  A    between atoms: C_14  and  C_15 
REMARK    4  A    between atoms: C_18  and  C_19 
REMARK    5  A    between atoms: C_19  and  N_20 
REMARK    6  A    between atoms: N_20  and  C_21 
REMARK    7  A    between atoms: C_21  and  N_22 
REMARK    8  A    between atoms: N_22  and  C_23 
REMARK    9  A    between atoms: C_25  and  C_26 
REMARK   10  A    between atoms: C_26  and  O_27 
ROOT
HETATM    1  C   UNL     1      41.939 -13.231   3.638  1.00  0.00     0.067 C 
HETATM    2  C   UNL     1      40.395 -13.174   3.813  1.00  0.00     0.001 C 
HETATM    3  C   UNL     1      39.685 -13.855   2.619  1.00  0.00     0.040 C 
HETATM    4  C   UNL     1      39.959 -13.082   1.319  1.00  0.00     0.206 C 
HETATM    5  N   UNL     1      41.054 -12.053   1.614  1.00  0.00    -0.065 N 
HETATM    6  H   UNL     1      41.340 -11.616   0.726  1.00  0.00     0.280 HD
HETATM    7  C   UNL     1      42.295 -12.669   2.242  1.00  0.00     0.246 C 
HETATM    8  C   UNL     1      39.984 -11.684   3.806  1.00  0.00     0.033 C 
HETATM    9  C   UNL     1      40.496 -10.987   2.540  1.00  0.00     0.236 C 
ENDROOT
BRANCH   4  10
HETATM   10  C   UNL     1      40.267 -13.939   0.075  1.00  0.00     0.155 C 
BRANCH  10  11
HETATM   11  N   UNL     1      39.176 -14.054  -0.887  1.00  0.00    -0.365 N 
HETATM   12  H   UNL     1      38.243 -13.848  -0.545  1.00  0.00     0.161 HD
BRANCH  11  13
HETATM   13  C   UNL     1      39.300 -13.875  -2.238  1.00  0.00     0.172 C 
HETATM   14  S   UNL     1      38.348 -14.658  -3.362  1.00  0.00    -0.041 SA
BRANCH  13  15
HETATM   15  N   UNL     1      40.175 -12.907  -2.650  1.00  0.00    -0.333 N 
HETATM   16  H   UNL     1      41.064 -13.269  -2.986  1.00  0.00     0.168 HD
BRANCH  15  17
HETATM   17  C   UNL     1      40.088 -11.499  -2.553  1.00  0.00     0.035 A 
HETATM   18  C   UNL     1      41.070 -10.714  -1.945  1.00  0.00     0.047 A 
HETATM   19  C   UNL     1      40.922  -9.326  -1.825  1.00  0.00     0.041 A 
HETATM   20  C   UNL     1      39.805  -8.701  -2.382  1.00  0.00     0.018 A 
HETATM   21  C   UNL     1      38.849  -9.470  -3.051  1.00  0.00     0.003 A 
HETATM   22  C   UNL     1      38.991 -10.861  -3.136  1.00  0.00     0.029 A 
BRANCH  19  23
HETATM   23  C   UNL     1      41.967  -8.603  -1.058  1.00  0.00     0.293 C 
HETATM   24  O   UNL     1      43.154  -8.890  -1.137  1.00  0.00    -0.259 OA
BRANCH  23  25
HETATM   25  O   UNL     1      41.423  -7.627  -0.296  1.00  0.00    -0.323 OA
HETATM   26  C   UNL     1      41.986  -6.333  -0.518  1.00  0.00     0.213 C 
ENDBRANCH  23  25
ENDBRANCH  19  23
ENDBRANCH  15  17
ENDBRANCH  13  15
ENDBRANCH  11  13
ENDBRANCH  10  11
ENDBRANCH   4  10
BRANCH   1  27
HETATM   27  C   UNL     1      42.552 -14.580   3.897  1.00  0.00     0.038 C 
HETATM   28  N   UNL     1      43.193 -14.919   5.072  1.00  0.00    -0.277 N 
HETATM   29  C   UNL     1      43.349 -14.135   6.277  1.00  0.00     0.179 C 
HETATM   30  N   UNL     1      43.717 -16.148   5.060  1.00  0.00    -0.172 NA
HETATM   31  C   UNL     1      43.233 -16.716   3.951  1.00  0.00     0.092 C 
HETATM   32  C   UNL     1      42.541 -15.759   3.167  1.00  0.00     0.061 C 
BRANCH  31  33
HETATM   33  C   UNL     1      43.446 -18.124   3.657  1.00  0.00     0.028 A 
HETATM   34  C   UNL     1      43.855 -19.024   4.658  1.00  0.00     0.080 A 
HETATM   35  C   UNL     1      44.043 -20.373   4.340  1.00  0.00     0.037 A 
HETATM   36  C   UNL     1      43.853 -20.822   3.031  1.00  0.00     0.003 A 
HETATM   37  C   UNL     1      43.460 -19.930   2.035  1.00  0.00     0.001 A 
HETATM   38  C   UNL     1      43.254 -18.585   2.347  1.00  0.00     0.017 A 
BRANCH  34  39
HETATM   39  O   UNL     1      43.979 -18.551   5.942  1.00  0.00    -0.355 OA
HETATM   40  C   UNL     1      43.265 -19.310   6.915  1.00  0.00     0.210 C 
ENDBRANCH  34  39
ENDBRANCH  31  33
ENDBRANCH   1  27
TORSDOF 10
ENDMDL
MODEL 6
REMARK VINA RESULT:      -8.4      5.112      8.741
REMARK  10 active torsions:
REMARK  status: ('A' for Active; 'I' for Inactive)
REMARK    1  A    between atoms: C_4  and  C_5 
REMARK    2  A    between atoms: C_6  and  O_7 
REMARK    3  A    between atoms: C_14  and  C_15 
REMARK    4  A    between atoms: C_18  and  C_19 
REMARK    5  A    between atoms: C_19  and  N_20 
REMARK    6  A    between atoms: N_20  and  C_21 
REMARK    7  A    between atoms: C_21  and  N_22 
REMARK    8  A    between atoms: N_22  and  C_23 
REMARK    9  A    between atoms: C_25  and  C_26 
REMARK   10  A    between atoms: C_26  and  O_27 
ROOT
HETATM    1  C   UNL     1      39.745  -9.685   3.456  1.00  0.00     0.067 C 
HETATM    2  C   UNL     1      41.205  -9.635   3.987  1.00  0.00     0.001 C 
HETATM    3  C   UNL     1      41.691 -11.048   4.385  1.00  0.00     0.040 C 
HETATM    4  C   UNL     1      40.866 -11.589   5.563  1.00  0.00     0.206 C 
HETATM    5  N   UNL     1      39.676 -10.646   5.766  1.00  0.00    -0.065 N 
HETATM    6  H   UNL     1      39.045 -11.063   6.465  1.00  0.00     0.280 HD
HETATM    7  C   UNL     1      38.871 -10.423   4.495  1.00  0.00     0.246 C 
HETATM    8  C   UNL     1      41.201  -8.771   5.270  1.00  0.00     0.033 C 
HETATM    9  C   UNL     1      40.185  -9.312   6.282  1.00  0.00     0.236 C 
ENDROOT
BRANCH   4  10
HETATM   10  C   UNL     1      40.443 -13.069   5.469  1.00  0.00     0.155 C 
BRANCH  10  11
HETATM   11  N   UNL     1      41.003 -13.941   6.495  1.00  0.00    -0.365 N 
HETATM   12  H   UNL     1      40.345 -14.506   7.024  1.00  0.00     0.161 HD
BRANCH  11  13
HETATM   13  C   UNL     1      42.261 -14.479   6.467  1.00  0.00     0.172 C 
HETATM   14  S   UNL     1      42.871 -15.465   7.666  1.00  0.00    -0.041 SA
BRANCH  13  15
HETATM   15  N   UNL     1      42.988 -14.277   5.324  1.00  0.00    -0.333 N 
HETATM   16  H   UNL     1      43.475 -13.384   5.295  1.00  0.00     0.168 HD
BRANCH  15  17
HETATM   17  C   UNL     1      43.052 -15.044   4.138  1.00  0.00     0.035 A 
HETATM   18  C   UNL     1      43.243 -16.427   4.132  1.00  0.00     0.047 A 
HETATM   19  C   UNL     1      43.351 -17.143   2.933  1.00  0.00     0.041 A 
HETATM   20  C   UNL     1      43.197 -16.476   1.716  1.00  0.00     0.018 A 
HETATM   21  C   UNL     1      42.940 -15.103   1.712  1.00  0.00     0.003 A 
HETATM   22  C   UNL     1      42.867 -14.392   2.916  1.00  0.00     0.029 A 
BRANCH  19  23
HETATM   23  C   UNL     1      43.670 -18.588   3.039  1.00  0.00     0.293 C 
HETATM   24  O   UNL     1      43.275 -19.409   2.222  1.00  0.00    -0.259 OA
BRANCH  23  25
HETATM   25  O   UNL     1      44.428 -18.839   4.132  1.00  0.00    -0.323 OA
HETATM   26  C   UNL     1      44.187 -20.115   4.728  1.00  0.00     0.213 C 
ENDBRANCH  23  25
ENDBRANCH  19  23
ENDBRANCH  15  17
ENDBRANCH  13  15
ENDBRANCH  11  13
ENDBRANCH  10  11
ENDBRANCH   4  10
BRANCH   1  27
HETATM   27  C   UNL     1      39.600 -10.248   2.068  1.00  0.00     0.038 C 
HETATM   28  N   UNL     1      40.038  -9.602   0.929  1.00  0.00    -0.277 N 
HETATM   29  C   UNL     1      40.756  -8.352   0.815  1.00  0.00     0.179 C 
HETATM   30  N   UNL     1      39.749 -10.256  -0.201  1.00  0.00    -0.172 NA
HETATM   31  C   UNL     1      39.311 -11.454   0.200  1.00  0.00     0.092 C 
HETATM   32  C   UNL     1      39.154 -11.477   1.608  1.00  0.00     0.061 C 
BRANCH  31  33
HETATM   33  C   UNL     1      39.042 -12.525  -0.746  1.00  0.00     0.028 A 
HETATM   34  C   UNL     1      37.937 -12.471  -1.614  1.00  0.00     0.080 A 
HETATM   35  C   UNL     1      37.712 -13.517  -2.516  1.00  0.00     0.037 A 
HETATM   36  C   UNL     1      38.566 -14.623  -2.537  1.00  0.00     0.003 A 
HETATM   37  C   UNL     1      39.654 -14.684  -1.669  1.00  0.00     0.001 A 
HETATM   38  C   UNL     1      39.895 -13.638  -0.778  1.00  0.00     0.017 A 
BRANCH  34  39
HETATM   39  O   UNL     1      37.154 -11.341  -1.596  1.00  0.00    -0.355 OA
HETATM   40  C   UNL     1      36.636 -10.969  -2.871  1.00  0.00     0.210 C 
ENDBRANCH  34  39
ENDBRANCH  31  33
ENDBRANCH   1  27
TORSDOF 10
ENDMDL
MODEL 7
REMARK VINA RESULT:      -8.3      1.932      2.756
REMARK  10 active torsions:
REMARK  status: ('A' for Active; 'I' for Inactive)
REMARK    1  A    between atoms: C_4  and  C_5 
REMARK    2  A    between atoms: C_6  and  O_7 
REMARK    3  A    between atoms: C_14  and  C_15 
REMARK    4  A    between atoms: C_18  and  C_19 
REMARK    5  A    between atoms: C_19  and  N_20 
REMARK    6  A    between atoms: N_20  and  C_21 
REMARK    7  A    between atoms: C_21  and  N_22 
REMARK    8  A    between atoms: N_22  and  C_23 
REMARK    9  A    between atoms: C_25  and  C_26 
REMARK   10  A    between atoms: C_26  and  O_27 
ROOT
HETATM    1  C   UNL     1      40.646 -12.474   2.422  1.00  0.00     0.067 C 
HETATM    2  C   UNL     1      41.791 -11.535   1.945  1.00  0.00     0.001 C 
HETATM    3  C   UNL     1      42.751 -11.208   3.112  1.00  0.00     0.040 C 
HETATM    4  C   UNL     1      42.020 -10.409   4.202  1.00  0.00     0.206 C 
HETATM    5  N   UNL     1      40.524 -10.439   3.874  1.00  0.00    -0.065 N 
HETATM    6  H   UNL     1      40.008 -10.019   4.660  1.00  0.00     0.280 HD
HETATM    7  C   UNL     1      39.988 -11.847   3.672  1.00  0.00     0.246 C 
HETATM    8  C   UNL     1      41.141 -10.206   1.496  1.00  0.00     0.033 C 
HETATM    9  C   UNL     1      40.277  -9.620   2.619  1.00  0.00     0.236 C 
ENDROOT
BRANCH   4  10
HETATM   10  C   UNL     1      42.317 -10.822   5.658  1.00  0.00     0.155 C 
BRANCH  10  11
HETATM   11  N   UNL     1      41.618 -10.049   6.679  1.00  0.00    -0.365 N 
HETATM   12  H   UNL     1      41.453 -10.511   7.567  1.00  0.00     0.161 HD
BRANCH  11  13
HETATM   13  C   UNL     1      41.645  -8.685   6.785  1.00  0.00     0.172 C 
HETATM   14  S   UNL     1      40.379  -7.700   6.329  1.00  0.00    -0.041 SA
BRANCH  13  15
HETATM   15  N   UNL     1      42.732  -8.141   7.416  1.00  0.00    -0.333 N 
HETATM   16  H   UNL     1      43.096  -7.306   6.963  1.00  0.00     0.168 HD
BRANCH  15  17
HETATM   17  C   UNL     1      43.498  -8.631   8.498  1.00  0.00     0.035 A 
HETATM   18  C   UNL     1      43.017  -8.693   9.807  1.00  0.00     0.047 A 
HETATM   19  C   UNL     1      43.826  -9.139  10.860  1.00  0.00     0.041 A 
HETATM   20  C   UNL     1      45.118  -9.596  10.591  1.00  0.00     0.018 A 
HETATM   21  C   UNL     1      45.585  -9.600   9.274  1.00  0.00     0.003 A 
HETATM   22  C   UNL     1      44.779  -9.121   8.235  1.00  0.00     0.029 A 
BRANCH  19  23
HETATM   23  C   UNL     1      43.256  -9.054  12.228  1.00  0.00     0.293 C 
HETATM   24  O   UNL     1      43.387  -8.062  12.932  1.00  0.00    -0.259 OA
BRANCH  23  25
HETATM   25  O   UNL     1      42.604 -10.193  12.554  1.00  0.00    -0.323 OA
HETATM   26  C   UNL     1      41.219 -10.007  12.851  1.00  0.00     0.213 C 
ENDBRANCH  23  25
ENDBRANCH  19  23
ENDBRANCH  15  17
ENDBRANCH  13  15
ENDBRANCH  11  13
ENDBRANCH  10  11
ENDBRANCH   4  10
BRANCH   1  27
HETATM   27  C   UNL     1      41.056 -13.906   2.635  1.00  0.00     0.038 C 
HETATM   28  N   UNL     1      40.763 -14.927   1.753  1.00  0.00    -0.277 N 
HETATM   29  C   UNL     1      40.105 -14.853   0.468  1.00  0.00     0.179 C 
HETATM   30  N   UNL     1      41.168 -16.129   2.173  1.00  0.00    -0.172 NA
HETATM   31  C   UNL     1      41.932 -15.879   3.241  1.00  0.00     0.092 C 
HETATM   32  C   UNL     1      41.851 -14.510   3.597  1.00  0.00     0.061 C 
BRANCH  31  33
HETATM   33  C   UNL     1      42.697 -16.928   3.898  1.00  0.00     0.028 A 
HETATM   34  C   UNL     1      42.646 -17.102   5.293  1.00  0.00     0.080 A 
HETATM   35  C   UNL     1      43.389 -18.125   5.890  1.00  0.00     0.037 A 
HETATM   36  C   UNL     1      44.200 -18.954   5.110  1.00  0.00     0.003 A 
HETATM   37  C   UNL     1      44.261 -18.774   3.729  1.00  0.00     0.001 A 
HETATM   38  C   UNL     1      43.510 -17.767   3.124  1.00  0.00     0.017 A 
BRANCH  34  39
HETATM   39  O   UNL     1      41.796 -16.299   6.015  1.00  0.00    -0.355 OA
HETATM   40  C   UNL     1      42.316 -15.884   7.276  1.00  0.00     0.210 C 
ENDBRANCH  34  39
ENDBRANCH  31  33
ENDBRANCH   1  27
TORSDOF 10
ENDMDL
MODEL 8
REMARK VINA RESULT:      -8.3      3.195      7.796
REMARK  10 active torsions:
REMARK  status: ('A' for Active; 'I' for Inactive)
REMARK    1  A    between atoms: C_4  and  C_5 
REMARK    2  A    between atoms: C_6  and  O_7 
REMARK    3  A    between atoms: C_14  and  C_15 
REMARK    4  A    between atoms: C_18  and  C_19 
REMARK    5  A    between atoms: C_19  and  N_20 
REMARK    6  A    between atoms: N_20  and  C_21 
REMARK    7  A    between atoms: C_21  and  N_22 
REMARK    8  A    between atoms: N_22  and  C_23 
REMARK    9  A    between atoms: C_25  and  C_26 
REMARK   10  A    between atoms: C_26  and  O_27 
ROOT
HETATM    1  C   UNL     1      40.992  -8.427  10.633  1.00  0.00     0.067 C 
HETATM    2  C   UNL     1      42.121  -7.362  10.545  1.00  0.00     0.001 C 
HETATM    3  C   UNL     1      43.421  -7.988   9.989  1.00  0.00     0.040 C 
HETATM    4  C   UNL     1      43.963  -9.052  10.956  1.00  0.00     0.206 C 
HETATM    5  N   UNL     1      42.885  -9.307  12.014  1.00  0.00    -0.065 N 
HETATM    6  H   UNL     1      43.178 -10.107  12.593  1.00  0.00     0.280 HD
HETATM    7  C   UNL     1      41.531  -9.649  11.412  1.00  0.00     0.246 C 
HETATM    8  C   UNL     1      42.418  -6.884  11.986  1.00  0.00     0.033 C 
HETATM    9  C   UNL     1      42.751  -8.075  12.892  1.00  0.00     0.236 C 
ENDROOT
BRANCH   4  10
HETATM   10  C   UNL     1      44.482 -10.352  10.310  1.00  0.00     0.155 C 
BRANCH  10  11
HETATM   11  N   UNL     1      43.836 -10.725   9.057  1.00  0.00    -0.365 N 
HETATM   12  H   UNL     1      42.825 -10.638   9.022  1.00  0.00     0.161 HD
BRANCH  11  13
HETATM   13  C   UNL     1      44.419 -10.653   7.822  1.00  0.00     0.172 C 
HETATM   14  S   UNL     1      46.068 -10.728   7.575  1.00  0.00    -0.041 SA
BRANCH  13  15
HETATM   15  N   UNL     1      43.575 -10.644   6.744  1.00  0.00    -0.333 N 
HETATM   16  H   UNL     1      42.943  -9.847   6.722  1.00  0.00     0.168 HD
BRANCH  15  17
HETATM   17  C   UNL     1      43.353 -11.625   5.751  1.00  0.00     0.035 A 
HETATM   18  C   UNL     1      42.844 -12.895   6.033  1.00  0.00     0.047 A 
HETATM   19  C   UNL     1      42.686 -13.856   5.026  1.00  0.00     0.041 A 
HETATM   20  C   UNL     1      42.977 -13.522   3.702  1.00  0.00     0.018 A 
HETATM   21  C   UNL     1      43.424 -12.233   3.401  1.00  0.00     0.003 A 
HETATM   22  C   UNL     1      43.610 -11.291   4.420  1.00  0.00     0.029 A 
BRANCH  19  23
HETATM   23  C   UNL     1      42.249 -15.209   5.452  1.00  0.00     0.293 C 
HETATM   24  O   UNL     1      42.478 -16.211   4.788  1.00  0.00    -0.259 OA
BRANCH  23  25
HETATM   25  O   UNL     1      41.588 -15.157   6.631  1.00  0.00    -0.323 OA
HETATM   26  C   UNL     1      40.252 -15.660   6.573  1.00  0.00     0.213 C 
ENDBRANCH  23  25
ENDBRANCH  19  23
ENDBRANCH  15  17
ENDBRANCH  13  15
ENDBRANCH  11  13
ENDBRANCH  10  11
ENDBRANCH   4  10
BRANCH   1  27
HETATM   27  C   UNL     1      40.379  -8.803   9.311  1.00  0.00     0.038 C 
HETATM   28  N   UNL     1      39.341  -8.110   8.722  1.00  0.00    -0.277 N 
HETATM   29  C   UNL     1      38.692  -6.898   9.170  1.00  0.00     0.179 C 
HETATM   30  N   UNL     1      38.911  -8.657   7.581  1.00  0.00    -0.172 NA
HETATM   31  C   UNL     1      39.815  -9.598   7.292  1.00  0.00     0.092 C 
HETATM   32  C   UNL     1      40.722  -9.760   8.368  1.00  0.00     0.061 C 
BRANCH  31  33
HETATM   33  C   UNL     1      39.789 -10.321   6.030  1.00  0.00     0.028 A 
HETATM   34  C   UNL     1      40.188  -9.706   4.830  1.00  0.00     0.080 A 
HETATM   35  C   UNL     1      40.157 -10.433   3.635  1.00  0.00     0.037 A 
HETATM   36  C   UNL     1      39.708 -11.756   3.628  1.00  0.00     0.003 A 
HETATM   37  C   UNL     1      39.300 -12.363   4.814  1.00  0.00     0.001 A 
HETATM   38  C   UNL     1      39.344 -11.650   6.013  1.00  0.00     0.017 A 
BRANCH  34  39
HETATM   39  O   UNL     1      40.673  -8.421   4.890  1.00  0.00    -0.355 OA
HETATM   40  C   UNL     1      39.875  -7.463   4.200  1.00  0.00     0.210 C 
ENDBRANCH  34  39
ENDBRANCH  31  33
ENDBRANCH   1  27
TORSDOF 10
ENDMDL
MODEL 9
REMARK VINA RESULT:      -8.1      4.009      6.598
REMARK  10 active torsions:
REMARK  status: ('A' for Active; 'I' for Inactive)
REMARK    1  A    between atoms: C_4  and  C_5 
REMARK    2  A    between atoms: C_6  and  O_7 
REMARK    3  A    between atoms: C_14  and  C_15 
REMARK    4  A    between atoms: C_18  and  C_19 
REMARK    5  A    between atoms: C_19  and  N_20 
REMARK    6  A    between atoms: N_20  and  C_21 
REMARK    7  A    between atoms: C_21  and  N_22 
REMARK    8  A    between atoms: N_22  and  C_23 
REMARK    9  A    between atoms: C_25  and  C_26 
REMARK   10  A    between atoms: C_26  and  O_27 
ROOT
HETATM    1  C   UNL     1      39.866 -11.652  -1.945  1.00  0.00     0.067 C 
HETATM    2  C   UNL     1      41.172 -10.869  -2.262  1.00  0.00     0.001 C 
HETATM    3  C   UNL     1      41.640 -10.065  -1.027  1.00  0.00     0.040 C 
HETATM    4  C   UNL     1      40.612  -8.979  -0.672  1.00  0.00     0.206 C 
HETATM    5  N   UNL     1      39.355  -9.240  -1.506  1.00  0.00    -0.065 N 
HETATM    6  H   UNL     1      38.613  -8.601  -1.188  1.00  0.00     0.280 HD
HETATM    7  C   UNL     1      38.831 -10.661  -1.364  1.00  0.00     0.246 C 
HETATM    8  C   UNL     1      40.843  -9.852  -3.378  1.00  0.00     0.033 C 
HETATM    9  C   UNL     1      39.665  -8.961  -2.967  1.00  0.00     0.236 C 
ENDROOT
BRANCH   4  10
HETATM   10  C   UNL     1      40.304  -8.805   0.829  1.00  0.00     0.155 C 
BRANCH  10  11
HETATM   11  N   UNL     1      40.940  -9.777   1.712  1.00  0.00    -0.365 N 
HETATM   12  H   UNL     1      41.757 -10.257   1.348  1.00  0.00     0.161 HD
BRANCH  11  13
HETATM   13  C   UNL     1      40.917  -9.728   3.079  1.00  0.00     0.172 C 
HETATM   14  S   UNL     1      39.512  -9.731   3.978  1.00  0.00    -0.041 SA
BRANCH  13  15
HETATM   15  N   UNL     1      42.127  -9.804   3.716  1.00  0.00    -0.333 N 
HETATM   16  H   UNL     1      42.742  -9.015   3.531  1.00  0.00     0.168 HD
BRANCH  15  17
HETATM   17  C   UNL     1      42.697 -10.859   4.465  1.00  0.00     0.035 A 
HETATM   18  C   UNL     1      43.387 -10.658   5.662  1.00  0.00     0.047 A 
HETATM   19  C   UNL     1      43.981 -11.726   6.348  1.00  0.00     0.041 A 
HETATM   20  C   UNL     1      43.826 -13.027   5.866  1.00  0.00     0.018 A 
HETATM   21  C   UNL     1      43.081 -13.245   4.704  1.00  0.00     0.003 A 
HETATM   22  C   UNL     1      42.520 -12.167   4.008  1.00  0.00     0.029 A 
BRANCH  19  23
HETATM   23  C   UNL     1      44.789 -11.388   7.546  1.00  0.00     0.293 C 
HETATM   24  O   UNL     1      45.942 -10.986   7.467  1.00  0.00    -0.259 OA
BRANCH  23  25
HETATM   25  O   UNL     1      44.081 -11.588   8.681  1.00  0.00    -0.323 OA
HETATM   26  C   UNL     1      43.982 -10.432   9.516  1.00  0.00     0.213 C 
ENDBRANCH  23  25
ENDBRANCH  19  23
ENDBRANCH  15  17
ENDBRANCH  13  15
ENDBRANCH  11  13
ENDBRANCH  10  11
ENDBRANCH   4  10
BRANCH   1  27
HETATM   27  C   UNL     1      40.055 -12.869  -1.082  1.00  0.00     0.038 C 
HETATM   28  N   UNL     1      39.514 -14.106  -1.372  1.00  0.00    -0.277 N 
HETATM   29  C   UNL     1      38.752 -14.513  -2.532  1.00  0.00     0.179 C 
HETATM   30  N   UNL     1      39.757 -15.028  -0.436  1.00  0.00    -0.172 NA
HETATM   31  C   UNL     1      40.654 -14.462   0.378  1.00  0.00     0.092 C 
HETATM   32  C   UNL     1      40.833 -13.097   0.043  1.00  0.00     0.061 C 
BRANCH  31  33
HETATM   33  C   UNL     1      41.298 -15.211   1.446  1.00  0.00     0.028 A 
HETATM   34  C   UNL     1      40.667 -15.395   2.689  1.00  0.00     0.080 A 
HETATM   35  C   UNL     1      41.314 -16.126   3.691  1.00  0.00     0.037 A 
HETATM   36  C   UNL     1      42.591 -16.648   3.470  1.00  0.00     0.003 A 
HETATM   37  C   UNL     1      43.223 -16.455   2.242  1.00  0.00     0.001 A 
HETATM   38  C   UNL     1      42.578 -15.741   1.232  1.00  0.00     0.017 A 
BRANCH  34  39
HETATM   39  O   UNL     1      39.391 -14.910   2.847  1.00  0.00    -0.355 OA
HETATM   40  C   UNL     1      39.331 -13.573   3.336  1.00  0.00     0.210 C 
ENDBRANCH  34  39
ENDBRANCH  31  33
ENDBRANCH   1  27
TORSDOF 10
ENDMDL
MODEL 10
REMARK VINA RESULT:      -8.1     18.948     20.573
REMARK  10 active torsions:
REMARK  status: ('A' for Active; 'I' for Inactive)
REMARK    1  A    between atoms: C_4  and  C_5 
REMARK    2  A    between atoms: C_6  and  O_7 
REMARK    3  A    between atoms: C_14  and  C_15 
REMARK    4  A    between atoms: C_18  and  C_19 
REMARK    5  A    between atoms: C_19  and  N_20 
REMARK    6  A    between atoms: N_20  and  C_21 
REMARK    7  A    between atoms: C_21  and  N_22 
REMARK    8  A    between atoms: N_22  and  C_23 
REMARK    9  A    between atoms: C_25  and  C_26 
REMARK   10  A    between atoms: C_26  and  O_27 
ROOT
HETATM    1  C   UNL     1      44.784 -28.865  -0.692  1.00  0.00     0.067 C 
HETATM    2  C   UNL     1      44.495 -29.870  -1.844  1.00  0.00     0.001 C 
HETATM    3  C   UNL     1      45.773 -30.658  -2.214  1.00  0.00     0.040 C 
HETATM    4  C   UNL     1      46.843 -29.713  -2.780  1.00  0.00     0.206 C 
HETATM    5  N   UNL     1      46.368 -28.277  -2.539  1.00  0.00    -0.065 N 
HETATM    6  H   UNL     1      47.129 -27.633  -2.796  1.00  0.00     0.280 HD
HETATM    7  C   UNL     1      46.007 -28.007  -1.087  1.00  0.00     0.246 C 
HETATM    8  C   UNL     1      44.086 -29.044  -3.085  1.00  0.00     0.033 C 
HETATM    9  C   UNL     1      45.160 -28.002  -3.418  1.00  0.00     0.236 C 
ENDROOT
BRANCH   4  10
HETATM   10  C   UNL     1      48.285 -29.952  -2.290  1.00  0.00     0.155 C 
BRANCH  10  11
HETATM   11  N   UNL     1      48.420 -30.912  -1.199  1.00  0.00    -0.365 N 
HETATM   12  H   UNL     1      47.717 -31.643  -1.146  1.00  0.00     0.161 HD
BRANCH  11  13
HETATM   13  C   UNL     1      49.601 -31.266  -0.607  1.00  0.00     0.172 C 
HETATM   14  S   UNL     1      51.097 -30.960  -1.279  1.00  0.00    -0.041 SA
BRANCH  13  15
HETATM   15  N   UNL     1      49.522 -31.786   0.657  1.00  0.00    -0.333 N 
HETATM   16  H   UNL     1      49.118 -32.719   0.695  1.00  0.00     0.168 HD
BRANCH  15  17
HETATM   17  C   UNL     1      49.780 -31.183   1.909  1.00  0.00     0.035 A 
HETATM   18  C   UNL     1      50.564 -31.781   2.897  1.00  0.00     0.047 A 
HETATM   19  C   UNL     1      50.755 -31.171   4.144  1.00  0.00     0.041 A 
HETATM   20  C   UNL     1      50.208 -29.909   4.385  1.00  0.00     0.018 A 
HETATM   21  C   UNL     1      49.477 -29.273   3.378  1.00  0.00     0.003 A 
HETATM   22  C   UNL     1      49.265 -29.906   2.148  1.00  0.00     0.029 A 
BRANCH  19  23
HETATM   23  C   UNL     1      51.507 -31.945   5.162  1.00  0.00     0.293 C 
HETATM   24  O   UNL     1      51.306 -33.135   5.361  1.00  0.00    -0.259 OA
BRANCH  23  25
HETATM   25  O   UNL     1      52.404 -31.161   5.803  1.00  0.00    -0.323 OA
HETATM   26  C   UNL     1      52.925 -31.734   7.004  1.00  0.00     0.213 C 
ENDBRANCH  23  25
ENDBRANCH  19  23
ENDBRANCH  15  17
ENDBRANCH  13  15
ENDBRANCH  11  13
ENDBRANCH  10  11
ENDBRANCH   4  10
BRANCH   1  27
HETATM   27  C   UNL     1      44.927 -29.493   0.668  1.00  0.00     0.038 C 
HETATM   28  N   UNL     1      43.865 -29.738   1.515  1.00  0.00    -0.277 N 
HETATM   29  C   UNL     1      42.453 -29.533   1.280  1.00  0.00     0.179 C 
HETATM   30  N   UNL     1      44.229 -30.243   2.698  1.00  0.00    -0.172 NA
HETATM   31  C   UNL     1      45.524 -30.543   2.557  1.00  0.00     0.092 C 
HETATM   32  C   UNL     1      46.015 -30.047   1.324  1.00  0.00     0.061 C 
BRANCH  31  33
HETATM   33  C   UNL     1      46.258 -31.267   3.583  1.00  0.00     0.028 A 
HETATM   34  C   UNL     1      46.822 -32.529   3.322  1.00  0.00     0.080 A 
HETATM   35  C   UNL     1      47.527 -33.194   4.331  1.00  0.00     0.037 A 
HETATM   36  C   UNL     1      47.647 -32.622   5.600  1.00  0.00     0.003 A 
HETATM   37  C   UNL     1      47.077 -31.378   5.864  1.00  0.00     0.001 A 
HETATM   38  C   UNL     1      46.387 -30.700   4.859  1.00  0.00     0.017 A 
BRANCH  34  39
HETATM   39  O   UNL     1      46.725 -33.030   2.046  1.00  0.00    -0.355 OA
HETATM   40  C   UNL     1      47.246 -34.348   1.896  1.00  0.00     0.210 C 
ENDBRANCH  34  39
ENDBRANCH  31  33
ENDBRANCH   1  27
TORSDOF 10
ENDMDL
