MODEL 1
REMARK VINA RESULT:      -8.8      0.000      0.000
REMARK  2 active torsions:
REMARK  status: ('A' for Active; 'I' for Inactive)
REMARK    1  A    between atoms: C_3  and  C_4 
REMARK       I    between atoms: C_4  and  N_5 
REMARK    2  A    between atoms: N_5  and  N_6 
ROOT
HETATM    1  N   UNL     1      40.562 -16.002   1.757  1.00  0.00    -0.282 N 
HETATM    2  C   UNL     1      41.138 -15.811   2.940  1.00  0.00     0.127 C 
HETATM    3  C   UNL     1      42.185 -16.761   3.396  1.00  0.00     0.015 A 
HETATM    4  C   UNL     1      42.466 -16.851   4.773  1.00  0.00    -0.042 A 
HETATM    5  C   UNL     1      43.415 -17.765   5.249  1.00  0.00     0.008 A 
HETATM    6  C   UNL     1      44.122 -18.563   4.355  1.00  0.00     0.001 A 
HETATM    7  C   UNL     1      43.886 -18.454   2.987  1.00  0.00     0.001 A 
HETATM    8  C   UNL     1      42.927 -17.559   2.508  1.00  0.00     0.016 A 
HETATM    9  C   UNL     1      41.704 -15.971   5.731  1.00  0.00     0.069 C 
HETATM   10  C   UNL     1      41.373 -14.604   5.094  1.00  0.00     0.028 C 
HETATM   11  C   UNL     1      40.318 -13.884   5.943  1.00  0.00     0.038 C 
HETATM   12  C   UNL     1      42.608 -13.711   4.942  1.00  0.00     0.038 C 
HETATM   13  N   UNL     1      40.784 -14.809   3.742  1.00  0.00    -0.366 N 
HETATM   14  H   UNL     1      40.055 -14.186   3.435  1.00  0.00     0.162 HD
HETATM   15  H   UNL     1      40.788 -16.874   1.263  1.00  0.00     0.188 HD
ENDROOT
BRANCH   1  16
HETATM   16  N   UNL     1      39.673 -15.225   1.145  1.00  0.00    -0.264 N 
HETATM   17  C   UNL     1      40.191 -14.387   0.169  1.00  0.00     0.270 C 
HETATM   18  O   UNL     1      41.395 -14.378  -0.078  1.00  0.00    -0.266 OA
HETATM   19  H   UNL     1      38.711 -15.145   1.454  1.00  0.00     0.190 HD
BRANCH  17  20
HETATM   20  C   UNL     1      39.240 -13.468  -0.503  1.00  0.00     0.039 A 
HETATM   21  C   UNL     1      38.618 -13.750  -1.736  1.00  0.00    -0.046 A 
HETATM   22  C   UNL     1      38.895 -14.983  -2.552  1.00  0.00     0.049 C 
HETATM   23  C   UNL     1      37.699 -12.817  -2.247  1.00  0.00     0.007 A 
HETATM   24  C   UNL     1      37.442 -11.619  -1.576  1.00  0.00     0.001 A 
HETATM   25  C   UNL     1      38.098 -11.331  -0.384  1.00  0.00     0.001 A 
HETATM   26  C   UNL     1      38.996 -12.252   0.152  1.00  0.00     0.017 A 
ENDBRANCH  17  20
ENDBRANCH   1  16
TORSDOF 2
ENDMDL
MODEL 2
REMARK VINA RESULT:      -8.7      3.653      7.212
REMARK  2 active torsions:
REMARK  status: ('A' for Active; 'I' for Inactive)
REMARK    1  A    between atoms: C_3  and  C_4 
REMARK       I    between atoms: C_4  and  N_5 
REMARK    2  A    between atoms: N_5  and  N_6 
ROOT
HETATM    1  N   UNL     1      43.059 -15.050   5.680  1.00  0.00    -0.282 N 
HETATM    2  C   UNL     1      42.531 -13.873   5.361  1.00  0.00     0.127 C 
HETATM    3  C   UNL     1      42.920 -12.670   6.139  1.00  0.00     0.015 A 
HETATM    4  C   UNL     1      42.067 -11.549   6.127  1.00  0.00    -0.042 A 
HETATM    5  C   UNL     1      42.376 -10.410   6.882  1.00  0.00     0.008 A 
HETATM    6  C   UNL     1      43.557 -10.362   7.618  1.00  0.00     0.001 A 
HETATM    7  C   UNL     1      44.430 -11.445   7.604  1.00  0.00     0.001 A 
HETATM    8  C   UNL     1      44.118 -12.591   6.870  1.00  0.00     0.016 A 
HETATM    9  C   UNL     1      40.798 -11.607   5.315  1.00  0.00     0.069 C 
HETATM   10  C   UNL     1      40.990 -12.450   4.036  1.00  0.00     0.028 C 
HETATM   11  C   UNL     1      39.621 -12.777   3.427  1.00  0.00     0.038 C 
HETATM   12  C   UNL     1      41.862 -11.745   2.992  1.00  0.00     0.038 C 
HETATM   13  N   UNL     1      41.639 -13.746   4.380  1.00  0.00    -0.366 N 
HETATM   14  H   UNL     1      41.362 -14.571   3.875  1.00  0.00     0.162 HD
HETATM   15  H   UNL     1      43.627 -15.089   6.536  1.00  0.00     0.188 HD
ENDROOT
BRANCH   1  16
HETATM   16  N   UNL     1      42.899 -16.215   5.059  1.00  0.00    -0.264 N 
HETATM   17  C   UNL     1      44.001 -17.058   5.088  1.00  0.00     0.270 C 
HETATM   18  O   UNL     1      45.042 -16.713   5.644  1.00  0.00    -0.266 OA
HETATM   19  H   UNL     1      42.088 -16.426   4.491  1.00  0.00     0.190 HD
BRANCH  17  20
HETATM   20  C   UNL     1      43.882 -18.346   4.363  1.00  0.00     0.039 A 
HETATM   21  C   UNL     1      43.572 -18.448   2.992  1.00  0.00    -0.046 A 
HETATM   22  C   UNL     1      43.257 -17.268   2.115  1.00  0.00     0.049 C 
HETATM   23  C   UNL     1      43.534 -19.727   2.411  1.00  0.00     0.007 A 
HETATM   24  C   UNL     1      43.750 -20.873   3.180  1.00  0.00     0.001 A 
HETATM   25  C   UNL     1      44.009 -20.763   4.542  1.00  0.00     0.001 A 
HETATM   26  C   UNL     1      44.074 -19.503   5.134  1.00  0.00     0.017 A 
ENDBRANCH  17  20
ENDBRANCH   1  16
TORSDOF 2
ENDMDL
MODEL 3
REMARK VINA RESULT:      -8.5      1.682      7.131
REMARK  2 active torsions:
REMARK  status: ('A' for Active; 'I' for Inactive)
REMARK    1  A    between atoms: C_3  and  C_4 
REMARK       I    between atoms: C_4  and  N_5 
REMARK    2  A    between atoms: N_5  and  N_6 
ROOT
HETATM    1  N   UNL     1      41.471 -14.827   0.369  1.00  0.00    -0.282 N 
HETATM    2  C   UNL     1      40.713 -13.736   0.418  1.00  0.00     0.127 C 
HETATM    3  C   UNL     1      39.744 -13.479  -0.677  1.00  0.00     0.015 A 
HETATM    4  C   UNL     1      39.284 -12.163  -0.881  1.00  0.00    -0.042 A 
HETATM    5  C   UNL     1      38.402 -11.871  -1.930  1.00  0.00     0.008 A 
HETATM    6  C   UNL     1      37.938 -12.892  -2.755  1.00  0.00     0.001 A 
HETATM    7  C   UNL     1      38.350 -14.204  -2.538  1.00  0.00     0.001 A 
HETATM    8  C   UNL     1      39.244 -14.499  -1.506  1.00  0.00     0.016 A 
HETATM    9  C   UNL     1      39.782 -11.068   0.027  1.00  0.00     0.069 C 
HETATM   10  C   UNL     1      40.022 -11.593   1.458  1.00  0.00     0.028 C 
HETATM   11  C   UNL     1      40.844 -10.569   2.250  1.00  0.00     0.038 C 
HETATM   12  C   UNL     1      38.716 -11.890   2.202  1.00  0.00     0.038 C 
HETATM   13  N   UNL     1      40.818 -12.850   1.407  1.00  0.00    -0.366 N 
HETATM   14  H   UNL     1      41.497 -13.020   2.131  1.00  0.00     0.162 HD
HETATM   15  H   UNL     1      41.431 -15.384  -0.494  1.00  0.00     0.188 HD
ENDROOT
BRANCH   1  16
HETATM   16  N   UNL     1      42.331 -15.268   1.283  1.00  0.00    -0.264 N 
HETATM   17  C   UNL     1      41.804 -16.152   2.214  1.00  0.00     0.270 C 
HETATM   18  O   UNL     1      40.617 -16.471   2.177  1.00  0.00    -0.266 OA
HETATM   19  H   UNL     1      43.265 -14.891   1.382  1.00  0.00     0.190 HD
BRANCH  17  20
HETATM   20  C   UNL     1      42.717 -16.629   3.280  1.00  0.00     0.039 A 
HETATM   21  C   UNL     1      43.363 -17.881   3.255  1.00  0.00    -0.046 A 
HETATM   22  C   UNL     1      43.151 -18.912   2.181  1.00  0.00     0.049 C 
HETATM   23  C   UNL     1      44.243 -18.198   4.304  1.00  0.00     0.007 A 
HETATM   24  C   UNL     1      44.438 -17.316   5.370  1.00  0.00     0.001 A 
HETATM   25  C   UNL     1      43.759 -16.103   5.408  1.00  0.00     0.001 A 
HETATM   26  C   UNL     1      42.899 -15.759   4.366  1.00  0.00     0.017 A 
ENDBRANCH  17  20
ENDBRANCH   1  16
TORSDOF 2
ENDMDL
MODEL 4
REMARK VINA RESULT:      -8.2      4.134      7.609
REMARK  2 active torsions:
REMARK  status: ('A' for Active; 'I' for Inactive)
REMARK    1  A    between atoms: C_3  and  C_4 
REMARK       I    between atoms: C_4  and  N_5 
REMARK    2  A    between atoms: N_5  and  N_6 
ROOT
HETATM    1  N   UNL     1      43.451 -13.886   6.346  1.00  0.00    -0.282 N 
HETATM    2  C   UNL     1      42.939 -14.040   5.130  1.00  0.00     0.127 C 
HETATM    3  C   UNL     1      43.143 -15.326   4.416  1.00  0.00     0.015 A 
HETATM    4  C   UNL     1      43.020 -15.350   3.012  1.00  0.00    -0.042 A 
HETATM    5  C   UNL     1      43.247 -16.532   2.297  1.00  0.00     0.008 A 
HETATM    6  C   UNL     1      43.553 -17.709   2.976  1.00  0.00     0.001 A 
HETATM    7  C   UNL     1      43.634 -17.710   4.365  1.00  0.00     0.001 A 
HETATM    8  C   UNL     1      43.429 -16.529   5.083  1.00  0.00     0.016 A 
HETATM    9  C   UNL     1      42.675 -14.073   2.289  1.00  0.00     0.069 C 
HETATM   10  C   UNL     1      41.736 -13.186   3.135  1.00  0.00     0.028 C 
HETATM   11  C   UNL     1      41.688 -11.774   2.539  1.00  0.00     0.038 C 
HETATM   12  C   UNL     1      40.316 -13.754   3.227  1.00  0.00     0.038 C 
HETATM   13  N   UNL     1      42.272 -13.062   4.519  1.00  0.00    -0.366 N 
HETATM   14  H   UNL     1      42.162 -12.185   5.000  1.00  0.00     0.162 HD
HETATM   15  H   UNL     1      44.071 -14.632   6.689  1.00  0.00     0.188 HD
ENDROOT
BRANCH   1  16
HETATM   16  N   UNL     1      43.311 -12.851   7.169  1.00  0.00    -0.264 N 
HETATM   17  C   UNL     1      44.342 -11.924   7.136  1.00  0.00     0.270 C 
HETATM   18  O   UNL     1      45.311 -12.087   6.397  1.00  0.00    -0.266 OA
HETATM   19  H   UNL     1      42.579 -12.802   7.867  1.00  0.00     0.190 HD
BRANCH  17  20
HETATM   20  C   UNL     1      44.249 -10.780   8.075  1.00  0.00     0.039 A 
HETATM   21  C   UNL     1      43.250  -9.787   8.003  1.00  0.00    -0.046 A 
HETATM   22  C   UNL     1      42.203  -9.730   6.925  1.00  0.00     0.049 C 
HETATM   23  C   UNL     1      43.242  -8.779   8.981  1.00  0.00     0.007 A 
HETATM   24  C   UNL     1      44.224  -8.731   9.974  1.00  0.00     0.001 A 
HETATM   25  C   UNL     1      45.232  -9.689  10.007  1.00  0.00     0.001 A 
HETATM   26  C   UNL     1      45.246 -10.711   9.060  1.00  0.00     0.017 A 
ENDBRANCH  17  20
ENDBRANCH   1  16
TORSDOF 2
ENDMDL
MODEL 5
REMARK VINA RESULT:      -7.9      5.172      8.520
REMARK  2 active torsions:
REMARK  status: ('A' for Active; 'I' for Inactive)
REMARK    1  A    between atoms: C_3  and  C_4 
REMARK       I    between atoms: C_4  and  N_5 
REMARK    2  A    between atoms: N_5  and  N_6 
ROOT
HETATM    1  N   UNL     1      43.271 -12.417   7.195  1.00  0.00    -0.282 N 
HETATM    2  C   UNL     1      42.757 -12.961   6.098  1.00  0.00     0.127 C 
HETATM    3  C   UNL     1      43.174 -14.331   5.705  1.00  0.00     0.015 A 
HETATM    4  C   UNL     1      43.011 -14.732   4.364  1.00  0.00    -0.042 A 
HETATM    5  C   UNL     1      43.432 -16.000   3.944  1.00  0.00     0.008 A 
HETATM    6  C   UNL     1      43.976 -16.894   4.862  1.00  0.00     0.001 A 
HETATM    7  C   UNL     1      44.103 -16.527   6.199  1.00  0.00     0.001 A 
HETATM    8  C   UNL     1      43.704 -15.257   6.621  1.00  0.00     0.016 A 
HETATM    9  C   UNL     1      42.408 -13.761   3.382  1.00  0.00     0.069 C 
HETATM   10  C   UNL     1      41.348 -12.866   4.057  1.00  0.00     0.028 C 
HETATM   11  C   UNL     1      41.016 -11.682   3.141  1.00  0.00     0.038 C 
HETATM   12  C   UNL     1      40.064 -13.629   4.398  1.00  0.00     0.038 C 
HETATM   13  N   UNL     1      41.898 -12.302   5.322  1.00  0.00    -0.366 N 
HETATM   14  H   UNL     1      41.641 -11.365   5.582  1.00  0.00     0.162 HD
HETATM   15  H   UNL     1      44.031 -12.932   7.659  1.00  0.00     0.188 HD
ENDROOT
BRANCH   1  16
HETATM   16  N   UNL     1      42.966 -11.247   7.750  1.00  0.00    -0.264 N 
HETATM   17  C   UNL     1      43.980 -10.663   8.495  1.00  0.00     0.270 C 
HETATM   18  O   UNL     1      45.067 -11.222   8.626  1.00  0.00    -0.266 OA
HETATM   19  H   UNL     1      42.027 -10.869   7.746  1.00  0.00     0.190 HD
BRANCH  17  20
HETATM   20  C   UNL     1      43.665  -9.381   9.172  1.00  0.00     0.039 A 
HETATM   21  C   UNL     1      43.438  -9.264  10.558  1.00  0.00    -0.046 A 
HETATM   22  C   UNL     1      43.419 -10.430  11.506  1.00  0.00     0.049 C 
HETATM   23  C   UNL     1      43.194  -7.984  11.085  1.00  0.00     0.007 A 
HETATM   24  C   UNL     1      43.130  -6.863  10.255  1.00  0.00     0.001 A 
HETATM   25  C   UNL     1      43.309  -6.999   8.882  1.00  0.00     0.001 A 
HETATM   26  C   UNL     1      43.575  -8.255   8.340  1.00  0.00     0.017 A 
ENDBRANCH  17  20
ENDBRANCH   1  16
TORSDOF 2
ENDMDL
MODEL 6
REMARK VINA RESULT:      -7.9      4.250      7.763
REMARK  2 active torsions:
REMARK  status: ('A' for Active; 'I' for Inactive)
REMARK    1  A    between atoms: C_3  and  C_4 
REMARK       I    between atoms: C_4  and  N_5 
REMARK    2  A    between atoms: N_5  and  N_6 
ROOT
HETATM    1  N   UNL     1      42.733 -12.907   5.638  1.00  0.00    -0.282 N 
HETATM    2  C   UNL     1      43.077 -14.179   5.469  1.00  0.00     0.127 C 
HETATM    3  C   UNL     1      43.021 -14.769   4.107  1.00  0.00     0.015 A 
HETATM    4  C   UNL     1      42.934 -16.169   3.977  1.00  0.00    -0.042 A 
HETATM    5  C   UNL     1      42.835 -16.763   2.713  1.00  0.00     0.008 A 
HETATM    6  C   UNL     1      42.868 -15.972   1.568  1.00  0.00     0.001 A 
HETATM    7  C   UNL     1      42.998 -14.591   1.679  1.00  0.00     0.001 A 
HETATM    8  C   UNL     1      43.076 -13.991   2.938  1.00  0.00     0.016 A 
HETATM    9  C   UNL     1      42.914 -17.017   5.224  1.00  0.00     0.069 C 
HETATM   10  C   UNL     1      43.780 -16.393   6.339  1.00  0.00     0.028 C 
HETATM   11  C   UNL     1      43.464 -17.075   7.676  1.00  0.00     0.038 C 
HETATM   12  C   UNL     1      45.280 -16.501   6.049  1.00  0.00     0.038 C 
HETATM   13  N   UNL     1      43.443 -14.950   6.491  1.00  0.00    -0.366 N 
HETATM   14  H   UNL     1      43.453 -14.549   7.414  1.00  0.00     0.162 HD
HETATM   15  H   UNL     1      42.329 -12.421   4.827  1.00  0.00     0.188 HD
ENDROOT
BRANCH   1  16
HETATM   16  N   UNL     1      42.793 -12.183   6.752  1.00  0.00    -0.264 N 
HETATM   17  C   UNL     1      43.715 -11.146   6.736  1.00  0.00     0.270 C 
HETATM   18  O   UNL     1      44.421 -10.947   5.750  1.00  0.00    -0.266 OA
HETATM   19  H   UNL     1      42.306 -12.444   7.601  1.00  0.00     0.190 HD
BRANCH  17  20
HETATM   20  C   UNL     1      43.848 -10.346   7.978  1.00  0.00     0.039 A 
HETATM   21  C   UNL     1      42.881  -9.422   8.422  1.00  0.00    -0.046 A 
HETATM   22  C   UNL     1      41.632  -9.085   7.657  1.00  0.00     0.049 C 
HETATM   23  C   UNL     1      43.104  -8.759   9.641  1.00  0.00     0.007 A 
HETATM   24  C   UNL     1      44.274  -8.973  10.373  1.00  0.00     0.001 A 
HETATM   25  C   UNL     1      45.243  -9.852   9.901  1.00  0.00     0.001 A 
HETATM   26  C   UNL     1      45.033 -10.537   8.706  1.00  0.00     0.017 A 
ENDBRANCH  17  20
ENDBRANCH   1  16
TORSDOF 2
ENDMDL
MODEL 7
REMARK VINA RESULT:      -7.9      4.366      7.313
REMARK  2 active torsions:
REMARK  status: ('A' for Active; 'I' for Inactive)
REMARK    1  A    between atoms: C_3  and  C_4 
REMARK       I    between atoms: C_4  and  N_5 
REMARK    2  A    between atoms: N_5  and  N_6 
ROOT
HETATM    1  N   UNL     1      41.699 -13.708   4.597  1.00  0.00    -0.282 N 
HETATM    2  C   UNL     1      42.130 -12.727   5.383  1.00  0.00     0.127 C 
HETATM    3  C   UNL     1      41.152 -11.743   5.914  1.00  0.00     0.015 A 
HETATM    4  C   UNL     1      41.621 -10.486   6.345  1.00  0.00    -0.042 A 
HETATM    5  C   UNL     1      40.726  -9.514   6.811  1.00  0.00     0.008 A 
HETATM    6  C   UNL     1      39.367  -9.801   6.894  1.00  0.00     0.001 A 
HETATM    7  C   UNL     1      38.895 -11.054   6.512  1.00  0.00     0.001 A 
HETATM    8  C   UNL     1      39.779 -12.020   6.027  1.00  0.00     0.016 A 
HETATM    9  C   UNL     1      43.097 -10.192   6.264  1.00  0.00     0.069 C 
HETATM   10  C   UNL     1      43.936 -11.462   6.519  1.00  0.00     0.028 C 
HETATM   11  C   UNL     1      45.387 -11.213   6.092  1.00  0.00     0.038 C 
HETATM   12  C   UNL     1      43.901 -11.905   7.985  1.00  0.00     0.038 C 
HETATM   13  N   UNL     1      43.419 -12.583   5.687  1.00  0.00    -0.366 N 
HETATM   14  H   UNL     1      44.077 -13.239   5.301  1.00  0.00     0.162 HD
HETATM   15  H   UNL     1      40.718 -13.667   4.296  1.00  0.00     0.188 HD
ENDROOT
BRANCH   1  16
HETATM   16  N   UNL     1      42.399 -14.721   4.094  1.00  0.00    -0.264 N 
HETATM   17  C   UNL     1      41.916 -15.984   4.401  1.00  0.00     0.270 C 
HETATM   18  O   UNL     1      40.917 -16.122   5.105  1.00  0.00    -0.266 OA
HETATM   19  H   UNL     1      43.293 -14.594   3.634  1.00  0.00     0.190 HD
BRANCH  17  20
HETATM   20  C   UNL     1      42.696 -17.143   3.902  1.00  0.00     0.039 A 
HETATM   21  C   UNL     1      43.751 -17.744   4.619  1.00  0.00    -0.046 A 
HETATM   22  C   UNL     1      44.257 -17.241   5.942  1.00  0.00     0.049 C 
HETATM   23  C   UNL     1      44.382 -18.867   4.057  1.00  0.00     0.007 A 
HETATM   24  C   UNL     1      44.008 -19.349   2.800  1.00  0.00     0.001 A 
HETATM   25  C   UNL     1      42.997 -18.718   2.082  1.00  0.00     0.001 A 
HETATM   26  C   UNL     1      42.343 -17.617   2.630  1.00  0.00     0.017 A 
ENDBRANCH  17  20
ENDBRANCH   1  16
TORSDOF 2
ENDMDL
MODEL 8
REMARK VINA RESULT:      -7.9      3.304      6.437
REMARK  2 active torsions:
REMARK  status: ('A' for Active; 'I' for Inactive)
REMARK    1  A    between atoms: C_3  and  C_4 
REMARK       I    between atoms: C_4  and  N_5 
REMARK    2  A    between atoms: N_5  and  N_6 
ROOT
HETATM    1  N   UNL     1      42.777 -14.125   5.392  1.00  0.00    -0.282 N 
HETATM    2  C   UNL     1      42.471 -14.769   4.270  1.00  0.00     0.127 C 
HETATM    3  C   UNL     1      43.008 -16.136   4.051  1.00  0.00     0.015 A 
HETATM    4  C   UNL     1      43.082 -16.633   2.735  1.00  0.00    -0.042 A 
HETATM    5  C   UNL     1      43.622 -17.900   2.481  1.00  0.00     0.008 A 
HETATM    6  C   UNL     1      44.050 -18.699   3.538  1.00  0.00     0.001 A 
HETATM    7  C   UNL     1      43.942 -18.239   4.847  1.00  0.00     0.001 A 
HETATM    8  C   UNL     1      43.423 -16.968   5.105  1.00  0.00     0.016 A 
HETATM    9  C   UNL     1      42.603 -15.764   1.600  1.00  0.00     0.069 C 
HETATM   10  C   UNL     1      41.409 -14.887   2.032  1.00  0.00     0.028 C 
HETATM   11  C   UNL     1      41.176 -13.787   0.989  1.00  0.00     0.038 C 
HETATM   12  C   UNL     1      40.122 -15.697   2.220  1.00  0.00     0.038 C 
HETATM   13  N   UNL     1      41.721 -14.211   3.322  1.00  0.00    -0.366 N 
HETATM   14  H   UNL     1      41.383 -13.274   3.468  1.00  0.00     0.162 HD
HETATM   15  H   UNL     1      43.473 -14.565   6.007  1.00  0.00     0.188 HD
ENDROOT
BRANCH   1  16
HETATM   16  N   UNL     1      42.334 -12.940   5.803  1.00  0.00    -0.264 N 
HETATM   17  C   UNL     1      43.269 -11.916   5.774  1.00  0.00     0.270 C 
HETATM   18  O   UNL     1      44.422 -12.127   5.404  1.00  0.00    -0.266 OA
HETATM   19  H   UNL     1      41.425 -12.815   6.233  1.00  0.00     0.190 HD
BRANCH  17  20
HETATM   20  C   UNL     1      42.830 -10.590   6.272  1.00  0.00     0.039 A 
HETATM   21  C   UNL     1      43.236 -10.043   7.506  1.00  0.00    -0.046 A 
HETATM   22  C   UNL     1      44.105 -10.766   8.497  1.00  0.00     0.049 C 
HETATM   23  C   UNL     1      42.787  -8.755   7.844  1.00  0.00     0.007 A 
HETATM   24  C   UNL     1      41.923  -8.051   7.002  1.00  0.00     0.001 A 
HETATM   25  C   UNL     1      41.491  -8.620   5.808  1.00  0.00     0.001 A 
HETATM   26  C   UNL     1      41.943  -9.887   5.443  1.00  0.00     0.017 A 
ENDBRANCH  17  20
ENDBRANCH   1  16
TORSDOF 2
ENDMDL
MODEL 9
REMARK VINA RESULT:      -7.8      1.506      3.752
REMARK  2 active torsions:
REMARK  status: ('A' for Active; 'I' for Inactive)
REMARK    1  A    between atoms: C_3  and  C_4 
REMARK       I    between atoms: C_4  and  N_5 
REMARK    2  A    between atoms: N_5  and  N_6 
ROOT
HETATM    1  N   UNL     1      40.253 -12.992   2.397  1.00  0.00    -0.282 N 
HETATM    2  C   UNL     1      40.946 -13.747   3.244  1.00  0.00     0.127 C 
HETATM    3  C   UNL     1      41.643 -13.101   4.385  1.00  0.00     0.015 A 
HETATM    4  C   UNL     1      42.715 -13.780   4.998  1.00  0.00    -0.042 A 
HETATM    5  C   UNL     1      43.426 -13.188   6.048  1.00  0.00     0.008 A 
HETATM    6  C   UNL     1      43.049 -11.936   6.526  1.00  0.00     0.001 A 
HETATM    7  C   UNL     1      41.966 -11.272   5.959  1.00  0.00     0.001 A 
HETATM    8  C   UNL     1      41.264 -11.848   4.898  1.00  0.00     0.016 A 
HETATM    9  C   UNL     1      43.105 -15.142   4.481  1.00  0.00     0.069 C 
HETATM   10  C   UNL     1      41.873 -15.926   3.983  1.00  0.00     0.028 C 
HETATM   11  C   UNL     1      42.332 -17.135   3.158  1.00  0.00     0.038 C 
HETATM   12  C   UNL     1      40.972 -16.398   5.129  1.00  0.00     0.038 C 
HETATM   13  N   UNL     1      41.058 -15.064   3.082  1.00  0.00    -0.366 N 
HETATM   14  H   UNL     1      40.603 -15.489   2.291  1.00  0.00     0.162 HD
HETATM   15  H   UNL     1      40.333 -11.973   2.509  1.00  0.00     0.188 HD
ENDROOT
BRANCH   1  16
HETATM   16  N   UNL     1      39.503 -13.388   1.373  1.00  0.00    -0.264 N 
HETATM   17  C   UNL     1      39.961 -13.004   0.121  1.00  0.00     0.270 C 
HETATM   18  O   UNL     1      40.983 -12.331   0.004  1.00  0.00    -0.266 OA
HETATM   19  H   UNL     1      38.595 -13.820   1.494  1.00  0.00     0.190 HD
BRANCH  17  20
HETATM   20  C   UNL     1      39.126 -13.382  -1.046  1.00  0.00     0.039 A 
HETATM   21  C   UNL     1      38.043 -12.612  -1.515  1.00  0.00    -0.046 A 
HETATM   22  C   UNL     1      37.559 -11.353  -0.851  1.00  0.00     0.049 C 
HETATM   23  C   UNL     1      37.359 -13.055  -2.660  1.00  0.00     0.007 A 
HETATM   24  C   UNL     1      37.710 -14.251  -3.291  1.00  0.00     0.001 A 
HETATM   25  C   UNL     1      38.751 -15.026  -2.790  1.00  0.00     0.001 A 
HETATM   26  C   UNL     1      39.458 -14.594  -1.670  1.00  0.00     0.017 A 
ENDBRANCH  17  20
ENDBRANCH   1  16
TORSDOF 2
ENDMDL
MODEL 10
REMARK VINA RESULT:      -7.7      4.053      7.924
REMARK  2 active torsions:
REMARK  status: ('A' for Active; 'I' for Inactive)
REMARK    1  A    between atoms: C_3  and  C_4 
REMARK       I    between atoms: C_4  and  N_5 
REMARK    2  A    between atoms: N_5  and  N_6 
ROOT
HETATM    1  N   UNL     1      42.006 -12.586   5.683  1.00  0.00    -0.282 N 
HETATM    2  C   UNL     1      41.988 -13.824   5.200  1.00  0.00     0.127 C 
HETATM    3  C   UNL     1      41.315 -14.085   3.903  1.00  0.00     0.015 A 
HETATM    4  C   UNL     1      40.894 -15.397   3.608  1.00  0.00    -0.042 A 
HETATM    5  C   UNL     1      40.217 -15.677   2.415  1.00  0.00     0.008 A 
HETATM    6  C   UNL     1      39.993 -14.664   1.487  1.00  0.00     0.001 A 
HETATM    7  C   UNL     1      40.441 -13.372   1.744  1.00  0.00     0.001 A 
HETATM    8  C   UNL     1      41.100 -13.082   2.942  1.00  0.00     0.016 A 
HETATM    9  C   UNL     1      41.155 -16.489   4.615  1.00  0.00     0.069 C 
HETATM   10  C   UNL     1      42.479 -16.250   5.370  1.00  0.00     0.028 C 
HETATM   11  C   UNL     1      42.539 -17.162   6.602  1.00  0.00     0.038 C 
HETATM   12  C   UNL     1      43.710 -16.492   4.491  1.00  0.00     0.038 C 
HETATM   13  N   UNL     1      42.532 -14.845   5.861  1.00  0.00    -0.366 N 
HETATM   14  H   UNL     1      42.964 -14.662   6.751  1.00  0.00     0.162 HD
HETATM   15  H   UNL     1      41.444 -11.884   5.186  1.00  0.00     0.188 HD
ENDROOT
BRANCH   1  16
HETATM   16  N   UNL     1      42.620 -12.142   6.776  1.00  0.00    -0.264 N 
HETATM   17  C   UNL     1      42.922 -10.788   6.777  1.00  0.00     0.270 C 
HETATM   18  O   UNL     1      42.641 -10.080   5.812  1.00  0.00    -0.266 OA
HETATM   19  H   UNL     1      42.966 -12.762   7.499  1.00  0.00     0.190 HD
BRANCH  17  20
HETATM   20  C   UNL     1      43.653 -10.263   7.956  1.00  0.00     0.039 A 
HETATM   21  C   UNL     1      45.054 -10.317   8.096  1.00  0.00    -0.046 A 
HETATM   22  C   UNL     1      45.971 -10.974   7.102  1.00  0.00     0.049 C 
HETATM   23  C   UNL     1      45.631  -9.741   9.241  1.00  0.00     0.007 A 
HETATM   24  C   UNL     1      44.836  -9.171  10.238  1.00  0.00     0.001 A 
HETATM   25  C   UNL     1      43.451  -9.166  10.111  1.00  0.00     0.001 A 
HETATM   26  C   UNL     1      42.859  -9.711   8.973  1.00  0.00     0.017 A 
ENDBRANCH  17  20
ENDBRANCH   1  16
TORSDOF 2
ENDMDL
