MODEL 1
REMARK VINA RESULT:      -7.3      0.000      0.000
REMARK  5 active torsions:
REMARK  status: ('A' for Active; 'I' for Inactive)
REMARK    1  A    between atoms: C_8  and  C_9 
REMARK    2  A    between atoms: C_11  and  O_12 
REMARK    3  A    between atoms: C_14  and  O_15 
REMARK    4  A    between atoms: C_18  and  C_19 
REMARK    5  A    between atoms: C_22  and  O_23 
ROOT
HETATM    1  C   UNL     1      43.811 -18.163   1.898  1.00  0.00     0.070 C 
HETATM    2  C   UNL     1      43.657 -18.357   3.358  1.00  0.00     0.033 A 
HETATM    3  N   UNL     1      43.814 -19.590   3.936  1.00  0.00    -0.282 N 
HETATM    4  H   UNL     1      44.018 -20.472   3.479  1.00  0.00     0.189 HD
HETATM    5  N   UNL     1      43.733 -19.576   5.275  1.00  0.00    -0.179 NA
HETATM    6  C   UNL     1      43.448 -18.304   5.558  1.00  0.00     0.066 A 
HETATM    7  C   UNL     1      43.355 -17.492   4.395  1.00  0.00     0.001 A 
HETATM    8  C   UNL     1      43.135 -16.007   4.468  1.00  0.00     0.070 C 
HETATM    9  C   UNL     1      42.734 -15.529   5.891  1.00  0.00     0.102 C 
HETATM   10  C   UNL     1      43.513 -16.267   7.019  1.00  0.00     0.071 C 
HETATM   11  C   UNL     1      45.013 -15.919   6.965  1.00  0.00     0.047 C 
HETATM   12  C   UNL     1      43.312 -17.806   6.954  1.00  0.00     0.100 C 
ENDROOT
BRANCH   8  13
HETATM   13  C   UNL     1      42.195 -15.531   3.369  1.00  0.00    -0.046 A 
HETATM   14  C   UNL     1      42.401 -14.355   2.620  1.00  0.00     0.047 A 
HETATM   15  C   UNL     1      41.511 -13.989   1.608  1.00  0.00     0.101 A 
HETATM   16  C   UNL     1      40.455 -14.841   1.284  1.00  0.00     0.099 A 
HETATM   17  C   UNL     1      40.240 -16.016   1.987  1.00  0.00     0.040 A 
HETATM   18  C   UNL     1      41.102 -16.354   3.031  1.00  0.00     0.011 A 
BRANCH  15  19
HETATM   19  O   UNL     1      41.610 -12.847   0.854  1.00  0.00    -0.353 OA
HETATM   20  C   UNL     1      41.433 -11.643   1.599  1.00  0.00     0.210 C 
ENDBRANCH  15  19
BRANCH  16  21
HETATM   21  O   UNL     1      39.604 -14.527   0.262  1.00  0.00    -0.358 OA
HETATM   22  H   UNL     1      39.498 -15.358  -0.240  1.00  0.00     0.218 HD
ENDBRANCH  16  21
ENDBRANCH   8  13
BRANCH   9  23
HETATM   23  C   UNL     1      41.229 -15.645   6.151  1.00  0.00     0.131 C 
HETATM   24  C   UNL     1      40.450 -14.353   6.204  1.00  0.00     0.091 C 
HETATM   25  O   UNL     1      40.662 -16.726   6.321  1.00  0.00    -0.298 OA
ENDBRANCH   9  23
BRANCH  10  26
HETATM   26  O   UNL     1      43.048 -15.761   8.283  1.00  0.00    -0.389 OA
HETATM   27  H   UNL     1      42.551 -14.939   8.115  1.00  0.00     0.210 HD
ENDBRANCH  10  26
TORSDOF 5
ENDMDL
MODEL 2
REMARK VINA RESULT:      -7.2      1.950      2.375
REMARK  5 active torsions:
REMARK  status: ('A' for Active; 'I' for Inactive)
REMARK    1  A    between atoms: C_8  and  C_9 
REMARK    2  A    between atoms: C_11  and  O_12 
REMARK    3  A    between atoms: C_14  and  O_15 
REMARK    4  A    between atoms: C_18  and  C_19 
REMARK    5  A    between atoms: C_22  and  O_23 
ROOT
HETATM    1  C   UNL     1      43.527 -17.288   2.678  1.00  0.00     0.070 C 
HETATM    2  C   UNL     1      43.323 -16.736   4.037  1.00  0.00     0.033 A 
HETATM    3  N   UNL     1      43.554 -17.493   5.157  1.00  0.00    -0.282 N 
HETATM    4  H   UNL     1      43.849 -18.462   5.207  1.00  0.00     0.189 HD
HETATM    5  N   UNL     1      43.411 -16.816   6.308  1.00  0.00    -0.179 NA
HETATM    6  C   UNL     1      43.011 -15.607   5.912  1.00  0.00     0.066 A 
HETATM    7  C   UNL     1      42.905 -15.501   4.499  1.00  0.00     0.001 A 
HETATM    8  C   UNL     1      42.561 -14.207   3.814  1.00  0.00     0.070 C 
HETATM    9  C   UNL     1      42.059 -13.120   4.803  1.00  0.00     0.102 C 
HETATM   10  C   UNL     1      42.844 -13.116   6.148  1.00  0.00     0.071 C 
HETATM   11  C   UNL     1      44.311 -12.705   5.923  1.00  0.00     0.047 C 
HETATM   12  C   UNL     1      42.772 -14.491   6.868  1.00  0.00     0.100 C 
ENDROOT
BRANCH   8  13
HETATM   13  C   UNL     1      41.637 -14.437   2.627  1.00  0.00    -0.046 A 
HETATM   14  C   UNL     1      41.687 -13.680   1.439  1.00  0.00     0.047 A 
HETATM   15  C   UNL     1      40.824 -13.960   0.377  1.00  0.00     0.101 A 
HETATM   16  C   UNL     1      39.961 -15.053   0.467  1.00  0.00     0.099 A 
HETATM   17  C   UNL     1      39.904 -15.829   1.613  1.00  0.00     0.040 A 
HETATM   18  C   UNL     1      40.732 -15.517   2.691  1.00  0.00     0.011 A 
BRANCH  15  19
HETATM   19  O   UNL     1      40.777 -13.256  -0.800  1.00  0.00    -0.353 OA
HETATM   20  C   UNL     1      40.804 -11.840  -0.629  1.00  0.00     0.210 C 
ENDBRANCH  15  19
BRANCH  16  21
HETATM   21  O   UNL     1      39.146 -15.375  -0.582  1.00  0.00    -0.358 OA
HETATM   22  H   UNL     1      38.248 -15.415  -0.197  1.00  0.00     0.218 HD
ENDBRANCH  16  21
ENDBRANCH   8  13
BRANCH   9  23
HETATM   23  C   UNL     1      40.558 -13.229   5.089  1.00  0.00     0.131 C 
HETATM   24  C   UNL     1      39.660 -12.250   4.374  1.00  0.00     0.091 C 
HETATM   25  O   UNL     1      40.086 -14.059   5.868  1.00  0.00    -0.298 OA
ENDBRANCH   9  23
BRANCH  10  26
HETATM   26  O   UNL     1      42.283 -12.090   6.986  1.00  0.00    -0.389 OA
HETATM   27  H   UNL     1      43.009 -11.508   7.278  1.00  0.00     0.210 HD
ENDBRANCH  10  26
TORSDOF 5
ENDMDL
MODEL 3
REMARK VINA RESULT:      -6.9      2.518      5.360
REMARK  5 active torsions:
REMARK  status: ('A' for Active; 'I' for Inactive)
REMARK    1  A    between atoms: C_8  and  C_9 
REMARK    2  A    between atoms: C_11  and  O_12 
REMARK    3  A    between atoms: C_14  and  O_15 
REMARK    4  A    between atoms: C_18  and  C_19 
REMARK    5  A    between atoms: C_22  and  O_23 
ROOT
HETATM    1  C   UNL     1      41.606 -16.046   6.862  1.00  0.00     0.070 C 
HETATM    2  C   UNL     1      42.066 -16.238   5.467  1.00  0.00     0.033 A 
HETATM    3  N   UNL     1      42.921 -17.254   5.130  1.00  0.00    -0.282 N 
HETATM    4  H   UNL     1      43.342 -17.946   5.741  1.00  0.00     0.189 HD
HETATM    5  N   UNL     1      43.166 -17.344   3.813  1.00  0.00    -0.179 NA
HETATM    6  C   UNL     1      42.499 -16.310   3.301  1.00  0.00     0.066 A 
HETATM    7  C   UNL     1      41.812 -15.555   4.290  1.00  0.00     0.001 A 
HETATM    8  C   UNL     1      40.918 -14.398   3.942  1.00  0.00     0.070 C 
HETATM    9  C   UNL     1      41.063 -13.951   2.462  1.00  0.00     0.102 C 
HETATM   10  C   UNL     1      41.221 -15.150   1.481  1.00  0.00     0.071 C 
HETATM   11  C   UNL     1      39.935 -15.998   1.444  1.00  0.00     0.047 C 
HETATM   12  C   UNL     1      42.445 -16.038   1.838  1.00  0.00     0.100 C 
ENDROOT
BRANCH   8  13
HETATM   13  C   UNL     1      41.061 -13.264   4.948  1.00  0.00    -0.046 A 
HETATM   14  C   UNL     1      42.301 -12.795   5.425  1.00  0.00     0.047 A 
HETATM   15  C   UNL     1      42.362 -11.733   6.330  1.00  0.00     0.101 A 
HETATM   16  C   UNL     1      41.185 -11.080   6.699  1.00  0.00     0.099 A 
HETATM   17  C   UNL     1      39.952 -11.505   6.229  1.00  0.00     0.040 A 
HETATM   18  C   UNL     1      39.891 -12.598   5.364  1.00  0.00     0.011 A 
BRANCH  15  19
HETATM   19  O   UNL     1      43.517 -11.233   6.875  1.00  0.00    -0.353 OA
HETATM   20  C   UNL     1      44.602 -12.161   6.885  1.00  0.00     0.210 C 
ENDBRANCH  15  19
BRANCH  16  21
HETATM   21  O   UNL     1      41.228 -10.006   7.543  1.00  0.00    -0.358 OA
HETATM   22  H   UNL     1      40.948  -9.247   6.995  1.00  0.00     0.218 HD
ENDBRANCH  16  21
ENDBRANCH   8  13
BRANCH   9  23
HETATM   23  C   UNL     1      42.219 -12.967   2.253  1.00  0.00     0.131 C 
HETATM   24  C   UNL     1      41.842 -11.540   1.938  1.00  0.00     0.091 C 
HETATM   25  O   UNL     1      43.402 -13.302   2.323  1.00  0.00    -0.298 OA
ENDBRANCH   9  23
BRANCH  10  26
HETATM   26  O   UNL     1      41.368 -14.619   0.151  1.00  0.00    -0.389 OA
HETATM   27  H   UNL     1      40.723 -13.895   0.043  1.00  0.00     0.210 HD
ENDBRANCH  10  26
TORSDOF 5
ENDMDL
MODEL 4
REMARK VINA RESULT:      -6.9      3.008      5.992
REMARK  5 active torsions:
REMARK  status: ('A' for Active; 'I' for Inactive)
REMARK    1  A    between atoms: C_8  and  C_9 
REMARK    2  A    between atoms: C_11  and  O_12 
REMARK    3  A    between atoms: C_14  and  O_15 
REMARK    4  A    between atoms: C_18  and  C_19 
REMARK    5  A    between atoms: C_22  and  O_23 
ROOT
HETATM    1  C   UNL     1      40.216 -16.029   2.038  1.00  0.00     0.070 C 
HETATM    2  C   UNL     1      40.736 -14.687   1.686  1.00  0.00     0.033 A 
HETATM    3  N   UNL     1      40.949 -14.324   0.382  1.00  0.00    -0.282 N 
HETATM    4  H   UNL     1      40.815 -14.884  -0.453  1.00  0.00     0.189 HD
HETATM    5  N   UNL     1      41.333 -13.047   0.230  1.00  0.00    -0.179 NA
HETATM    6  C   UNL     1      41.433 -12.600   1.482  1.00  0.00     0.066 A 
HETATM    7  C   UNL     1      41.102 -13.591   2.446  1.00  0.00     0.001 A 
HETATM    8  C   UNL     1      41.052 -13.294   3.919  1.00  0.00     0.070 C 
HETATM    9  C   UNL     1      41.673 -11.916   4.275  1.00  0.00     0.102 C 
HETATM   10  C   UNL     1      41.328 -10.809   3.235  1.00  0.00     0.071 C 
HETATM   11  C   UNL     1      39.818 -10.503   3.246  1.00  0.00     0.047 C 
HETATM   12  C   UNL     1      41.792 -11.191   1.803  1.00  0.00     0.100 C 
ENDROOT
BRANCH   8  13
HETATM   13  C   UNL     1      41.607 -14.452   4.737  1.00  0.00    -0.046 A 
HETATM   14  C   UNL     1      42.719 -15.224   4.344  1.00  0.00     0.047 A 
HETATM   15  C   UNL     1      43.191 -16.259   5.156  1.00  0.00     0.101 A 
HETATM   16  C   UNL     1      42.603 -16.473   6.403  1.00  0.00     0.099 A 
HETATM   17  C   UNL     1      41.522 -15.716   6.826  1.00  0.00     0.040 A 
HETATM   18  C   UNL     1      41.021 -14.716   5.992  1.00  0.00     0.011 A 
BRANCH  15  19
HETATM   19  O   UNL     1      44.241 -17.084   4.841  1.00  0.00    -0.353 OA
HETATM   20  C   UNL     1      43.913 -18.104   3.898  1.00  0.00     0.210 C 
ENDBRANCH  15  19
BRANCH  16  21
HETATM   21  O   UNL     1      43.084 -17.446   7.233  1.00  0.00    -0.358 OA
HETATM   22  H   UNL     1      42.622 -17.301   8.082  1.00  0.00     0.218 HD
ENDBRANCH  16  21
ENDBRANCH   8  13
BRANCH   9  23
HETATM   23  C   UNL     1      43.193 -11.983   4.461  1.00  0.00     0.131 C 
HETATM   24  C   UNL     1      43.699 -11.992   5.882  1.00  0.00     0.091 C 
HETATM   25  O   UNL     1      43.980 -12.017   3.514  1.00  0.00    -0.298 OA
ENDBRANCH   9  23
BRANCH  10  26
HETATM   26  O   UNL     1      41.968  -9.591   3.654  1.00  0.00    -0.389 OA
HETATM   27  H   UNL     1      42.891  -9.800   3.887  1.00  0.00     0.210 HD
ENDBRANCH  10  26
TORSDOF 5
ENDMDL
MODEL 5
REMARK VINA RESULT:      -6.9      2.625      5.389
REMARK  5 active torsions:
REMARK  status: ('A' for Active; 'I' for Inactive)
REMARK    1  A    between atoms: C_8  and  C_9 
REMARK    2  A    between atoms: C_11  and  O_12 
REMARK    3  A    between atoms: C_14  and  O_15 
REMARK    4  A    between atoms: C_18  and  C_19 
REMARK    5  A    between atoms: C_22  and  O_23 
ROOT
HETATM    1  C   UNL     1      45.008 -16.297   6.436  1.00  0.00     0.070 C 
HETATM    2  C   UNL     1      43.835 -15.416   6.228  1.00  0.00     0.033 A 
HETATM    3  N   UNL     1      43.288 -14.700   7.261  1.00  0.00    -0.282 N 
HETATM    4  H   UNL     1      43.571 -14.692   8.235  1.00  0.00     0.189 HD
HETATM    5  N   UNL     1      42.292 -13.883   6.887  1.00  0.00    -0.179 NA
HETATM    6  C   UNL     1      42.154 -14.134   5.584  1.00  0.00     0.066 A 
HETATM    7  C   UNL     1      43.073 -15.111   5.115  1.00  0.00     0.001 A 
HETATM    8  C   UNL     1      43.169 -15.491   3.664  1.00  0.00     0.070 C 
HETATM    9  C   UNL     1      41.990 -14.936   2.818  1.00  0.00     0.102 C 
HETATM   10  C   UNL     1      41.578 -13.493   3.229  1.00  0.00     0.071 C 
HETATM   11  C   UNL     1      42.707 -12.492   2.917  1.00  0.00     0.047 C 
HETATM   12  C   UNL     1      41.177 -13.406   4.728  1.00  0.00     0.100 C 
ENDROOT
BRANCH   8  13
HETATM   13  C   UNL     1      43.400 -16.987   3.496  1.00  0.00    -0.046 A 
HETATM   14  C   UNL     1      43.536 -17.883   4.576  1.00  0.00     0.047 A 
HETATM   15  C   UNL     1      43.722 -19.249   4.351  1.00  0.00     0.101 A 
HETATM   16  C   UNL     1      43.691 -19.737   3.044  1.00  0.00     0.099 A 
HETATM   17  C   UNL     1      43.538 -18.884   1.963  1.00  0.00     0.040 A 
HETATM   18  C   UNL     1      43.402 -17.514   2.188  1.00  0.00     0.011 A 
BRANCH  15  19
HETATM   19  O   UNL     1      43.898 -20.187   5.335  1.00  0.00    -0.353 OA
HETATM   20  C   UNL     1      43.447 -19.769   6.622  1.00  0.00     0.210 C 
ENDBRANCH  15  19
BRANCH  16  21
HETATM   21  O   UNL     1      43.820 -21.077   2.806  1.00  0.00    -0.358 OA
HETATM   22  H   UNL     1      44.243 -21.135   1.927  1.00  0.00     0.218 HD
ENDBRANCH  16  21
ENDBRANCH   8  13
BRANCH   9  23
HETATM   23  C   UNL     1      40.759 -15.848   2.851  1.00  0.00     0.131 C 
HETATM   24  C   UNL     1      40.078 -16.112   1.531  1.00  0.00     0.091 C 
HETATM   25  O   UNL     1      40.323 -16.342   3.892  1.00  0.00    -0.298 OA
ENDBRANCH   9  23
BRANCH  10  26
HETATM   26  O   UNL     1      40.472 -13.094   2.399  1.00  0.00    -0.389 OA
HETATM   27  H   UNL     1      39.704 -12.930   2.977  1.00  0.00     0.210 HD
ENDBRANCH  10  26
TORSDOF 5
ENDMDL
MODEL 6
REMARK VINA RESULT:      -6.8      3.304      6.562
REMARK  5 active torsions:
REMARK  status: ('A' for Active; 'I' for Inactive)
REMARK    1  A    between atoms: C_8  and  C_9 
REMARK    2  A    between atoms: C_11  and  O_12 
REMARK    3  A    between atoms: C_14  and  O_15 
REMARK    4  A    between atoms: C_18  and  C_19 
REMARK    5  A    between atoms: C_22  and  O_23 
ROOT
HETATM    1  C   UNL     1      44.376 -11.769   3.732  1.00  0.00     0.070 C 
HETATM    2  C   UNL     1      43.027 -11.421   3.231  1.00  0.00     0.033 A 
HETATM    3  N   UNL     1      42.448 -10.212   3.519  1.00  0.00    -0.282 N 
HETATM    4  H   UNL     1      42.820  -9.460   4.087  1.00  0.00     0.189 HD
HETATM    5  N   UNL     1      41.266 -10.019   2.912  1.00  0.00    -0.179 NA
HETATM    6  C   UNL     1      41.052 -11.168   2.270  1.00  0.00     0.066 A 
HETATM    7  C   UNL     1      42.106 -12.103   2.455  1.00  0.00     0.001 A 
HETATM    8  C   UNL     1      42.132 -13.433   1.755  1.00  0.00     0.070 C 
HETATM    9  C   UNL     1      40.781 -13.778   1.070  1.00  0.00     0.102 C 
HETATM   10  C   UNL     1      40.112 -12.544   0.396  1.00  0.00     0.071 C 
HETATM   11  C   UNL     1      40.962 -12.041  -0.787  1.00  0.00     0.047 C 
HETATM   12  C   UNL     1      39.859 -11.393   1.409  1.00  0.00     0.100 C 
ENDROOT
BRANCH   8  13
HETATM   13  C   UNL     1      42.660 -14.531   2.668  1.00  0.00    -0.046 A 
HETATM   14  C   UNL     1      42.512 -14.520   4.069  1.00  0.00     0.047 A 
HETATM   15  C   UNL     1      43.001 -15.573   4.846  1.00  0.00     0.101 A 
HETATM   16  C   UNL     1      43.568 -16.682   4.217  1.00  0.00     0.099 A 
HETATM   17  C   UNL     1      43.707 -16.732   2.839  1.00  0.00     0.040 A 
HETATM   18  C   UNL     1      43.263 -15.656   2.069  1.00  0.00     0.011 A 
BRANCH  15  19
HETATM   19  O   UNL     1      42.934 -15.632   6.215  1.00  0.00    -0.353 OA
HETATM   20  C   UNL     1      41.612 -15.799   6.725  1.00  0.00     0.210 C 
ENDBRANCH  15  19
BRANCH  16  21
HETATM   21  O   UNL     1      44.004 -17.746   4.956  1.00  0.00    -0.358 OA
HETATM   22  H   UNL     1      43.189 -18.199   5.247  1.00  0.00     0.218 HD
ENDBRANCH  16  21
ENDBRANCH   8  13
BRANCH   9  23
HETATM   23  C   UNL     1      39.784 -14.437   2.029  1.00  0.00     0.131 C 
HETATM   24  C   UNL     1      39.660 -15.938   1.947  1.00  0.00     0.091 C 
HETATM   25  O   UNL     1      39.101 -13.794   2.827  1.00  0.00    -0.298 OA
ENDBRANCH   9  23
BRANCH  10  26
HETATM   26  O   UNL     1      38.868 -12.975  -0.183  1.00  0.00    -0.389 OA
HETATM   27  H   UNL     1      38.198 -12.999   0.525  1.00  0.00     0.210 HD
ENDBRANCH  10  26
TORSDOF 5
ENDMDL
MODEL 7
REMARK VINA RESULT:      -6.6      3.437      5.367
REMARK  5 active torsions:
REMARK  status: ('A' for Active; 'I' for Inactive)
REMARK    1  A    between atoms: C_8  and  C_9 
REMARK    2  A    between atoms: C_11  and  O_12 
REMARK    3  A    between atoms: C_14  and  O_15 
REMARK    4  A    between atoms: C_18  and  C_19 
REMARK    5  A    between atoms: C_22  and  O_23 
ROOT
HETATM    1  C   UNL     1      39.893 -11.983   2.799  1.00  0.00     0.070 C 
HETATM    2  C   UNL     1      40.068 -13.453   2.748  1.00  0.00     0.033 A 
HETATM    3  N   UNL     1      39.078 -14.274   2.275  1.00  0.00    -0.282 N 
HETATM    4  H   UNL     1      38.155 -14.014   1.943  1.00  0.00     0.189 HD
HETATM    5  N   UNL     1      39.431 -15.567   2.209  1.00  0.00    -0.179 NA
HETATM    6  C   UNL     1      40.663 -15.581   2.720  1.00  0.00     0.066 A 
HETATM    7  C   UNL     1      41.110 -14.289   3.107  1.00  0.00     0.001 A 
HETATM    8  C   UNL     1      42.500 -14.041   3.623  1.00  0.00     0.070 C 
HETATM    9  C   UNL     1      43.260 -15.355   3.955  1.00  0.00     0.102 C 
HETATM   10  C   UNL     1      42.993 -16.487   2.920  1.00  0.00     0.071 C 
HETATM   11  C   UNL     1      43.569 -16.113   1.541  1.00  0.00     0.047 C 
HETATM   12  C   UNL     1      41.480 -16.823   2.802  1.00  0.00     0.100 C 
ENDROOT
BRANCH   8  13
HETATM   13  C   UNL     1      42.498 -13.025   4.756  1.00  0.00    -0.046 A 
HETATM   14  C   UNL     1      43.605 -12.214   5.080  1.00  0.00     0.047 A 
HETATM   15  C   UNL     1      43.527 -11.283   6.119  1.00  0.00     0.101 A 
HETATM   16  C   UNL     1      42.314 -11.101   6.785  1.00  0.00     0.099 A 
HETATM   17  C   UNL     1      41.203 -11.867   6.474  1.00  0.00     0.040 A 
HETATM   18  C   UNL     1      41.298 -12.831   5.469  1.00  0.00     0.011 A 
BRANCH  15  19
HETATM   19  O   UNL     1      44.560 -10.479   6.528  1.00  0.00    -0.353 OA
HETATM   20  C   UNL     1      45.657 -11.190   7.100  1.00  0.00     0.210 C 
ENDBRANCH  15  19
BRANCH  16  21
HETATM   21  O   UNL     1      42.203 -10.158   7.769  1.00  0.00    -0.358 OA
HETATM   22  H   UNL     1      41.676 -10.590   8.469  1.00  0.00     0.218 HD
ENDBRANCH  16  21
ENDBRANCH   8  13
BRANCH   9  23
HETATM   23  C   UNL     1      42.958 -15.872   5.365  1.00  0.00     0.131 C 
HETATM   24  C   UNL     1      44.069 -15.757   6.380  1.00  0.00     0.091 C 
HETATM   25  O   UNL     1      41.874 -16.369   5.676  1.00  0.00    -0.298 OA
ENDBRANCH   9  23
BRANCH  10  26
HETATM   26  O   UNL     1      43.726 -17.652   3.338  1.00  0.00    -0.389 OA
HETATM   27  H   UNL     1      43.084 -18.317   3.650  1.00  0.00     0.210 HD
ENDBRANCH  10  26
TORSDOF 5
ENDMDL
MODEL 8
REMARK VINA RESULT:      -6.6      3.446      5.108
REMARK  5 active torsions:
REMARK  status: ('A' for Active; 'I' for Inactive)
REMARK    1  A    between atoms: C_8  and  C_9 
REMARK    2  A    between atoms: C_11  and  O_12 
REMARK    3  A    between atoms: C_14  and  O_15 
REMARK    4  A    between atoms: C_18  and  C_19 
REMARK    5  A    between atoms: C_22  and  O_23 
ROOT
HETATM    1  C   UNL     1      38.521 -11.377   2.403  1.00  0.00     0.070 C 
HETATM    2  C   UNL     1      39.610 -11.800   3.313  1.00  0.00     0.033 A 
HETATM    3  N   UNL     1      40.024 -11.005   4.351  1.00  0.00    -0.282 N 
HETATM    4  H   UNL     1      39.686 -10.083   4.605  1.00  0.00     0.189 HD
HETATM    5  N   UNL     1      40.954 -11.574   5.133  1.00  0.00    -0.179 NA
HETATM    6  C   UNL     1      41.191 -12.743   4.537  1.00  0.00     0.066 A 
HETATM    7  C   UNL     1      40.402 -12.933   3.370  1.00  0.00     0.001 A 
HETATM    8  C   UNL     1      40.428 -14.213   2.583  1.00  0.00     0.070 C 
HETATM    9  C   UNL     1      41.592 -15.152   3.001  1.00  0.00     0.102 C 
HETATM   10  C   UNL     1      41.836 -15.166   4.539  1.00  0.00     0.071 C 
HETATM   11  C   UNL     1      40.632 -15.786   5.276  1.00  0.00     0.047 C 
HETATM   12  C   UNL     1      42.138 -13.747   5.094  1.00  0.00     0.100 C 
ENDROOT
BRANCH   8  13
HETATM   13  C   UNL     1      40.356 -13.945   1.086  1.00  0.00    -0.046 A 
HETATM   14  C   UNL     1      40.915 -12.809   0.468  1.00  0.00     0.047 A 
HETATM   15  C   UNL     1      40.834 -12.637  -0.916  1.00  0.00     0.101 A 
HETATM   16  C   UNL     1      40.265 -13.643  -1.698  1.00  0.00     0.099 A 
HETATM   17  C   UNL     1      39.727 -14.782  -1.122  1.00  0.00     0.040 A 
HETATM   18  C   UNL     1      39.765 -14.928   0.266  1.00  0.00     0.011 A 
BRANCH  15  19
HETATM   19  O   UNL     1      41.316 -11.549  -1.599  1.00  0.00    -0.353 OA
HETATM   20  C   UNL     1      41.343 -10.348  -0.830  1.00  0.00     0.210 C 
ENDBRANCH  15  19
BRANCH  16  21
HETATM   21  O   UNL     1      40.224 -13.517  -3.059  1.00  0.00    -0.358 OA
HETATM   22  H   UNL     1      41.012 -12.986  -3.284  1.00  0.00     0.218 HD
ENDBRANCH  16  21
ENDBRANCH   8  13
BRANCH   9  23
HETATM   23  C   UNL     1      42.904 -14.823   2.281  1.00  0.00     0.131 C 
HETATM   24  C   UNL     1      43.415 -15.852   1.303  1.00  0.00     0.091 C 
HETATM   25  O   UNL     1      43.533 -13.782   2.482  1.00  0.00    -0.298 OA
ENDBRANCH   9  23
BRANCH  10  26
HETATM   26  O   UNL     1      42.942 -16.047   4.805  1.00  0.00    -0.389 OA
HETATM   27  H   UNL     1      43.289 -15.836   5.692  1.00  0.00     0.210 HD
ENDBRANCH  10  26
TORSDOF 5
ENDMDL
MODEL 9
REMARK VINA RESULT:      -6.5      9.852     12.352
REMARK  5 active torsions:
REMARK  status: ('A' for Active; 'I' for Inactive)
REMARK    1  A    between atoms: C_8  and  C_9 
REMARK    2  A    between atoms: C_11  and  O_12 
REMARK    3  A    between atoms: C_14  and  O_15 
REMARK    4  A    between atoms: C_18  and  C_19 
REMARK    5  A    between atoms: C_22  and  O_23 
ROOT
HETATM    1  C   UNL     1      42.835  -4.535  10.524  1.00  0.00     0.070 C 
HETATM    2  C   UNL     1      42.786  -5.849   9.841  1.00  0.00     0.033 A 
HETATM    3  N   UNL     1      42.621  -5.942   8.484  1.00  0.00    -0.282 N 
HETATM    4  H   UNL     1      42.497  -5.189   7.816  1.00  0.00     0.189 HD
HETATM    5  N   UNL     1      42.691  -7.197   8.013  1.00  0.00    -0.179 NA
HETATM    6  C   UNL     1      42.838  -7.935   9.114  1.00  0.00     0.066 A 
HETATM    7  C   UNL     1      42.873  -7.151  10.299  1.00  0.00     0.001 A 
HETATM    8  C   UNL     1      43.123  -7.753  11.653  1.00  0.00     0.070 C 
HETATM    9  C   UNL     1      43.041  -9.305  11.645  1.00  0.00     0.102 C 
HETATM   10  C   UNL     1      43.674  -9.937  10.371  1.00  0.00     0.071 C 
HETATM   11  C   UNL     1      45.194  -9.688  10.336  1.00  0.00     0.047 C 
HETATM   12  C   UNL     1      43.009  -9.413   9.069  1.00  0.00     0.100 C 
ENDROOT
BRANCH   8  13
HETATM   13  C   UNL     1      42.262  -7.094  12.721  1.00  0.00    -0.046 A 
HETATM   14  C   UNL     1      40.927  -6.693  12.511  1.00  0.00     0.047 A 
HETATM   15  C   UNL     1      40.184  -6.115  13.544  1.00  0.00     0.101 A 
HETATM   16  C   UNL     1      40.748  -6.010  14.816  1.00  0.00     0.099 A 
HETATM   17  C   UNL     1      42.051  -6.415  15.059  1.00  0.00     0.040 A 
HETATM   18  C   UNL     1      42.807  -6.947  14.013  1.00  0.00     0.011 A 
BRANCH  15  19
HETATM   19  O   UNL     1      38.895  -5.664  13.423  1.00  0.00    -0.353 OA
HETATM   20  C   UNL     1      37.936  -6.698  13.205  1.00  0.00     0.210 C 
ENDBRANCH  15  19
BRANCH  16  21
HETATM   21  O   UNL     1      40.020  -5.495  15.852  1.00  0.00    -0.358 OA
HETATM   22  H   UNL     1      39.145  -5.294  15.466  1.00  0.00     0.218 HD
ENDBRANCH  16  21
ENDBRANCH   8  13
BRANCH   9  23
HETATM   23  C   UNL     1      41.608  -9.821  11.812  1.00  0.00     0.131 C 
HETATM   24  C   UNL     1      41.214 -10.284  13.193  1.00  0.00     0.091 C 
HETATM   25  O   UNL     1      40.805  -9.874  10.880  1.00  0.00    -0.298 OA
ENDBRANCH   9  23
BRANCH  10  26
HETATM   26  O   UNL     1      43.523 -11.365  10.463  1.00  0.00    -0.389 OA
HETATM   27  H   UNL     1      43.458 -11.602  11.407  1.00  0.00     0.210 HD
ENDBRANCH  10  26
TORSDOF 5
ENDMDL
MODEL 10
REMARK VINA RESULT:      -6.5      2.907      5.918
REMARK  5 active torsions:
REMARK  status: ('A' for Active; 'I' for Inactive)
REMARK    1  A    between atoms: C_8  and  C_9 
REMARK    2  A    between atoms: C_11  and  O_12 
REMARK    3  A    between atoms: C_14  and  O_15 
REMARK    4  A    between atoms: C_18  and  C_19 
REMARK    5  A    between atoms: C_22  and  O_23 
ROOT
HETATM    1  C   UNL     1      43.486 -13.981   6.281  1.00  0.00     0.070 C 
HETATM    2  C   UNL     1      42.199 -13.517   5.715  1.00  0.00     0.033 A 
HETATM    3  N   UNL     1      41.307 -12.796   6.465  1.00  0.00    -0.282 N 
HETATM    4  H   UNL     1      41.386 -12.522   7.439  1.00  0.00     0.189 HD
HETATM    5  N   UNL     1      40.235 -12.374   5.777  1.00  0.00    -0.179 NA
HETATM    6  C   UNL     1      40.415 -12.899   4.565  1.00  0.00     0.066 A 
HETATM    7  C   UNL     1      41.615 -13.656   4.468  1.00  0.00     0.001 A 
HETATM    8  C   UNL     1      42.077 -14.267   3.175  1.00  0.00     0.070 C 
HETATM    9  C   UNL     1      40.986 -14.233   2.071  1.00  0.00     0.102 C 
HETATM   10  C   UNL     1      40.167 -12.909   2.069  1.00  0.00     0.071 C 
HETATM   11  C   UNL     1      41.061 -11.715   1.684  1.00  0.00     0.047 C 
HETATM   12  C   UNL     1      39.476 -12.650   3.437  1.00  0.00     0.100 C 
ENDROOT
BRANCH   8  13
HETATM   13  C   UNL     1      42.689 -15.643   3.399  1.00  0.00    -0.046 A 
HETATM   14  C   UNL     1      42.631 -16.333   4.626  1.00  0.00     0.047 A 
HETATM   15  C   UNL     1      43.192 -17.606   4.756  1.00  0.00     0.101 A 
HETATM   16  C   UNL     1      43.743 -18.228   3.636  1.00  0.00     0.099 A 
HETATM   17  C   UNL     1      43.796 -17.583   2.410  1.00  0.00     0.040 A 
HETATM   18  C   UNL     1      43.278 -16.292   2.296  1.00  0.00     0.011 A 
BRANCH  15  19
HETATM   19  O   UNL     1      43.215 -18.337   5.917  1.00  0.00    -0.353 OA
HETATM   20  C   UNL     1      43.434 -17.554   7.090  1.00  0.00     0.210 C 
ENDBRANCH  15  19
BRANCH  16  21
HETATM   21  O   UNL     1      44.252 -19.493   3.730  1.00  0.00    -0.358 OA
HETATM   22  H   UNL     1      43.637 -19.965   4.325  1.00  0.00     0.218 HD
ENDBRANCH  16  21
ENDBRANCH   8  13
BRANCH   9  23
HETATM   23  C   UNL     1      40.027 -15.425   2.153  1.00  0.00     0.131 C 
HETATM   24  C   UNL     1      39.783 -16.186   0.872  1.00  0.00     0.091 C 
HETATM   25  O   UNL     1      39.463 -15.759   3.197  1.00  0.00    -0.298 OA
ENDBRANCH   9  23
BRANCH  10  26
HETATM   26  O   UNL     1      39.179 -12.999   1.027  1.00  0.00    -0.389 OA
HETATM   27  H   UNL     1      38.583 -13.741   1.239  1.00  0.00     0.210 HD
ENDBRANCH  10  26
TORSDOF 5
ENDMDL
