MODEL 1
REMARK VINA RESULT:      -8.8      0.000      0.000
REMARK  6 active torsions:
REMARK  status: ('A' for Active; 'I' for Inactive)
REMARK       I    between atoms: N_2  and  C_3 
REMARK    1  A    between atoms: C_3  and  C_4 
REMARK    2  A    between atoms: C_6  and  C_7 
REMARK    3  A    between atoms: C_7  and  C_8 
REMARK    4  A    between atoms: C_8  and  C_9 
REMARK       I    between atoms: C_9  and  N_10 
REMARK    5  A    between atoms: N_10  and  C_11 
REMARK    6  A    between atoms: C_13  and  C_14 
ROOT
HETATM    1  C   UNL     1      41.990 -13.608   5.475  1.00  0.00     0.222 C 
HETATM    2  N   UNL     1      43.036 -14.234   4.876  1.00  0.00    -0.327 N 
HETATM    3  O   UNL     1      42.277 -12.701   6.269  1.00  0.00    -0.273 OA
HETATM    4  H   UNL     1      43.901 -13.854   5.246  1.00  0.00     0.169 HD
ENDROOT
BRANCH   1   5
HETATM    5  C   UNL     1      40.539 -13.965   5.251  1.00  0.00     0.108 C 
BRANCH   5   6
HETATM    6  C   UNL     1      39.883 -13.226   4.084  1.00  0.00     0.048 C 
BRANCH   6   7
HETATM    7  C   UNL     1      39.928 -13.854   2.706  1.00  0.00    -0.057 A 
HETATM    8  C   UNL     1      39.973 -13.119   1.513  1.00  0.00     0.024 A 
HETATM    9  C   UNL     1      39.917 -13.762   0.266  1.00  0.00     0.032 A 
HETATM   10  C   UNL     1      39.866 -15.159   0.209  1.00  0.00     0.017 A 
HETATM   11  C   UNL     1      39.833 -15.904   1.385  1.00  0.00     0.002 A 
HETATM   12  C   UNL     1      39.850 -15.255   2.620  1.00  0.00     0.007 A 
BRANCH   9  13
HETATM   13  C   UNL     1      39.902 -13.001  -1.016  1.00  0.00     0.251 C 
HETATM   14  N   UNL     1      41.064 -13.023  -1.760  1.00  0.00    -0.361 N 
HETATM   15  C   UNL     1      41.191 -12.219  -2.949  1.00  0.00     0.149 C 
HETATM   16  H   UNL     1      41.908 -13.417  -1.365  1.00  0.00     0.162 HD
HETATM   17  O   UNL     1      38.908 -12.361  -1.342  1.00  0.00    -0.268 OA
ENDBRANCH   9  13
ENDBRANCH   6   7
ENDBRANCH   5   6
ENDBRANCH   1   5
BRANCH   2  18
HETATM   18  C   UNL     1      43.196 -15.245   3.913  1.00  0.00     0.035 A 
HETATM   19  C   UNL     1      43.327 -16.611   4.169  1.00  0.00     0.042 A 
HETATM   20  C   UNL     1      43.532 -17.530   3.122  1.00  0.00    -0.021 A 
HETATM   21  C   UNL     1      43.574 -17.067   1.803  1.00  0.00     0.012 A 
HETATM   22  C   UNL     1      43.408 -15.713   1.530  1.00  0.00     0.003 A 
HETATM   23  C   UNL     1      43.220 -14.813   2.579  1.00  0.00     0.029 A 
BRANCH  20  24
HETATM   24  C   UNL     1      43.730 -18.944   3.396  1.00  0.00     0.010 A 
HETATM   25  C   UNL     1      43.607 -20.072   2.551  1.00  0.00     0.152 A 
HETATM   26  N   UNL     1      43.870 -21.221   3.177  1.00  0.00    -0.187 NA
HETATM   27  N   UNL     1      44.157 -20.835   4.431  1.00  0.00    -0.289 N 
HETATM   28  H   UNL     1      44.389 -21.551   5.112  1.00  0.00     0.188 HD
HETATM   29  C   UNL     1      44.090 -19.483   4.614  1.00  0.00     0.123 A 
ENDBRANCH  20  24
ENDBRANCH   2  18
TORSDOF 6
ENDMDL
MODEL 2
REMARK VINA RESULT:      -8.6      2.011      6.564
REMARK  6 active torsions:
REMARK  status: ('A' for Active; 'I' for Inactive)
REMARK       I    between atoms: N_2  and  C_3 
REMARK    1  A    between atoms: C_3  and  C_4 
REMARK    2  A    between atoms: C_6  and  C_7 
REMARK    3  A    between atoms: C_7  and  C_8 
REMARK    4  A    between atoms: C_8  and  C_9 
REMARK       I    between atoms: C_9  and  N_10 
REMARK    5  A    between atoms: N_10  and  C_11 
REMARK    6  A    between atoms: C_13  and  C_14 
ROOT
HETATM    1  C   UNL     1      40.199 -12.624   4.848  1.00  0.00     0.222 C 
HETATM    2  N   UNL     1      39.446 -13.251   3.908  1.00  0.00    -0.327 N 
HETATM    3  O   UNL     1      39.596 -12.216   5.850  1.00  0.00    -0.273 OA
HETATM    4  H   UNL     1      38.473 -13.224   4.196  1.00  0.00     0.169 HD
ENDROOT
BRANCH   1   5
HETATM    5  C   UNL     1      41.686 -12.381   4.727  1.00  0.00     0.108 C 
BRANCH   5   6
HETATM    6  C   UNL     1      42.551 -13.595   5.070  1.00  0.00     0.048 C 
BRANCH   6   7
HETATM    7  C   UNL     1      42.869 -14.596   3.977  1.00  0.00    -0.057 A 
HETATM    8  C   UNL     1      42.959 -15.978   4.187  1.00  0.00     0.024 A 
HETATM    9  C   UNL     1      43.351 -16.842   3.151  1.00  0.00     0.032 A 
HETATM   10  C   UNL     1      43.606 -16.323   1.877  1.00  0.00     0.017 A 
HETATM   11  C   UNL     1      43.508 -14.952   1.650  1.00  0.00     0.002 A 
HETATM   12  C   UNL     1      43.155 -14.098   2.694  1.00  0.00     0.007 A 
BRANCH   9  13
HETATM   13  C   UNL     1      43.515 -18.308   3.362  1.00  0.00     0.251 C 
HETATM   14  N   UNL     1      43.907 -18.710   4.622  1.00  0.00    -0.361 N 
HETATM   15  C   UNL     1      44.213 -20.092   4.891  1.00  0.00     0.149 C 
HETATM   16  H   UNL     1      44.201 -18.021   5.302  1.00  0.00     0.162 HD
HETATM   17  O   UNL     1      43.348 -19.088   2.430  1.00  0.00    -0.268 OA
ENDBRANCH   9  13
ENDBRANCH   6   7
ENDBRANCH   5   6
ENDBRANCH   1   5
BRANCH   2  18
HETATM   18  C   UNL     1      39.684 -13.893   2.680  1.00  0.00     0.035 A 
HETATM   19  C   UNL     1      39.949 -13.266   1.462  1.00  0.00     0.042 A 
HETATM   20  C   UNL     1      40.123 -14.014   0.282  1.00  0.00    -0.021 A 
HETATM   21  C   UNL     1      40.059 -15.410   0.341  1.00  0.00     0.012 A 
HETATM   22  C   UNL     1      39.831 -16.050   1.555  1.00  0.00     0.003 A 
HETATM   23  C   UNL     1      39.646 -15.295   2.713  1.00  0.00     0.029 A 
BRANCH  20  24
HETATM   24  C   UNL     1      40.339 -13.356  -0.996  1.00  0.00     0.010 A 
HETATM   25  C   UNL     1      40.123 -13.815  -2.317  1.00  0.00     0.152 A 
HETATM   26  N   UNL     1      40.448 -12.909  -3.241  1.00  0.00    -0.187 NA
HETATM   27  N   UNL     1      40.881 -11.864  -2.516  1.00  0.00    -0.289 N 
HETATM   28  H   UNL     1      41.197 -11.036  -3.010  1.00  0.00     0.188 HD
HETATM   29  C   UNL     1      40.834 -12.080  -1.168  1.00  0.00     0.123 A 
ENDBRANCH  20  24
ENDBRANCH   2  18
TORSDOF 6
ENDMDL
MODEL 3
REMARK VINA RESULT:      -8.0      2.764      5.655
REMARK  6 active torsions:
REMARK  status: ('A' for Active; 'I' for Inactive)
REMARK       I    between atoms: N_2  and  C_3 
REMARK    1  A    between atoms: C_3  and  C_4 
REMARK    2  A    between atoms: C_6  and  C_7 
REMARK    3  A    between atoms: C_7  and  C_8 
REMARK    4  A    between atoms: C_8  and  C_9 
REMARK       I    between atoms: C_9  and  N_10 
REMARK    5  A    between atoms: N_10  and  C_11 
REMARK    6  A    between atoms: C_13  and  C_14 
ROOT
HETATM    1  C   UNL     1      43.669 -18.215   3.652  1.00  0.00     0.222 C 
HETATM    2  N   UNL     1      43.573 -17.510   4.808  1.00  0.00    -0.327 N 
HETATM    3  O   UNL     1      44.423 -19.198   3.670  1.00  0.00    -0.273 OA
HETATM    4  H   UNL     1      44.207 -17.913   5.491  1.00  0.00     0.169 HD
ENDROOT
BRANCH   1   5
HETATM    5  C   UNL     1      42.944 -17.861   2.374  1.00  0.00     0.108 C 
BRANCH   5   6
HETATM    6  C   UNL     1      43.262 -16.465   1.836  1.00  0.00     0.048 C 
BRANCH   6   7
HETATM    7  C   UNL     1      42.233 -15.366   2.008  1.00  0.00    -0.057 A 
HETATM    8  C   UNL     1      42.556 -14.016   2.198  1.00  0.00     0.024 A 
HETATM    9  C   UNL     1      41.556 -13.062   2.446  1.00  0.00     0.032 A 
HETATM   10  C   UNL     1      40.212 -13.453   2.453  1.00  0.00     0.017 A 
HETATM   11  C   UNL     1      39.875 -14.789   2.253  1.00  0.00     0.002 A 
HETATM   12  C   UNL     1      40.877 -15.737   2.046  1.00  0.00     0.007 A 
BRANCH   9  13
HETATM   13  C   UNL     1      41.876 -11.631   2.713  1.00  0.00     0.251 C 
HETATM   14  N   UNL     1      40.805 -10.791   2.942  1.00  0.00    -0.361 N 
HETATM   15  C   UNL     1      41.001  -9.371   3.085  1.00  0.00     0.149 C 
HETATM   16  H   UNL     1      39.862 -11.124   2.787  1.00  0.00     0.162 HD
HETATM   17  O   UNL     1      43.038 -11.242   2.678  1.00  0.00    -0.268 OA
ENDBRANCH   9  13
ENDBRANCH   6   7
ENDBRANCH   5   6
ENDBRANCH   1   5
BRANCH   2  18
HETATM   18  C   UNL     1      42.842 -16.398   5.260  1.00  0.00     0.035 A 
HETATM   19  C   UNL     1      43.349 -15.119   5.492  1.00  0.00     0.042 A 
HETATM   20  C   UNL     1      42.529 -14.091   5.994  1.00  0.00    -0.021 A 
HETATM   21  C   UNL     1      41.176 -14.352   6.236  1.00  0.00     0.012 A 
HETATM   22  C   UNL     1      40.648 -15.613   5.975  1.00  0.00     0.003 A 
HETATM   23  C   UNL     1      41.476 -16.625   5.492  1.00  0.00     0.029 A 
BRANCH  20  24
HETATM   24  C   UNL     1      43.074 -12.777   6.291  1.00  0.00     0.010 A 
HETATM   25  C   UNL     1      44.378 -12.387   6.678  1.00  0.00     0.152 A 
HETATM   26  N   UNL     1      44.491 -11.071   6.866  1.00  0.00    -0.187 NA
HETATM   27  N   UNL     1      43.257 -10.610   6.607  1.00  0.00    -0.289 N 
HETATM   28  H   UNL     1      43.089  -9.612   6.693  1.00  0.00     0.188 HD
HETATM   29  C   UNL     1      42.372 -11.590   6.257  1.00  0.00     0.123 A 
ENDBRANCH  20  24
ENDBRANCH   2  18
TORSDOF 6
ENDMDL
MODEL 4
REMARK VINA RESULT:      -8.0      3.678      7.055
REMARK  6 active torsions:
REMARK  status: ('A' for Active; 'I' for Inactive)
REMARK       I    between atoms: N_2  and  C_3 
REMARK    1  A    between atoms: C_3  and  C_4 
REMARK    2  A    between atoms: C_6  and  C_7 
REMARK    3  A    between atoms: C_7  and  C_8 
REMARK    4  A    between atoms: C_8  and  C_9 
REMARK       I    between atoms: C_9  and  N_10 
REMARK    5  A    between atoms: N_10  and  C_11 
REMARK    6  A    between atoms: C_13  and  C_14 
ROOT
HETATM    1  C   UNL     1      42.088 -13.893   5.810  1.00  0.00     0.222 C 
HETATM    2  N   UNL     1      41.682 -14.637   4.749  1.00  0.00    -0.327 N 
HETATM    3  O   UNL     1      41.205 -13.261   6.406  1.00  0.00    -0.273 OA
HETATM    4  H   UNL     1      40.688 -14.491   4.608  1.00  0.00     0.169 HD
ENDROOT
BRANCH   1   5
HETATM    5  C   UNL     1      43.522 -13.778   6.273  1.00  0.00     0.108 C 
BRANCH   5   6
HETATM    6  C   UNL     1      44.191 -12.447   5.927  1.00  0.00     0.048 C 
BRANCH   6   7
HETATM    7  C   UNL     1      44.643 -11.543   7.057  1.00  0.00    -0.057 A 
HETATM    8  C   UNL     1      43.858 -11.243   8.178  1.00  0.00     0.024 A 
HETATM    9  C   UNL     1      44.299 -10.322   9.143  1.00  0.00     0.032 A 
HETATM   10  C   UNL     1      45.561  -9.733   9.011  1.00  0.00     0.017 A 
HETATM   11  C   UNL     1      46.358 -10.032   7.909  1.00  0.00     0.002 A 
HETATM   12  C   UNL     1      45.896 -10.918   6.936  1.00  0.00     0.007 A 
BRANCH   9  13
HETATM   13  C   UNL     1      43.459  -9.938  10.313  1.00  0.00     0.251 C 
HETATM   14  N   UNL     1      42.092  -9.972  10.129  1.00  0.00    -0.361 N 
HETATM   15  C   UNL     1      41.200  -9.500  11.156  1.00  0.00     0.149 C 
HETATM   16  H   UNL     1      41.711 -10.112   9.202  1.00  0.00     0.162 HD
HETATM   17  O   UNL     1      43.987  -9.570  11.357  1.00  0.00    -0.268 OA
ENDBRANCH   9  13
ENDBRANCH   6   7
ENDBRANCH   5   6
ENDBRANCH   1   5
BRANCH   2  18
HETATM   18  C   UNL     1      42.288 -15.517   3.837  1.00  0.00     0.035 A 
HETATM   19  C   UNL     1      42.582 -16.862   4.062  1.00  0.00     0.042 A 
HETATM   20  C   UNL     1      43.239 -17.637   3.087  1.00  0.00    -0.021 A 
HETATM   21  C   UNL     1      43.574 -17.053   1.860  1.00  0.00     0.012 A 
HETATM   22  C   UNL     1      43.254 -15.723   1.608  1.00  0.00     0.003 A 
HETATM   23  C   UNL     1      42.617 -14.964   2.589  1.00  0.00     0.029 A 
BRANCH  20  24
HETATM   24  C   UNL     1      43.598 -19.021   3.348  1.00  0.00     0.010 A 
HETATM   25  C   UNL     1      43.541 -20.161   2.511  1.00  0.00     0.152 A 
HETATM   26  N   UNL     1      43.960 -21.272   3.120  1.00  0.00    -0.187 NA
HETATM   27  N   UNL     1      44.280 -20.852   4.354  1.00  0.00    -0.289 N 
HETATM   28  H   UNL     1      44.625 -21.537   5.020  1.00  0.00     0.188 HD
HETATM   29  C   UNL     1      44.084 -19.513   4.541  1.00  0.00     0.123 A 
ENDBRANCH  20  24
ENDBRANCH   2  18
TORSDOF 6
ENDMDL
MODEL 5
REMARK VINA RESULT:      -7.6      2.331      3.462
REMARK  6 active torsions:
REMARK  status: ('A' for Active; 'I' for Inactive)
REMARK       I    between atoms: N_2  and  C_3 
REMARK    1  A    between atoms: C_3  and  C_4 
REMARK    2  A    between atoms: C_6  and  C_7 
REMARK    3  A    between atoms: C_7  and  C_8 
REMARK    4  A    between atoms: C_8  and  C_9 
REMARK       I    between atoms: C_9  and  N_10 
REMARK    5  A    between atoms: N_10  and  C_11 
REMARK    6  A    between atoms: C_13  and  C_14 
ROOT
HETATM    1  C   UNL     1      44.060 -12.194   7.186  1.00  0.00     0.222 C 
HETATM    2  N   UNL     1      43.276 -13.290   7.358  1.00  0.00    -0.327 N 
HETATM    3  O   UNL     1      44.435 -11.622   8.219  1.00  0.00    -0.273 OA
HETATM    4  H   UNL     1      43.097 -13.412   8.350  1.00  0.00     0.169 HD
ENDROOT
BRANCH   1   5
HETATM    5  C   UNL     1      44.466 -11.638   5.841  1.00  0.00     0.108 C 
BRANCH   5   6
HETATM    6  C   UNL     1      43.303 -11.106   5.002  1.00  0.00     0.048 C 
BRANCH   6   7
HETATM    7  C   UNL     1      42.817 -11.928   3.826  1.00  0.00    -0.057 A 
HETATM    8  C   UNL     1      41.563 -11.762   3.222  1.00  0.00     0.024 A 
HETATM    9  C   UNL     1      41.136 -12.621   2.196  1.00  0.00     0.032 A 
HETATM   10  C   UNL     1      41.993 -13.626   1.733  1.00  0.00     0.017 A 
HETATM   11  C   UNL     1      43.247 -13.795   2.314  1.00  0.00     0.002 A 
HETATM   12  C   UNL     1      43.648 -12.962   3.359  1.00  0.00     0.007 A 
BRANCH   9  13
HETATM   13  C   UNL     1      39.785 -12.506   1.578  1.00  0.00     0.251 C 
HETATM   14  N   UNL     1      38.999 -11.454   2.005  1.00  0.00    -0.361 N 
HETATM   15  C   UNL     1      37.633 -11.330   1.562  1.00  0.00     0.149 C 
HETATM   16  H   UNL     1      39.290 -10.896   2.797  1.00  0.00     0.162 HD
HETATM   17  O   UNL     1      39.402 -13.345   0.770  1.00  0.00    -0.268 OA
ENDBRANCH   9  13
ENDBRANCH   6   7
ENDBRANCH   5   6
ENDBRANCH   1   5
BRANCH   2  18
HETATM   18  C   UNL     1      42.675 -14.248   6.524  1.00  0.00     0.035 A 
HETATM   19  C   UNL     1      43.301 -15.365   5.969  1.00  0.00     0.042 A 
HETATM   20  C   UNL     1      42.608 -16.233   5.104  1.00  0.00    -0.021 A 
HETATM   21  C   UNL     1      41.260 -15.985   4.821  1.00  0.00     0.012 A 
HETATM   22  C   UNL     1      40.613 -14.895   5.395  1.00  0.00     0.003 A 
HETATM   23  C   UNL     1      41.317 -14.037   6.239  1.00  0.00     0.029 A 
BRANCH  20  24
HETATM   24  C   UNL     1      43.279 -17.361   4.480  1.00  0.00     0.010 A 
HETATM   25  C   UNL     1      43.904 -18.493   5.055  1.00  0.00     0.152 A 
HETATM   26  N   UNL     1      44.419 -19.320   4.142  1.00  0.00    -0.187 NA
HETATM   27  N   UNL     1      44.132 -18.718   2.977  1.00  0.00    -0.289 N 
HETATM   28  H   UNL     1      44.436 -19.166   2.118  1.00  0.00     0.188 HD
HETATM   29  C   UNL     1      43.449 -17.545   3.124  1.00  0.00     0.123 A 
ENDBRANCH  20  24
ENDBRANCH   2  18
TORSDOF 6
ENDMDL
MODEL 6
REMARK VINA RESULT:      -7.6     14.435     16.534
REMARK  6 active torsions:
REMARK  status: ('A' for Active; 'I' for Inactive)
REMARK       I    between atoms: N_2  and  C_3 
REMARK    1  A    between atoms: C_3  and  C_4 
REMARK    2  A    between atoms: C_6  and  C_7 
REMARK    3  A    between atoms: C_7  and  C_8 
REMARK    4  A    between atoms: C_8  and  C_9 
REMARK       I    between atoms: C_9  and  N_10 
REMARK    5  A    between atoms: N_10  and  C_11 
REMARK    6  A    between atoms: C_13  and  C_14 
ROOT
HETATM    1  C   UNL     1      44.186 -30.262  -3.965  1.00  0.00     0.222 C 
HETATM    2  N   UNL     1      44.514 -31.299  -3.152  1.00  0.00    -0.327 N 
HETATM    3  O   UNL     1      43.954 -30.547  -5.149  1.00  0.00    -0.273 OA
HETATM    4  H   UNL     1      44.557 -32.149  -3.705  1.00  0.00     0.169 HD
ENDROOT
BRANCH   1   5
HETATM    5  C   UNL     1      44.114 -28.820  -3.522  1.00  0.00     0.108 C 
BRANCH   5   6
HETATM    6  C   UNL     1      45.470 -28.117  -3.446  1.00  0.00     0.048 C 
BRANCH   6   7
HETATM    7  C   UNL     1      46.317 -28.300  -2.202  1.00  0.00    -0.057 A 
HETATM    8  C   UNL     1      47.613 -28.834  -2.211  1.00  0.00     0.024 A 
HETATM    9  C   UNL     1      48.307 -29.065  -1.012  1.00  0.00     0.032 A 
HETATM   10  C   UNL     1      47.719 -28.710   0.207  1.00  0.00     0.017 A 
HETATM   11  C   UNL     1      46.438 -28.166   0.231  1.00  0.00     0.002 A 
HETATM   12  C   UNL     1      45.740 -27.976  -0.962  1.00  0.00     0.007 A 
BRANCH   9  13
HETATM   13  C   UNL     1      49.660 -29.690  -0.989  1.00  0.00     0.251 C 
HETATM   14  N   UNL     1      50.180 -30.081  -2.206  1.00  0.00    -0.361 N 
HETATM   15  C   UNL     1      51.423 -30.805  -2.274  1.00  0.00     0.149 C 
HETATM   16  H   UNL     1      49.596 -30.067  -3.032  1.00  0.00     0.162 HD
HETATM   17  O   UNL     1      50.235 -29.875   0.078  1.00  0.00    -0.268 OA
ENDBRANCH   9  13
ENDBRANCH   6   7
ENDBRANCH   5   6
ENDBRANCH   1   5
BRANCH   2  18
HETATM   18  C   UNL     1      44.805 -31.464  -1.786  1.00  0.00     0.035 A 
HETATM   19  C   UNL     1      43.972 -31.119  -0.721  1.00  0.00     0.042 A 
HETATM   20  C   UNL     1      44.391 -31.286   0.613  1.00  0.00    -0.021 A 
HETATM   21  C   UNL     1      45.651 -31.836   0.871  1.00  0.00     0.012 A 
HETATM   22  C   UNL     1      46.477 -32.219  -0.182  1.00  0.00     0.003 A 
HETATM   23  C   UNL     1      46.054 -32.034  -1.497  1.00  0.00     0.029 A 
BRANCH  20  24
HETATM   24  C   UNL     1      43.547 -30.868   1.720  1.00  0.00     0.010 A 
HETATM   25  C   UNL     1      42.298 -30.201   1.725  1.00  0.00     0.152 A 
HETATM   26  N   UNL     1      41.831 -29.986   2.957  1.00  0.00    -0.187 NA
HETATM   27  N   UNL     1      42.782 -30.508   3.748  1.00  0.00    -0.289 N 
HETATM   28  H   UNL     1      42.651 -30.456   4.754  1.00  0.00     0.188 HD
HETATM   29  C   UNL     1      43.828 -31.050   3.058  1.00  0.00     0.123 A 
ENDBRANCH  20  24
ENDBRANCH   2  18
TORSDOF 6
ENDMDL
MODEL 7
REMARK VINA RESULT:      -7.6      1.946      4.750
REMARK  6 active torsions:
REMARK  status: ('A' for Active; 'I' for Inactive)
REMARK       I    between atoms: N_2  and  C_3 
REMARK    1  A    between atoms: C_3  and  C_4 
REMARK    2  A    between atoms: C_6  and  C_7 
REMARK    3  A    between atoms: C_7  and  C_8 
REMARK    4  A    between atoms: C_8  and  C_9 
REMARK       I    between atoms: C_9  and  N_10 
REMARK    5  A    between atoms: N_10  and  C_11 
REMARK    6  A    between atoms: C_13  and  C_14 
ROOT
HETATM    1  C   UNL     1      40.855 -14.453   0.691  1.00  0.00     0.222 C 
HETATM    2  N   UNL     1      41.996 -15.149   0.931  1.00  0.00    -0.327 N 
HETATM    3  O   UNL     1      40.692 -14.052  -0.470  1.00  0.00    -0.273 OA
HETATM    4  H   UNL     1      42.552 -15.170   0.082  1.00  0.00     0.169 HD
ENDROOT
BRANCH   1   5
HETATM    5  C   UNL     1      39.815 -14.130   1.739  1.00  0.00     0.108 C 
BRANCH   5   6
HETATM    6  C   UNL     1      39.817 -12.672   2.198  1.00  0.00     0.048 C 
BRANCH   6   7
HETATM    7  C   UNL     1      40.468 -12.325   3.522  1.00  0.00    -0.057 A 
HETATM    8  C   UNL     1      41.825 -12.002   3.664  1.00  0.00     0.024 A 
HETATM    9  C   UNL     1      42.386 -11.784   4.933  1.00  0.00     0.032 A 
HETATM   10  C   UNL     1      41.572 -11.839   6.069  1.00  0.00     0.017 A 
HETATM   11  C   UNL     1      40.219 -12.146   5.943  1.00  0.00     0.002 A 
HETATM   12  C   UNL     1      39.678 -12.400   4.683  1.00  0.00     0.007 A 
BRANCH   9  13
HETATM   13  C   UNL     1      43.837 -11.499   5.117  1.00  0.00     0.251 C 
HETATM   14  N   UNL     1      44.287 -11.403   6.419  1.00  0.00    -0.361 N 
HETATM   15  C   UNL     1      45.643 -11.008   6.700  1.00  0.00     0.149 C 
HETATM   16  H   UNL     1      43.622 -11.385   7.181  1.00  0.00     0.162 HD
HETATM   17  O   UNL     1      44.560 -11.318   4.143  1.00  0.00    -0.268 OA
ENDBRANCH   9  13
ENDBRANCH   6   7
ENDBRANCH   5   6
ENDBRANCH   1   5
BRANCH   2  18
HETATM   18  C   UNL     1      42.567 -15.811   2.031  1.00  0.00     0.035 A 
HETATM   19  C   UNL     1      42.900 -17.165   2.095  1.00  0.00     0.042 A 
HETATM   20  C   UNL     1      43.424 -17.731   3.273  1.00  0.00    -0.021 A 
HETATM   21  C   UNL     1      43.642 -16.913   4.387  1.00  0.00     0.012 A 
HETATM   22  C   UNL     1      43.348 -15.554   4.326  1.00  0.00     0.003 A 
HETATM   23  C   UNL     1      42.816 -15.011   3.157  1.00  0.00     0.029 A 
BRANCH  20  24
HETATM   24  C   UNL     1      43.713 -19.153   3.355  1.00  0.00     0.010 A 
HETATM   25  C   UNL     1      43.628 -20.168   2.373  1.00  0.00     0.152 A 
HETATM   26  N   UNL     1      43.979 -21.369   2.837  1.00  0.00    -0.187 NA
HETATM   27  N   UNL     1      44.284 -21.131   4.123  1.00  0.00    -0.289 N 
HETATM   28  H   UNL     1      44.580 -21.913   4.698  1.00  0.00     0.188 HD
HETATM   29  C   UNL     1      44.144 -19.821   4.482  1.00  0.00     0.123 A 
ENDBRANCH  20  24
ENDBRANCH   2  18
TORSDOF 6
ENDMDL
MODEL 8
REMARK VINA RESULT:      -7.6      2.164      6.983
REMARK  6 active torsions:
REMARK  status: ('A' for Active; 'I' for Inactive)
REMARK       I    between atoms: N_2  and  C_3 
REMARK    1  A    between atoms: C_3  and  C_4 
REMARK    2  A    between atoms: C_6  and  C_7 
REMARK    3  A    between atoms: C_7  and  C_8 
REMARK    4  A    between atoms: C_8  and  C_9 
REMARK       I    between atoms: C_9  and  N_10 
REMARK    5  A    between atoms: N_10  and  C_11 
REMARK    6  A    between atoms: C_13  and  C_14 
ROOT
HETATM    1  C   UNL     1      40.663 -13.719   4.913  1.00  0.00     0.222 C 
HETATM    2  N   UNL     1      39.657 -13.577   4.011  1.00  0.00    -0.327 N 
HETATM    3  O   UNL     1      40.440 -14.480   5.866  1.00  0.00    -0.273 OA
HETATM    4  H   UNL     1      38.854 -14.110   4.329  1.00  0.00     0.169 HD
ENDROOT
BRANCH   1   5
HETATM    5  C   UNL     1      41.990 -13.001   4.833  1.00  0.00     0.108 C 
BRANCH   5   6
HETATM    6  C   UNL     1      42.852 -13.407   3.637  1.00  0.00     0.048 C 
BRANCH   6   7
HETATM    7  C   UNL     1      42.987 -14.878   3.300  1.00  0.00    -0.057 A 
HETATM    8  C   UNL     1      43.279 -15.872   4.245  1.00  0.00     0.024 A 
HETATM    9  C   UNL     1      43.484 -17.204   3.852  1.00  0.00     0.032 A 
HETATM   10  C   UNL     1      43.347 -17.557   2.505  1.00  0.00     0.017 A 
HETATM   11  C   UNL     1      43.045 -16.584   1.556  1.00  0.00     0.002 A 
HETATM   12  C   UNL     1      42.880 -15.256   1.950  1.00  0.00     0.007 A 
BRANCH   9  13
HETATM   13  C   UNL     1      43.855 -18.269   4.827  1.00  0.00     0.251 C 
HETATM   14  N   UNL     1      44.121 -19.518   4.305  1.00  0.00    -0.361 N 
HETATM   15  C   UNL     1      44.365 -20.641   5.174  1.00  0.00     0.149 C 
HETATM   16  H   UNL     1      43.926 -19.709   3.331  1.00  0.00     0.162 HD
HETATM   17  O   UNL     1      43.869 -18.026   6.029  1.00  0.00    -0.268 OA
ENDBRANCH   9  13
ENDBRANCH   6   7
ENDBRANCH   5   6
ENDBRANCH   1   5
BRANCH   2  18
HETATM   18  C   UNL     1      39.472 -12.889   2.800  1.00  0.00     0.035 A 
HETATM   19  C   UNL     1      39.677 -13.406   1.521  1.00  0.00     0.042 A 
HETATM   20  C   UNL     1      39.506 -12.605   0.375  1.00  0.00    -0.021 A 
HETATM   21  C   UNL     1      39.093 -11.276   0.525  1.00  0.00     0.012 A 
HETATM   22  C   UNL     1      38.850 -10.758   1.793  1.00  0.00     0.003 A 
HETATM   23  C   UNL     1      39.038 -11.560   2.918  1.00  0.00     0.029 A 
BRANCH  20  24
HETATM   24  C   UNL     1      39.780 -13.129  -0.952  1.00  0.00     0.010 A 
HETATM   25  C   UNL     1      40.630 -12.647  -1.975  1.00  0.00     0.152 A 
HETATM   26  N   UNL     1      40.611 -13.412  -3.069  1.00  0.00    -0.187 NA
HETATM   27  N   UNL     1      39.741 -14.386  -2.755  1.00  0.00    -0.289 N 
HETATM   28  H   UNL     1      39.551 -15.102  -3.449  1.00  0.00     0.188 HD
HETATM   29  C   UNL     1      39.218 -14.264  -1.499  1.00  0.00     0.123 A 
ENDBRANCH  20  24
ENDBRANCH   2  18
TORSDOF 6
ENDMDL
MODEL 9
REMARK VINA RESULT:      -7.5      3.638      6.720
REMARK  6 active torsions:
REMARK  status: ('A' for Active; 'I' for Inactive)
REMARK       I    between atoms: N_2  and  C_3 
REMARK    1  A    between atoms: C_3  and  C_4 
REMARK    2  A    between atoms: C_6  and  C_7 
REMARK    3  A    between atoms: C_7  and  C_8 
REMARK    4  A    between atoms: C_8  and  C_9 
REMARK       I    between atoms: C_9  and  N_10 
REMARK    5  A    between atoms: N_10  and  C_11 
REMARK    6  A    between atoms: C_13  and  C_14 
ROOT
HETATM    1  C   UNL     1      40.152 -12.817   5.800  1.00  0.00     0.222 C 
HETATM    2  N   UNL     1      40.691 -13.933   6.355  1.00  0.00    -0.327 N 
HETATM    3  O   UNL     1      39.113 -12.391   6.325  1.00  0.00    -0.273 OA
HETATM    4  H   UNL     1      40.084 -14.252   7.103  1.00  0.00     0.169 HD
ENDROOT
BRANCH   1   5
HETATM    5  C   UNL     1      40.721 -12.101   4.597  1.00  0.00     0.108 C 
BRANCH   5   6
HETATM    6  C   UNL     1      41.510 -10.835   4.933  1.00  0.00     0.048 C 
BRANCH   6   7
HETATM    7  C   UNL     1      42.707 -10.946   5.856  1.00  0.00    -0.057 A 
HETATM    8  C   UNL     1      42.713 -10.500   7.185  1.00  0.00     0.024 A 
HETATM    9  C   UNL     1      43.885 -10.546   7.957  1.00  0.00     0.032 A 
HETATM   10  C   UNL     1      45.053 -11.090   7.411  1.00  0.00     0.017 A 
HETATM   11  C   UNL     1      45.059 -11.549   6.096  1.00  0.00     0.002 A 
HETATM   12  C   UNL     1      43.901 -11.465   5.324  1.00  0.00     0.007 A 
BRANCH   9  13
HETATM   13  C   UNL     1      43.935 -10.023   9.352  1.00  0.00     0.251 C 
HETATM   14  N   UNL     1      43.552 -10.893  10.352  1.00  0.00    -0.361 N 
HETATM   15  C   UNL     1      43.446 -10.444  11.716  1.00  0.00     0.149 C 
HETATM   16  H   UNL     1      43.128 -11.780  10.113  1.00  0.00     0.162 HD
HETATM   17  O   UNL     1      44.258  -8.859   9.562  1.00  0.00    -0.268 OA
ENDBRANCH   9  13
ENDBRANCH   6   7
ENDBRANCH   5   6
ENDBRANCH   1   5
BRANCH   2  18
HETATM   18  C   UNL     1      41.836 -14.719   6.142  1.00  0.00     0.035 A 
HETATM   19  C   UNL     1      41.995 -15.688   5.150  1.00  0.00     0.042 A 
HETATM   20  C   UNL     1      43.175 -16.452   5.062  1.00  0.00    -0.021 A 
HETATM   21  C   UNL     1      44.214 -16.214   5.968  1.00  0.00     0.012 A 
HETATM   22  C   UNL     1      44.082 -15.227   6.940  1.00  0.00     0.003 A 
HETATM   23  C   UNL     1      42.903 -14.487   7.023  1.00  0.00     0.029 A 
BRANCH  20  24
HETATM   24  C   UNL     1      43.313 -17.502   4.066  1.00  0.00     0.010 A 
HETATM   25  C   UNL     1      42.823 -17.585   2.742  1.00  0.00     0.152 A 
HETATM   26  N   UNL     1      43.161 -18.724   2.134  1.00  0.00    -0.187 NA
HETATM   27  N   UNL     1      43.865 -19.381   3.070  1.00  0.00    -0.289 N 
HETATM   28  H   UNL     1      44.231 -20.299   2.838  1.00  0.00     0.188 HD
HETATM   29  C   UNL     1      43.987 -18.692   4.242  1.00  0.00     0.123 A 
ENDBRANCH  20  24
ENDBRANCH   2  18
TORSDOF 6
ENDMDL
MODEL 10
REMARK VINA RESULT:      -7.4      2.890      7.188
REMARK  6 active torsions:
REMARK  status: ('A' for Active; 'I' for Inactive)
REMARK       I    between atoms: N_2  and  C_3 
REMARK    1  A    between atoms: C_3  and  C_4 
REMARK    2  A    between atoms: C_6  and  C_7 
REMARK    3  A    between atoms: C_7  and  C_8 
REMARK    4  A    between atoms: C_8  and  C_9 
REMARK       I    between atoms: C_9  and  N_10 
REMARK    5  A    between atoms: N_10  and  C_11 
REMARK    6  A    between atoms: C_13  and  C_14 
ROOT
HETATM    1  C   UNL     1      40.542 -15.201   1.912  1.00  0.00     0.222 C 
HETATM    2  N   UNL     1      39.911 -14.525   2.907  1.00  0.00    -0.327 N 
HETATM    3  O   UNL     1      39.898 -16.113   1.375  1.00  0.00    -0.273 OA
HETATM    4  H   UNL     1      39.001 -14.948   3.064  1.00  0.00     0.169 HD
ENDROOT
BRANCH   1   5
HETATM    5  C   UNL     1      41.956 -14.923   1.456  1.00  0.00     0.108 C 
BRANCH   5   6
HETATM    6  C   UNL     1      42.820 -16.173   1.286  1.00  0.00     0.048 C 
BRANCH   6   7
HETATM    7  C   UNL     1      43.204 -16.966   2.520  1.00  0.00    -0.057 A 
HETATM    8  C   UNL     1      43.376 -16.400   3.790  1.00  0.00     0.024 A 
HETATM    9  C   UNL     1      43.825 -17.175   4.871  1.00  0.00     0.032 A 
HETATM   10  C   UNL     1      44.057 -18.543   4.693  1.00  0.00     0.017 A 
HETATM   11  C   UNL     1      43.878 -19.123   3.439  1.00  0.00     0.002 A 
HETATM   12  C   UNL     1      43.468 -18.338   2.362  1.00  0.00     0.007 A 
BRANCH   9  13
HETATM   13  C   UNL     1      44.075 -16.586   6.217  1.00  0.00     0.251 C 
HETATM   14  N   UNL     1      42.963 -16.319   6.990  1.00  0.00    -0.361 N 
HETATM   15  C   UNL     1      43.093 -15.635   8.252  1.00  0.00     0.149 C 
HETATM   16  H   UNL     1      42.039 -16.391   6.586  1.00  0.00     0.162 HD
HETATM   17  O   UNL     1      45.219 -16.321   6.572  1.00  0.00    -0.268 OA
ENDBRANCH   9  13
ENDBRANCH   6   7
ENDBRANCH   5   6
ENDBRANCH   1   5
BRANCH   2  18
HETATM   18  C   UNL     1      40.209 -13.433   3.739  1.00  0.00     0.035 A 
HETATM   19  C   UNL     1      41.391 -13.245   4.457  1.00  0.00     0.042 A 
HETATM   20  C   UNL     1      41.559 -12.131   5.302  1.00  0.00    -0.021 A 
HETATM   21  C   UNL     1      40.535 -11.183   5.397  1.00  0.00     0.012 A 
HETATM   22  C   UNL     1      39.365 -11.339   4.660  1.00  0.00     0.003 A 
HETATM   23  C   UNL     1      39.208 -12.455   3.838  1.00  0.00     0.029 A 
BRANCH  20  24
HETATM   24  C   UNL     1      42.767 -11.969   6.094  1.00  0.00     0.010 A 
HETATM   25  C   UNL     1      43.150 -10.942   6.990  1.00  0.00     0.152 A 
HETATM   26  N   UNL     1      44.352 -11.149   7.532  1.00  0.00    -0.187 NA
HETATM   27  N   UNL     1      44.749 -12.307   6.981  1.00  0.00    -0.289 N 
HETATM   28  H   UNL     1      45.659 -12.675   7.241  1.00  0.00     0.188 HD
HETATM   29  C   UNL     1      43.836 -12.840   6.116  1.00  0.00     0.123 A 
ENDBRANCH  20  24
ENDBRANCH   2  18
TORSDOF 6
ENDMDL
