MODEL 1
REMARK VINA RESULT:      -8.3      0.000      0.000
REMARK  6 active torsions:
REMARK  status: ('A' for Active; 'I' for Inactive)
REMARK    1  A    between atoms: O_2  and  C_3 
REMARK    2  A    between atoms: C_4  and  O_5 
REMARK    3  A    between atoms: O_5  and  C_6 
REMARK    4  A    between atoms: C_11  and  C_12 
REMARK    5  A    between atoms: C_12  and  N_13 
REMARK       I    between atoms: N_13  and  C_14 
REMARK    6  A    between atoms: C_14  and  C_15 
ROOT
HETATM    1  N   UNL     1      43.080 -13.052   4.460  1.00  0.00    -0.353 N 
HETATM    2  C   UNL     1      43.751 -11.850   4.498  1.00  0.00     0.252 C 
HETATM    3  O   UNL     1      44.007 -11.196   3.493  1.00  0.00    -0.268 OA
HETATM    4  H   UNL     1      43.091 -13.656   5.271  1.00  0.00     0.163 HD
ENDROOT
BRANCH   1   5
HETATM    5  C   UNL     1      42.708 -13.643   3.197  1.00  0.00     0.161 C 
BRANCH   5   6
HETATM    6  C   UNL     1      42.930 -15.132   3.227  1.00  0.00    -0.038 A 
HETATM    7  C   UNL     1      43.012 -15.863   2.035  1.00  0.00     0.012 A 
HETATM    8  C   UNL     1      43.266 -17.233   2.067  1.00  0.00     0.040 A 
HETATM    9  C   UNL     1      43.430 -17.882   3.292  1.00  0.00     0.108 A 
HETATM   10  C   UNL     1      43.383 -17.164   4.496  1.00  0.00     0.102 A 
HETATM   11  C   UNL     1      43.126 -15.791   4.455  1.00  0.00     0.048 A 
BRANCH   9  12
HETATM   12  O   UNL     1      43.732 -19.221   3.335  1.00  0.00    -0.287 OA
BRANCH  12  13
HETATM   13  C   UNL     1      43.551 -19.823   2.064  1.00  0.00     0.505 C 
HETATM   14  F   UNL     1      44.318 -20.943   2.000  1.00  0.00    -0.184 F 
HETATM   15  F   UNL     1      42.262 -20.240   1.987  1.00  0.00    -0.184 F 
ENDBRANCH  12  13
ENDBRANCH   9  12
BRANCH  10  16
HETATM   16  O   UNL     1      43.565 -17.893   5.642  1.00  0.00    -0.353 OA
HETATM   17  C   UNL     1      43.467 -17.189   6.875  1.00  0.00     0.210 C 
ENDBRANCH  10  16
ENDBRANCH   5   6
ENDBRANCH   1   5
BRANCH   2  18
HETATM   18  C   UNL     1      44.205 -11.377   5.838  1.00  0.00     0.034 A 
HETATM   19  C   UNL     1      43.295 -10.924   6.806  1.00  0.00     0.051 A 
HETATM   20  C   UNL     1      43.795 -10.503   8.047  1.00  0.00     0.085 A 
HETATM   21  C   UNL     1      45.165 -10.528   8.281  1.00  0.00     0.062 A 
HETATM   22  N   UNL     1      43.118 -10.033   9.145  1.00  0.00    -0.242 NA
HETATM   23  N   UNL     1      45.296 -10.057   9.563  1.00  0.00    -0.349 N 
HETATM   24  C   UNL     1      46.098 -10.954   7.336  1.00  0.00     0.033 A 
HETATM   25  H   UNL     1      46.163  -9.936  10.066  1.00  0.00     0.167 HD
HETATM   26  C   UNL     1      44.046  -9.776  10.038  1.00  0.00     0.208 A 
HETATM   27  C   UNL     1      45.585 -11.378   6.103  1.00  0.00     0.019 A 
ENDBRANCH   2  18
TORSDOF 6
ENDMDL
MODEL 2
REMARK VINA RESULT:      -8.3      5.586      8.326
REMARK  6 active torsions:
REMARK  status: ('A' for Active; 'I' for Inactive)
REMARK    1  A    between atoms: O_2  and  C_3 
REMARK    2  A    between atoms: C_4  and  O_5 
REMARK    3  A    between atoms: O_5  and  C_6 
REMARK    4  A    between atoms: C_11  and  C_12 
REMARK    5  A    between atoms: C_12  and  N_13 
REMARK       I    between atoms: N_13  and  C_14 
REMARK    6  A    between atoms: C_14  and  C_15 
ROOT
HETATM    1  N   UNL     1      41.514 -14.600   2.553  1.00  0.00    -0.353 N 
HETATM    2  C   UNL     1      42.838 -14.975   2.475  1.00  0.00     0.252 C 
HETATM    3  O   UNL     1      43.705 -14.263   1.981  1.00  0.00    -0.268 OA
HETATM    4  H   UNL     1      40.810 -15.296   2.756  1.00  0.00     0.163 HD
ENDROOT
BRANCH   1   5
HETATM    5  C   UNL     1      41.071 -13.356   1.971  1.00  0.00     0.161 C 
BRANCH   5   6
HETATM    6  C   UNL     1      40.671 -13.560   0.534  1.00  0.00    -0.038 A 
HETATM    7  C   UNL     1      39.964 -14.707   0.149  1.00  0.00     0.012 A 
HETATM    8  C   UNL     1      39.553 -14.869  -1.173  1.00  0.00     0.040 A 
HETATM    9  C   UNL     1      39.857 -13.890  -2.121  1.00  0.00     0.108 A 
HETATM   10  C   UNL     1      40.537 -12.721  -1.751  1.00  0.00     0.102 A 
HETATM   11  C   UNL     1      40.946 -12.567  -0.423  1.00  0.00     0.048 A 
BRANCH   9  12
HETATM   12  O   UNL     1      39.414 -14.014  -3.414  1.00  0.00    -0.287 OA
BRANCH  12  13
HETATM   13  C   UNL     1      38.135 -14.626  -3.457  1.00  0.00     0.505 C 
HETATM   14  F   UNL     1      37.191 -13.675  -3.232  1.00  0.00    -0.184 F 
HETATM   15  F   UNL     1      37.935 -15.069  -4.724  1.00  0.00    -0.184 F 
ENDBRANCH  12  13
ENDBRANCH   9  12
BRANCH  10  16
HETATM   16  O   UNL     1      40.778 -11.819  -2.754  1.00  0.00    -0.353 OA
HETATM   17  C   UNL     1      40.795 -10.442  -2.392  1.00  0.00     0.210 C 
ENDBRANCH  10  16
ENDBRANCH   5   6
ENDBRANCH   1   5
BRANCH   2  18
HETATM   18  C   UNL     1      43.182 -16.331   2.991  1.00  0.00     0.034 A 
HETATM   19  C   UNL     1      43.084 -17.473   2.182  1.00  0.00     0.051 A 
HETATM   20  C   UNL     1      43.433 -18.715   2.734  1.00  0.00     0.085 A 
HETATM   21  C   UNL     1      43.848 -18.787   4.059  1.00  0.00     0.062 A 
HETATM   22  N   UNL     1      43.432 -19.958   2.153  1.00  0.00    -0.242 NA
HETATM   23  N   UNL     1      44.099 -20.120   4.261  1.00  0.00    -0.349 N 
HETATM   24  C   UNL     1      43.938 -17.675   4.896  1.00  0.00     0.033 A 
HETATM   25  H   UNL     1      44.418 -20.541   5.122  1.00  0.00     0.167 HD
HETATM   26  C   UNL     1      43.837 -20.780   3.093  1.00  0.00     0.208 A 
HETATM   27  C   UNL     1      43.593 -16.440   4.331  1.00  0.00     0.019 A 
ENDBRANCH   2  18
TORSDOF 6
ENDMDL
MODEL 3
REMARK VINA RESULT:      -8.3      4.299      7.363
REMARK  6 active torsions:
REMARK  status: ('A' for Active; 'I' for Inactive)
REMARK    1  A    between atoms: O_2  and  C_3 
REMARK    2  A    between atoms: C_4  and  O_5 
REMARK    3  A    between atoms: O_5  and  C_6 
REMARK    4  A    between atoms: C_11  and  C_12 
REMARK    5  A    between atoms: C_12  and  N_13 
REMARK       I    between atoms: N_13  and  C_14 
REMARK    6  A    between atoms: C_14  and  C_15 
ROOT
HETATM    1  N   UNL     1      41.728 -13.691   1.835  1.00  0.00    -0.353 N 
HETATM    2  C   UNL     1      40.351 -13.694   1.816  1.00  0.00     0.252 C 
HETATM    3  O   UNL     1      39.669 -13.826   2.827  1.00  0.00    -0.268 OA
HETATM    4  H   UNL     1      42.239 -13.807   0.971  1.00  0.00     0.163 HD
ENDROOT
BRANCH   1   5
HETATM    5  C   UNL     1      42.444 -13.924   3.067  1.00  0.00     0.161 C 
BRANCH   5   6
HETATM    6  C   UNL     1      42.897 -15.357   3.148  1.00  0.00    -0.038 A 
HETATM    7  C   UNL     1      43.039 -16.125   1.985  1.00  0.00     0.012 A 
HETATM    8  C   UNL     1      43.505 -17.436   2.061  1.00  0.00     0.040 A 
HETATM    9  C   UNL     1      43.822 -17.992   3.302  1.00  0.00     0.108 A 
HETATM   10  C   UNL     1      43.717 -17.231   4.475  1.00  0.00     0.102 A 
HETATM   11  C   UNL     1      43.247 -15.917   4.390  1.00  0.00     0.048 A 
BRANCH   9  12
HETATM   12  O   UNL     1      44.330 -19.264   3.385  1.00  0.00    -0.287 OA
BRANCH  12  13
HETATM   13  C   UNL     1      43.509 -20.185   2.685  1.00  0.00     0.505 C 
HETATM   14  F   UNL     1      44.148 -20.557   1.544  1.00  0.00    -0.184 F 
HETATM   15  F   UNL     1      43.407 -21.304   3.447  1.00  0.00    -0.184 F 
ENDBRANCH  12  13
ENDBRANCH   9  12
BRANCH  10  16
HETATM   16  O   UNL     1      44.061 -17.866   5.640  1.00  0.00    -0.353 OA
HETATM   17  C   UNL     1      43.592 -17.287   6.852  1.00  0.00     0.210 C 
ENDBRANCH  10  16
ENDBRANCH   5   6
ENDBRANCH   1   5
BRANCH   2  18
HETATM   18  C   UNL     1      39.698 -13.570   0.481  1.00  0.00     0.034 A 
HETATM   19  C   UNL     1      39.688 -14.634  -0.435  1.00  0.00     0.051 A 
HETATM   20  C   UNL     1      39.048 -14.447  -1.669  1.00  0.00     0.085 A 
HETATM   21  C   UNL     1      38.459 -13.221  -1.960  1.00  0.00     0.062 A 
HETATM   22  N   UNL     1      38.895 -15.324  -2.714  1.00  0.00    -0.242 NA
HETATM   23  N   UNL     1      37.942 -13.387  -3.220  1.00  0.00    -0.349 N 
HETATM   24  C   UNL     1      38.467 -12.138  -1.081  1.00  0.00     0.033 A 
HETATM   25  H   UNL     1      37.442 -12.690  -3.754  1.00  0.00     0.167 HD
HETATM   26  C   UNL     1      38.227 -14.660  -3.628  1.00  0.00     0.208 A 
HETATM   27  C   UNL     1      39.105 -12.341   0.150  1.00  0.00     0.019 A 
ENDBRANCH   2  18
TORSDOF 6
ENDMDL
MODEL 4
REMARK VINA RESULT:      -7.9      5.641      8.316
REMARK  6 active torsions:
REMARK  status: ('A' for Active; 'I' for Inactive)
REMARK    1  A    between atoms: O_2  and  C_3 
REMARK    2  A    between atoms: C_4  and  O_5 
REMARK    3  A    between atoms: O_5  and  C_6 
REMARK    4  A    between atoms: C_11  and  C_12 
REMARK    5  A    between atoms: C_12  and  N_13 
REMARK       I    between atoms: N_13  and  C_14 
REMARK    6  A    between atoms: C_14  and  C_15 
ROOT
HETATM    1  N   UNL     1      41.504 -15.445   3.025  1.00  0.00    -0.353 N 
HETATM    2  C   UNL     1      42.795 -15.848   2.761  1.00  0.00     0.252 C 
HETATM    3  O   UNL     1      43.643 -15.101   2.287  1.00  0.00    -0.268 OA
HETATM    4  H   UNL     1      40.790 -16.139   3.197  1.00  0.00     0.163 HD
ENDROOT
BRANCH   1   5
HETATM    5  C   UNL     1      41.066 -14.114   2.676  1.00  0.00     0.161 C 
BRANCH   5   6
HETATM    6  C   UNL     1      40.715 -14.044   1.214  1.00  0.00    -0.038 A 
HETATM    7  C   UNL     1      39.975 -15.069   0.610  1.00  0.00     0.012 A 
HETATM    8  C   UNL     1      39.610 -14.977  -0.732  1.00  0.00     0.040 A 
HETATM    9  C   UNL     1      39.992 -13.863  -1.482  1.00  0.00     0.108 A 
HETATM   10  C   UNL     1      40.706 -12.811  -0.890  1.00  0.00     0.102 A 
HETATM   11  C   UNL     1      41.069 -12.913   0.456  1.00  0.00     0.048 A 
BRANCH   9  12
HETATM   12  O   UNL     1      39.595 -13.736  -2.790  1.00  0.00    -0.287 OA
BRANCH  12  13
HETATM   13  C   UNL     1      38.258 -14.179  -2.961  1.00  0.00     0.505 C 
HETATM   14  F   UNL     1      37.447 -13.092  -3.043  1.00  0.00    -0.184 F 
HETATM   15  F   UNL     1      38.184 -14.802  -4.164  1.00  0.00    -0.184 F 
ENDBRANCH  12  13
ENDBRANCH   9  12
BRANCH  10  16
HETATM   16  O   UNL     1      41.024 -11.760  -1.709  1.00  0.00    -0.353 OA
HETATM   17  C   UNL     1      40.351 -10.529  -1.468  1.00  0.00     0.210 C 
ENDBRANCH  10  16
ENDBRANCH   5   6
ENDBRANCH   1   5
BRANCH   2  18
HETATM   18  C   UNL     1      43.122 -17.276   3.040  1.00  0.00     0.034 A 
HETATM   19  C   UNL     1      43.496 -17.708   4.322  1.00  0.00     0.051 A 
HETATM   20  C   UNL     1      43.781 -19.068   4.511  1.00  0.00     0.085 A 
HETATM   21  C   UNL     1      43.703 -19.944   3.434  1.00  0.00     0.062 A 
HETATM   22  N   UNL     1      44.155 -19.730   5.654  1.00  0.00    -0.242 NA
HETATM   23  N   UNL     1      44.042 -21.163   3.966  1.00  0.00    -0.349 N 
HETATM   24  C   UNL     1      43.353 -19.545   2.144  1.00  0.00     0.033 A 
HETATM   25  H   UNL     1      44.094 -22.037   3.463  1.00  0.00     0.167 HD
HETATM   26  C   UNL     1      44.302 -20.984   5.295  1.00  0.00     0.208 A 
HETATM   27  C   UNL     1      43.065 -18.185   1.971  1.00  0.00     0.019 A 
ENDBRANCH   2  18
TORSDOF 6
ENDMDL
MODEL 5
REMARK VINA RESULT:      -7.4      4.818      8.768
REMARK  6 active torsions:
REMARK  status: ('A' for Active; 'I' for Inactive)
REMARK    1  A    between atoms: O_2  and  C_3 
REMARK    2  A    between atoms: C_4  and  O_5 
REMARK    3  A    between atoms: O_5  and  C_6 
REMARK    4  A    between atoms: C_11  and  C_12 
REMARK    5  A    between atoms: C_12  and  N_13 
REMARK       I    between atoms: N_13  and  C_14 
REMARK    6  A    between atoms: C_14  and  C_15 
ROOT
HETATM    1  N   UNL     1      42.398 -14.163   4.600  1.00  0.00    -0.353 N 
HETATM    2  C   UNL     1      42.973 -14.779   3.510  1.00  0.00     0.252 C 
HETATM    3  O   UNL     1      43.201 -14.196   2.456  1.00  0.00    -0.268 OA
HETATM    4  H   UNL     1      42.026 -14.726   5.352  1.00  0.00     0.163 HD
ENDROOT
BRANCH   1   5
HETATM    5  C   UNL     1      41.959 -12.790   4.517  1.00  0.00     0.161 C 
BRANCH   5   6
HETATM    6  C   UNL     1      42.490 -11.998   5.682  1.00  0.00    -0.038 A 
HETATM    7  C   UNL     1      43.668 -12.390   6.330  1.00  0.00     0.012 A 
HETATM    8  C   UNL     1      44.183 -11.626   7.377  1.00  0.00     0.040 A 
HETATM    9  C   UNL     1      43.516 -10.470   7.788  1.00  0.00     0.108 A 
HETATM   10  C   UNL     1      42.353 -10.043   7.132  1.00  0.00     0.102 A 
HETATM   11  C   UNL     1      41.843 -10.816   6.085  1.00  0.00     0.048 A 
BRANCH   9  12
HETATM   12  O   UNL     1      44.040  -9.683   8.782  1.00  0.00    -0.287 OA
BRANCH  12  13
HETATM   13  C   UNL     1      45.444  -9.855   8.881  1.00  0.00     0.505 C 
HETATM   14  F   UNL     1      46.055  -8.792   8.296  1.00  0.00    -0.184 F 
HETATM   15  F   UNL     1      45.772  -9.806  10.197  1.00  0.00    -0.184 F 
ENDBRANCH  12  13
ENDBRANCH   9  12
BRANCH  10  16
HETATM   16  O   UNL     1      41.781  -8.892   7.606  1.00  0.00    -0.353 OA
HETATM   17  C   UNL     1      40.477  -9.003   8.166  1.00  0.00     0.210 C 
ENDBRANCH  10  16
ENDBRANCH   5   6
ENDBRANCH   1   5
BRANCH   2  18
HETATM   18  C   UNL     1      43.280 -16.233   3.647  1.00  0.00     0.034 A 
HETATM   19  C   UNL     1      43.020 -17.141   2.608  1.00  0.00     0.051 A 
HETATM   20  C   UNL     1      43.343 -18.491   2.806  1.00  0.00     0.085 A 
HETATM   21  C   UNL     1      43.891 -18.898   4.018  1.00  0.00     0.062 A 
HETATM   22  N   UNL     1      43.197 -19.556   1.952  1.00  0.00    -0.242 NA
HETATM   23  N   UNL     1      44.074 -20.249   3.868  1.00  0.00    -0.349 N 
HETATM   24  C   UNL     1      44.145 -18.026   5.076  1.00  0.00     0.033 A 
HETATM   25  H   UNL     1      44.454 -20.878   4.560  1.00  0.00     0.167 HD
HETATM   26  C   UNL     1      43.645 -20.596   2.617  1.00  0.00     0.208 A 
HETATM   27  C   UNL     1      43.823 -16.679   4.863  1.00  0.00     0.019 A 
ENDBRANCH   2  18
TORSDOF 6
ENDMDL
MODEL 6
REMARK VINA RESULT:      -7.1      4.961      6.989
REMARK  6 active torsions:
REMARK  status: ('A' for Active; 'I' for Inactive)
REMARK    1  A    between atoms: O_2  and  C_3 
REMARK    2  A    between atoms: C_4  and  O_5 
REMARK    3  A    between atoms: O_5  and  C_6 
REMARK    4  A    between atoms: C_11  and  C_12 
REMARK    5  A    between atoms: C_12  and  N_13 
REMARK       I    between atoms: N_13  and  C_14 
REMARK    6  A    between atoms: C_14  and  C_15 
ROOT
HETATM    1  N   UNL     1      40.101 -14.503   1.125  1.00  0.00    -0.353 N 
HETATM    2  C   UNL     1      39.929 -14.273  -0.223  1.00  0.00     0.252 C 
HETATM    3  O   UNL     1      39.451 -15.104  -0.987  1.00  0.00    -0.268 OA
HETATM    4  H   UNL     1      40.698 -13.890   1.663  1.00  0.00     0.163 HD
ENDROOT
BRANCH   1   5
HETATM    5  C   UNL     1      39.787 -15.793   1.692  1.00  0.00     0.161 C 
BRANCH   5   6
HETATM    6  C   UNL     1      40.762 -16.136   2.787  1.00  0.00    -0.038 A 
HETATM    7  C   UNL     1      40.471 -15.825   4.122  1.00  0.00     0.012 A 
HETATM    8  C   UNL     1      41.354 -16.188   5.137  1.00  0.00     0.040 A 
HETATM    9  C   UNL     1      42.539 -16.857   4.823  1.00  0.00     0.108 A 
HETATM   10  C   UNL     1      42.835 -17.205   3.497  1.00  0.00     0.102 A 
HETATM   11  C   UNL     1      41.945 -16.835   2.485  1.00  0.00     0.048 A 
BRANCH   9  12
HETATM   12  O   UNL     1      43.391 -17.265   5.818  1.00  0.00    -0.287 OA
BRANCH  12  13
HETATM   13  C   UNL     1      43.993 -16.152   6.460  1.00  0.00     0.505 C 
HETATM   14  F   UNL     1      45.305 -16.433   6.678  1.00  0.00    -0.184 F 
HETATM   15  F   UNL     1      43.966 -15.112   5.588  1.00  0.00    -0.184 F 
ENDBRANCH  12  13
ENDBRANCH   9  12
BRANCH  10  16
HETATM   16  O   UNL     1      44.018 -17.867   3.297  1.00  0.00    -0.353 OA
HETATM   17  C   UNL     1      43.933 -19.212   2.837  1.00  0.00     0.210 C 
ENDBRANCH  10  16
ENDBRANCH   5   6
ENDBRANCH   1   5
BRANCH   2  18
HETATM   18  C   UNL     1      40.397 -12.955  -0.743  1.00  0.00     0.034 A 
HETATM   19  C   UNL     1      40.917 -11.970   0.111  1.00  0.00     0.051 A 
HETATM   20  C   UNL     1      41.345 -10.758  -0.451  1.00  0.00     0.085 A 
HETATM   21  C   UNL     1      41.231 -10.557  -1.822  1.00  0.00     0.062 A 
HETATM   22  N   UNL     1      41.892  -9.658   0.162  1.00  0.00    -0.242 NA
HETATM   23  N   UNL     1      41.728  -9.293  -2.019  1.00  0.00    -0.349 N 
HETATM   24  C   UNL     1      40.701 -11.507  -2.695  1.00  0.00     0.033 A 
HETATM   25  H   UNL     1      41.797  -8.813  -2.905  1.00  0.00     0.167 HD
HETATM   26  C   UNL     1      42.112  -8.797  -0.805  1.00  0.00     0.208 A 
HETATM   27  C   UNL     1      40.283 -12.715  -2.122  1.00  0.00     0.019 A 
ENDBRANCH   2  18
TORSDOF 6
ENDMDL
MODEL 7
REMARK VINA RESULT:      -7.0      4.590      6.954
REMARK  6 active torsions:
REMARK  status: ('A' for Active; 'I' for Inactive)
REMARK    1  A    between atoms: O_2  and  C_3 
REMARK    2  A    between atoms: C_4  and  O_5 
REMARK    3  A    between atoms: O_5  and  C_6 
REMARK    4  A    between atoms: C_11  and  C_12 
REMARK    5  A    between atoms: C_12  and  N_13 
REMARK       I    between atoms: N_13  and  C_14 
REMARK    6  A    between atoms: C_14  and  C_15 
ROOT
HETATM    1  N   UNL     1      40.376 -14.337   0.785  1.00  0.00    -0.353 N 
HETATM    2  C   UNL     1      39.969 -14.044  -0.498  1.00  0.00     0.252 C 
HETATM    3  O   UNL     1      39.329 -14.828  -1.190  1.00  0.00    -0.268 OA
HETATM    4  H   UNL     1      41.083 -13.765   1.227  1.00  0.00     0.163 HD
ENDROOT
BRANCH   1   5
HETATM    5  C   UNL     1      40.125 -15.640   1.354  1.00  0.00     0.161 C 
BRANCH   5   6
HETATM    6  C   UNL     1      41.196 -15.993   2.352  1.00  0.00    -0.038 A 
HETATM    7  C   UNL     1      41.942 -17.170   2.208  1.00  0.00     0.012 A 
HETATM    8  C   UNL     1      42.965 -17.468   3.107  1.00  0.00     0.040 A 
HETATM    9  C   UNL     1      43.242 -16.595   4.161  1.00  0.00     0.108 A 
HETATM   10  C   UNL     1      42.528 -15.397   4.305  1.00  0.00     0.102 A 
HETATM   11  C   UNL     1      41.503 -15.106   3.400  1.00  0.00     0.048 A 
BRANCH   9  12
HETATM   12  O   UNL     1      44.279 -16.852   5.022  1.00  0.00    -0.287 OA
BRANCH  12  13
HETATM   13  C   UNL     1      43.899 -17.799   6.008  1.00  0.00     0.505 C 
HETATM   14  F   UNL     1      42.552 -17.731   6.178  1.00  0.00    -0.184 F 
HETATM   15  F   UNL     1      44.159 -19.035   5.512  1.00  0.00    -0.184 F 
ENDBRANCH  12  13
ENDBRANCH   9  12
BRANCH  10  16
HETATM   16  O   UNL     1      42.884 -14.606   5.366  1.00  0.00    -0.353 OA
HETATM   17  C   UNL     1      41.902 -14.405   6.377  1.00  0.00     0.210 C 
ENDBRANCH  10  16
ENDBRANCH   5   6
ENDBRANCH   1   5
BRANCH   2  18
HETATM   18  C   UNL     1      40.380 -12.720  -1.046  1.00  0.00     0.034 A 
HETATM   19  C   UNL     1      41.033 -11.764  -0.251  1.00  0.00     0.051 A 
HETATM   20  C   UNL     1      41.397 -10.544  -0.838  1.00  0.00     0.085 A 
HETATM   21  C   UNL     1      41.092 -10.304  -2.174  1.00  0.00     0.062 A 
HETATM   22  N   UNL     1      42.043  -9.468  -0.283  1.00  0.00    -0.242 NA
HETATM   23  N   UNL     1      41.578  -9.043  -2.409  1.00  0.00    -0.349 N 
HETATM   24  C   UNL     1      40.429 -11.224  -2.986  1.00  0.00     0.033 A 
HETATM   25  H   UNL     1      41.529  -8.540  -3.283  1.00  0.00     0.167 HD
HETATM   26  C   UNL     1      42.139  -8.584  -1.250  1.00  0.00     0.208 A 
HETATM   27  C   UNL     1      40.076 -12.441  -2.389  1.00  0.00     0.019 A 
ENDBRANCH   2  18
TORSDOF 6
ENDMDL
MODEL 8
REMARK VINA RESULT:      -7.0     15.775     18.241
REMARK  6 active torsions:
REMARK  status: ('A' for Active; 'I' for Inactive)
REMARK    1  A    between atoms: O_2  and  C_3 
REMARK    2  A    between atoms: C_4  and  O_5 
REMARK    3  A    between atoms: O_5  and  C_6 
REMARK    4  A    between atoms: C_11  and  C_12 
REMARK    5  A    between atoms: C_12  and  N_13 
REMARK       I    between atoms: N_13  and  C_14 
REMARK    6  A    between atoms: C_14  and  C_15 
ROOT
HETATM    1  N   UNL     1      46.042 -28.490   0.462  1.00  0.00    -0.353 N 
HETATM    2  C   UNL     1      44.892 -29.044  -0.058  1.00  0.00     0.252 C 
HETATM    3  O   UNL     1      43.962 -29.429   0.641  1.00  0.00    -0.268 OA
HETATM    4  H   UNL     1      46.860 -28.399  -0.123  1.00  0.00     0.163 HD
ENDROOT
BRANCH   1   5
HETATM    5  C   UNL     1      46.233 -28.408   1.891  1.00  0.00     0.161 C 
BRANCH   5   6
HETATM    6  C   UNL     1      47.582 -28.957   2.272  1.00  0.00    -0.038 A 
HETATM    7  C   UNL     1      48.069 -28.803   3.577  1.00  0.00     0.012 A 
HETATM    8  C   UNL     1      49.296 -29.356   3.939  1.00  0.00     0.040 A 
HETATM    9  C   UNL     1      50.049 -30.057   2.995  1.00  0.00     0.108 A 
HETATM   10  C   UNL     1      49.566 -30.249   1.692  1.00  0.00     0.102 A 
HETATM   11  C   UNL     1      48.335 -29.691   1.338  1.00  0.00     0.048 A 
BRANCH   9  12
HETATM   12  O   UNL     1      51.235 -30.649   3.352  1.00  0.00    -0.287 OA
BRANCH  12  13
HETATM   13  C   UNL     1      51.102 -31.355   4.576  1.00  0.00     0.505 C 
HETATM   14  F   UNL     1      51.653 -32.589   4.428  1.00  0.00    -0.184 F 
HETATM   15  F   UNL     1      51.853 -30.711   5.505  1.00  0.00    -0.184 F 
ENDBRANCH  12  13
ENDBRANCH   9  12
BRANCH  10  16
HETATM   16  O   UNL     1      50.377 -30.960   0.846  1.00  0.00    -0.353 OA
HETATM   17  C   UNL     1      50.451 -30.511  -0.502  1.00  0.00     0.210 C 
ENDBRANCH  10  16
ENDBRANCH   5   6
ENDBRANCH   1   5
BRANCH   2  18
HETATM   18  C   UNL     1      44.836 -29.202  -1.540  1.00  0.00     0.034 A 
HETATM   19  C   UNL     1      44.488 -30.423  -2.138  1.00  0.00     0.051 A 
HETATM   20  C   UNL     1      44.447 -30.494  -3.538  1.00  0.00     0.085 A 
HETATM   21  C   UNL     1      44.764 -29.370  -4.293  1.00  0.00     0.062 A 
HETATM   22  N   UNL     1      44.130 -31.556  -4.348  1.00  0.00    -0.242 NA
HETATM   23  N   UNL     1      44.628 -29.789  -5.593  1.00  0.00    -0.349 N 
HETATM   24  C   UNL     1      45.132 -28.148  -3.732  1.00  0.00     0.033 A 
HETATM   25  H   UNL     1      44.784 -29.228  -6.417  1.00  0.00     0.167 HD
HETATM   26  C   UNL     1      44.246 -31.101  -5.575  1.00  0.00     0.208 A 
HETATM   27  C   UNL     1      45.163 -28.089  -2.333  1.00  0.00     0.019 A 
ENDBRANCH   2  18
TORSDOF 6
ENDMDL
MODEL 9
REMARK VINA RESULT:      -6.8      4.667      6.173
REMARK  6 active torsions:
REMARK  status: ('A' for Active; 'I' for Inactive)
REMARK    1  A    between atoms: O_2  and  C_3 
REMARK    2  A    between atoms: C_4  and  O_5 
REMARK    3  A    between atoms: O_5  and  C_6 
REMARK    4  A    between atoms: C_11  and  C_12 
REMARK    5  A    between atoms: C_12  and  N_13 
REMARK       I    between atoms: N_13  and  C_14 
REMARK    6  A    between atoms: C_14  and  C_15 
ROOT
HETATM    1  N   UNL     1      41.961 -14.624   1.378  1.00  0.00    -0.353 N 
HETATM    2  C   UNL     1      40.593 -14.672   1.226  1.00  0.00     0.252 C 
HETATM    3  O   UNL     1      39.988 -15.700   0.943  1.00  0.00    -0.268 OA
HETATM    4  H   UNL     1      42.431 -13.729   1.386  1.00  0.00     0.163 HD
ENDROOT
BRANCH   1   5
HETATM    5  C   UNL     1      42.767 -15.795   1.127  1.00  0.00     0.161 C 
BRANCH   5   6
HETATM    6  C   UNL     1      43.078 -16.505   2.418  1.00  0.00    -0.038 A 
HETATM    7  C   UNL     1      43.481 -17.846   2.413  1.00  0.00     0.012 A 
HETATM    8  C   UNL     1      43.814 -18.485   3.606  1.00  0.00     0.040 A 
HETATM    9  C   UNL     1      43.737 -17.789   4.813  1.00  0.00     0.108 A 
HETATM   10  C   UNL     1      43.365 -16.437   4.838  1.00  0.00     0.102 A 
HETATM   11  C   UNL     1      43.032 -15.805   3.637  1.00  0.00     0.048 A 
BRANCH   9  12
HETATM   12  O   UNL     1      44.111 -18.391   5.988  1.00  0.00    -0.287 OA
BRANCH  12  13
HETATM   13  C   UNL     1      43.412 -19.611   6.180  1.00  0.00     0.505 C 
HETATM   14  F   UNL     1      44.230 -20.640   5.834  1.00  0.00    -0.184 F 
HETATM   15  F   UNL     1      43.174 -19.743   7.509  1.00  0.00    -0.184 F 
ENDBRANCH  12  13
ENDBRANCH   9  12
BRANCH  10  16
HETATM   16  O   UNL     1      43.330 -15.843   6.072  1.00  0.00    -0.353 OA
HETATM   17  C   UNL     1      42.065 -15.784   6.723  1.00  0.00     0.210 C 
ENDBRANCH  10  16
ENDBRANCH   5   6
ENDBRANCH   1   5
BRANCH   2  18
HETATM   18  C   UNL     1      39.855 -13.385   1.384  1.00  0.00     0.034 A 
HETATM   19  C   UNL     1      39.418 -12.647   0.273  1.00  0.00     0.051 A 
HETATM   20  C   UNL     1      38.723 -11.450   0.499  1.00  0.00     0.085 A 
HETATM   21  C   UNL     1      38.499 -11.019   1.802  1.00  0.00     0.062 A 
HETATM   22  N   UNL     1      38.192 -10.566  -0.407  1.00  0.00    -0.242 NA
HETATM   23  N   UNL     1      37.812  -9.841   1.653  1.00  0.00    -0.349 N 
HETATM   24  C   UNL     1      38.935 -11.719   2.927  1.00  0.00     0.033 A 
HETATM   25  H   UNL     1      37.484  -9.246   2.401  1.00  0.00     0.167 HD
HETATM   26  C   UNL     1      37.651  -9.612   0.316  1.00  0.00     0.208 A 
HETATM   27  C   UNL     1      39.623 -12.915   2.687  1.00  0.00     0.019 A 
ENDBRANCH   2  18
TORSDOF 6
ENDMDL
MODEL 10
REMARK VINA RESULT:      -6.7      5.400      7.932
REMARK  6 active torsions:
REMARK  status: ('A' for Active; 'I' for Inactive)
REMARK    1  A    between atoms: O_2  and  C_3 
REMARK    2  A    between atoms: C_4  and  O_5 
REMARK    3  A    between atoms: O_5  and  C_6 
REMARK    4  A    between atoms: C_11  and  C_12 
REMARK    5  A    between atoms: C_12  and  N_13 
REMARK       I    between atoms: N_13  and  C_14 
REMARK    6  A    between atoms: C_14  and  C_15 
ROOT
HETATM    1  N   UNL     1      39.847 -14.597   0.432  1.00  0.00    -0.353 N 
HETATM    2  C   UNL     1      39.500 -14.544  -0.900  1.00  0.00     0.252 C 
HETATM    3  O   UNL     1      39.126 -15.526  -1.532  1.00  0.00    -0.268 OA
HETATM    4  H   UNL     1      40.357 -13.828   0.845  1.00  0.00     0.163 HD
ENDROOT
BRANCH   1   5
HETATM    5  C   UNL     1      39.859 -15.857   1.136  1.00  0.00     0.161 C 
BRANCH   5   6
HETATM    6  C   UNL     1      40.812 -15.799   2.300  1.00  0.00    -0.038 A 
HETATM    7  C   UNL     1      41.919 -16.655   2.356  1.00  0.00     0.012 A 
HETATM    8  C   UNL     1      42.825 -16.565   3.412  1.00  0.00     0.040 A 
HETATM    9  C   UNL     1      42.624 -15.624   4.423  1.00  0.00     0.108 A 
HETATM   10  C   UNL     1      41.539 -14.737   4.371  1.00  0.00     0.102 A 
HETATM   11  C   UNL     1      40.635 -14.836   3.310  1.00  0.00     0.048 A 
BRANCH   9  12
HETATM   12  O   UNL     1      43.535 -15.491   5.441  1.00  0.00    -0.287 OA
BRANCH  12  13
HETATM   13  C   UNL     1      44.193 -16.721   5.697  1.00  0.00     0.505 C 
HETATM   14  F   UNL     1      45.348 -16.465   6.366  1.00  0.00    -0.184 F 
HETATM   15  F   UNL     1      43.411 -17.435   6.547  1.00  0.00    -0.184 F 
ENDBRANCH  12  13
ENDBRANCH   9  12
BRANCH  10  16
HETATM   16  O   UNL     1      41.436 -13.846   5.407  1.00  0.00    -0.353 OA
HETATM   17  C   UNL     1      40.175 -13.762   6.061  1.00  0.00     0.210 C 
ENDBRANCH  10  16
ENDBRANCH   5   6
ENDBRANCH   1   5
BRANCH   2  18
HETATM   18  C   UNL     1      39.636 -13.222  -1.577  1.00  0.00     0.034 A 
HETATM   19  C   UNL     1      38.777 -12.151  -1.282  1.00  0.00     0.051 A 
HETATM   20  C   UNL     1      38.971 -10.935  -1.952  1.00  0.00     0.085 A 
HETATM   21  C   UNL     1      39.988 -10.823  -2.894  1.00  0.00     0.062 A 
HETATM   22  N   UNL     1      38.281  -9.754  -1.834  1.00  0.00    -0.242 NA
HETATM   23  N   UNL     1      39.889  -9.530  -3.344  1.00  0.00    -0.349 N 
HETATM   24  C   UNL     1      40.846 -11.871  -3.225  1.00  0.00     0.033 A 
HETATM   25  H   UNL     1      40.475  -9.098  -4.044  1.00  0.00     0.167 HD
HETATM   26  C   UNL     1      38.855  -8.931  -2.680  1.00  0.00     0.208 A 
HETATM   27  C   UNL     1      40.645 -13.079  -2.544  1.00  0.00     0.019 A 
ENDBRANCH   2  18
TORSDOF 6
ENDMDL
