MODEL 1
REMARK VINA RESULT:      -8.7      0.000      0.000
REMARK  3 active torsions:
REMARK  status: ('A' for Active; 'I' for Inactive)
REMARK    1  A    between atoms: C_4  and  C_5 
REMARK    2  A    between atoms: C_11  and  C_12 
REMARK    3  A    between atoms: C_21  and  N_22 
ROOT
HETATM    1  C   UNL     1      43.999 -17.086   5.357  1.00  0.00     0.098 A 
HETATM    2  N   UNL     1      44.955 -16.928   6.291  1.00  0.00    -0.172 NA
HETATM    3  N   UNL     1      44.767 -15.680   6.763  1.00  0.00    -0.256 N 
HETATM    4  H   UNL     1      45.379 -15.336   7.494  1.00  0.00     0.191 HD
HETATM    5  C   UNL     1      43.739 -15.037   6.156  1.00  0.00     0.175 A 
HETATM    6  C   UNL     1      43.230 -15.896   5.219  1.00  0.00     0.036 A 
HETATM    7  C   UNL     1      42.120 -15.458   4.301  1.00  0.00     0.076 C 
HETATM    8  C   UNL     1      41.587 -14.098   4.811  1.00  0.00     0.063 C 
HETATM    9  C   UNL     1      40.279 -13.609   4.210  1.00  0.00     0.020 C 
HETATM   10  N   UNL     1      39.194 -13.204   3.712  1.00  0.00    -0.096 N 
HETATM   11  C   UNL     1      42.187 -13.360   5.784  1.00  0.00     0.139 C 
HETATM   12  O   UNL     1      43.343 -13.806   6.445  1.00  0.00    -0.279 OA
ENDROOT
BRANCH   7  13
HETATM   13  C   UNL     1      42.615 -15.524   2.807  1.00  0.00     0.003 C 
HETATM   14  C   UNL     1      43.230 -14.218   2.269  1.00  0.00     0.032 C 
HETATM   15  C   UNL     1      42.281 -13.358   1.497  1.00  0.00    -0.030 C 
HETATM   16  C   UNL     1      41.129 -13.804   0.984  1.00  0.00    -0.031 C 
HETATM   17  C   UNL     1      40.647 -15.214   1.113  1.00  0.00     0.027 C 
HETATM   18  C   UNL     1      41.618 -16.160   1.817  1.00  0.00     0.009 C 
ENDBRANCH   7  13
BRANCH  11  19
HETATM   19  N   UNL     1      41.746 -12.144   6.252  1.00  0.00    -0.282 NA
HETATM   20  H   UNL     1      42.217 -11.324   5.880  1.00  0.00     0.126 HD
HETATM   21  H   UNL     1      40.732 -12.068   6.230  1.00  0.00     0.126 HD
ENDBRANCH  11  19
BRANCH   1  22
HETATM   22  C   UNL     1      43.884 -18.328   4.599  1.00  0.00    -0.005 A 
HETATM   23  C   UNL     1      43.831 -18.311   3.199  1.00  0.00     0.014 A 
HETATM   24  C   UNL     1      43.775 -19.508   2.481  1.00  0.00     0.001 A 
HETATM   25  C   UNL     1      43.771 -20.727   3.156  1.00  0.00     0.000 A 
HETATM   26  C   UNL     1      43.812 -20.754   4.550  1.00  0.00     0.001 A 
HETATM   27  C   UNL     1      43.863 -19.558   5.269  1.00  0.00     0.014 A 
ENDBRANCH   1  22
TORSDOF 3
ENDMDL
MODEL 2
REMARK VINA RESULT:      -8.5      2.374      5.468
REMARK  3 active torsions:
REMARK  status: ('A' for Active; 'I' for Inactive)
REMARK    1  A    between atoms: C_4  and  C_5 
REMARK    2  A    between atoms: C_11  and  C_12 
REMARK    3  A    between atoms: C_21  and  N_22 
ROOT
HETATM    1  C   UNL     1      43.481 -14.631   7.177  1.00  0.00     0.098 A 
HETATM    2  N   UNL     1      43.314 -14.858   8.494  1.00  0.00    -0.172 NA
HETATM    3  N   UNL     1      43.259 -16.199   8.603  1.00  0.00    -0.256 N 
HETATM    4  H   UNL     1      43.140 -16.612   9.521  1.00  0.00     0.191 HD
HETATM    5  C   UNL     1      43.371 -16.830   7.408  1.00  0.00     0.175 A 
HETATM    6  C   UNL     1      43.488 -15.856   6.453  1.00  0.00     0.036 A 
HETATM    7  C   UNL     1      43.548 -16.217   4.992  1.00  0.00     0.076 C 
HETATM    8  C   UNL     1      43.716 -17.752   4.887  1.00  0.00     0.063 C 
HETATM    9  C   UNL     1      44.086 -18.305   3.520  1.00  0.00     0.020 C 
HETATM   10  N   UNL     1      44.394 -18.764   2.387  1.00  0.00    -0.096 N 
HETATM   11  C   UNL     1      43.602 -18.606   5.940  1.00  0.00     0.139 C 
HETATM   12  O   UNL     1      43.358 -18.145   7.244  1.00  0.00    -0.279 OA
ENDROOT
BRANCH   7  13
HETATM   13  C   UNL     1      42.324 -15.572   4.240  1.00  0.00     0.003 C 
HETATM   14  C   UNL     1      41.386 -16.576   3.545  1.00  0.00     0.032 C 
HETATM   15  C   UNL     1      41.663 -16.779   2.090  1.00  0.00    -0.030 C 
HETATM   16  C   UNL     1      42.383 -15.929   1.348  1.00  0.00    -0.031 C 
HETATM   17  C   UNL     1      42.997 -14.672   1.877  1.00  0.00     0.027 C 
HETATM   18  C   UNL     1      42.674 -14.369   3.339  1.00  0.00     0.009 C 
ENDBRANCH   7  13
BRANCH  11  19
HETATM   19  N   UNL     1      43.734 -19.973   5.878  1.00  0.00    -0.282 NA
HETATM   20  H   UNL     1      44.087 -20.350   5.002  1.00  0.00     0.126 HD
HETATM   21  H   UNL     1      44.205 -20.352   6.696  1.00  0.00     0.126 HD
ENDBRANCH  11  19
BRANCH   1  22
HETATM   22  C   UNL     1      43.575 -13.271   6.653  1.00  0.00    -0.005 A 
HETATM   23  C   UNL     1      42.423 -12.561   6.295  1.00  0.00     0.014 A 
HETATM   24  C   UNL     1      42.519 -11.241   5.845  1.00  0.00     0.001 A 
HETATM   25  C   UNL     1      43.766 -10.626   5.750  1.00  0.00     0.000 A 
HETATM   26  C   UNL     1      44.920 -11.329   6.095  1.00  0.00     0.001 A 
HETATM   27  C   UNL     1      44.826 -12.649   6.540  1.00  0.00     0.014 A 
ENDBRANCH   1  22
TORSDOF 3
ENDMDL
MODEL 3
REMARK VINA RESULT:      -8.3      1.780      2.433
REMARK  3 active torsions:
REMARK  status: ('A' for Active; 'I' for Inactive)
REMARK    1  A    between atoms: C_4  and  C_5 
REMARK    2  A    between atoms: C_11  and  C_12 
REMARK    3  A    between atoms: C_21  and  N_22 
ROOT
HETATM    1  C   UNL     1      42.203 -16.145   5.415  1.00  0.00     0.098 A 
HETATM    2  N   UNL     1      42.404 -16.290   6.738  1.00  0.00    -0.172 NA
HETATM    3  N   UNL     1      41.699 -15.290   7.301  1.00  0.00    -0.256 N 
HETATM    4  H   UNL     1      41.696 -15.201   8.310  1.00  0.00     0.191 HD
HETATM    5  C   UNL     1      41.071 -14.510   6.388  1.00  0.00     0.175 A 
HETATM    6  C   UNL     1      41.391 -15.006   5.152  1.00  0.00     0.036 A 
HETATM    7  C   UNL     1      40.918 -14.313   3.901  1.00  0.00     0.076 C 
HETATM    8  C   UNL     1      39.892 -13.231   4.314  1.00  0.00     0.063 C 
HETATM    9  C   UNL     1      39.074 -12.606   3.196  1.00  0.00     0.020 C 
HETATM   10  N   UNL     1      38.394 -12.088   2.268  1.00  0.00    -0.096 N 
HETATM   11  C   UNL     1      39.652 -12.858   5.600  1.00  0.00     0.139 C 
HETATM   12  O   UNL     1      40.307 -13.468   6.683  1.00  0.00    -0.279 OA
ENDROOT
BRANCH   7  13
HETATM   13  C   UNL     1      42.163 -13.842   3.060  1.00  0.00     0.003 C 
HETATM   14  C   UNL     1      42.769 -12.494   3.495  1.00  0.00     0.032 C 
HETATM   15  C   UNL     1      42.292 -11.316   2.707  1.00  0.00    -0.030 C 
HETATM   16  C   UNL     1      41.702 -11.417   1.510  1.00  0.00    -0.031 C 
HETATM   17  C   UNL     1      41.448 -12.714   0.810  1.00  0.00     0.027 C 
HETATM   18  C   UNL     1      41.993 -13.947   1.530  1.00  0.00     0.009 C 
ENDBRANCH   7  13
BRANCH  11  19
HETATM   19  N   UNL     1      38.756 -11.894   5.999  1.00  0.00    -0.282 NA
HETATM   20  H   UNL     1      38.262 -11.407   5.256  1.00  0.00     0.126 HD
HETATM   21  H   UNL     1      38.142 -12.222   6.740  1.00  0.00     0.126 HD
ENDBRANCH  11  19
BRANCH   1  22
HETATM   22  C   UNL     1      42.825 -17.051   4.454  1.00  0.00    -0.005 A 
HETATM   23  C   UNL     1      43.956 -17.801   4.804  1.00  0.00     0.014 A 
HETATM   24  C   UNL     1      44.511 -18.705   3.895  1.00  0.00     0.001 A 
HETATM   25  C   UNL     1      43.943 -18.865   2.633  1.00  0.00     0.000 A 
HETATM   26  C   UNL     1      42.824 -18.115   2.272  1.00  0.00     0.001 A 
HETATM   27  C   UNL     1      42.270 -17.207   3.177  1.00  0.00     0.014 A 
ENDBRANCH   1  22
TORSDOF 3
ENDMDL
MODEL 4
REMARK VINA RESULT:      -8.2      2.422      3.939
REMARK  3 active torsions:
REMARK  status: ('A' for Active; 'I' for Inactive)
REMARK    1  A    between atoms: C_4  and  C_5 
REMARK    2  A    between atoms: C_11  and  C_12 
REMARK    3  A    between atoms: C_21  and  N_22 
ROOT
HETATM    1  C   UNL     1      41.264 -15.956   5.181  1.00  0.00     0.098 A 
HETATM    2  N   UNL     1      40.524 -16.545   6.138  1.00  0.00    -0.172 NA
HETATM    3  N   UNL     1      39.799 -15.543   6.672  1.00  0.00    -0.256 N 
HETATM    4  H   UNL     1      39.151 -15.754   7.423  1.00  0.00     0.191 HD
HETATM    5  C   UNL     1      40.060 -14.342   6.101  1.00  0.00     0.175 A 
HETATM    6  C   UNL     1      41.022 -14.554   5.151  1.00  0.00     0.036 A 
HETATM    7  C   UNL     1      41.605 -13.399   4.379  1.00  0.00     0.076 C 
HETATM    8  C   UNL     1      40.755 -12.143   4.684  1.00  0.00     0.063 C 
HETATM    9  C   UNL     1      40.985 -10.932   3.796  1.00  0.00     0.020 C 
HETATM   10  N   UNL     1      41.174  -9.927   3.058  1.00  0.00    -0.096 N 
HETATM   11  C   UNL     1      39.798 -12.086   5.650  1.00  0.00     0.139 C 
HETATM   12  O   UNL     1      39.474 -13.202   6.439  1.00  0.00    -0.279 OA
ENDROOT
BRANCH   7  13
HETATM   13  C   UNL     1      43.153 -13.308   4.659  1.00  0.00     0.003 C 
HETATM   14  C   UNL     1      43.609 -13.928   5.993  1.00  0.00     0.032 C 
HETATM   15  C   UNL     1      43.753 -12.949   7.115  1.00  0.00    -0.030 C 
HETATM   16  C   UNL     1      43.853 -11.627   6.934  1.00  0.00    -0.031 C 
HETATM   17  C   UNL     1      43.837 -10.962   5.594  1.00  0.00     0.027 C 
HETATM   18  C   UNL     1      43.779 -11.921   4.405  1.00  0.00     0.009 C 
ENDBRANCH   7  13
BRANCH  11  19
HETATM   19  N   UNL     1      39.034 -10.984   5.954  1.00  0.00    -0.282 NA
HETATM   20  H   UNL     1      39.489 -10.081   5.848  1.00  0.00     0.126 HD
HETATM   21  H   UNL     1      38.114 -11.022   5.523  1.00  0.00     0.126 HD
ENDBRANCH  11  19
BRANCH   1  22
HETATM   22  C   UNL     1      42.203 -16.728   4.372  1.00  0.00    -0.005 A 
HETATM   23  C   UNL     1      43.251 -17.437   4.973  1.00  0.00     0.014 A 
HETATM   24  C   UNL     1      44.112 -18.216   4.196  1.00  0.00     0.001 A 
HETATM   25  C   UNL     1      43.932 -18.291   2.816  1.00  0.00     0.000 A 
HETATM   26  C   UNL     1      42.897 -17.580   2.208  1.00  0.00     0.001 A 
HETATM   27  C   UNL     1      42.039 -16.797   2.982  1.00  0.00     0.014 A 
ENDBRANCH   1  22
TORSDOF 3
ENDMDL
MODEL 5
REMARK VINA RESULT:      -8.0      2.500      6.393
REMARK  3 active torsions:
REMARK  status: ('A' for Active; 'I' for Inactive)
REMARK    1  A    between atoms: C_4  and  C_5 
REMARK    2  A    between atoms: C_11  and  C_12 
REMARK    3  A    between atoms: C_21  and  N_22 
ROOT
HETATM    1  C   UNL     1      39.396 -12.262   0.959  1.00  0.00     0.098 A 
HETATM    2  N   UNL     1      38.247 -11.574   1.091  1.00  0.00    -0.172 NA
HETATM    3  N   UNL     1      38.060 -11.474   2.420  1.00  0.00    -0.256 N 
HETATM    4  H   UNL     1      37.244 -10.981   2.765  1.00  0.00     0.191 HD
HETATM    5  C   UNL     1      39.036 -12.083   3.137  1.00  0.00     0.175 A 
HETATM    6  C   UNL     1      39.908 -12.632   2.235  1.00  0.00     0.036 A 
HETATM    7  C   UNL     1      41.076 -13.460   2.703  1.00  0.00     0.076 C 
HETATM    8  C   UNL     1      41.184 -13.306   4.239  1.00  0.00     0.063 C 
HETATM    9  C   UNL     1      42.459 -13.822   4.887  1.00  0.00     0.020 C 
HETATM   10  N   UNL     1      43.517 -14.248   5.425  1.00  0.00    -0.096 N 
HETATM   11  C   UNL     1      40.244 -12.701   5.014  1.00  0.00     0.139 C 
HETATM   12  O   UNL     1      39.091 -12.119   4.461  1.00  0.00    -0.279 OA
ENDROOT
BRANCH   7  13
HETATM   13  C   UNL     1      40.945 -14.922   2.132  1.00  0.00     0.003 C 
HETATM   14  C   UNL     1      40.684 -16.012   3.190  1.00  0.00     0.032 C 
HETATM   15  C   UNL     1      41.910 -16.730   3.656  1.00  0.00    -0.030 C 
HETATM   16  C   UNL     1      43.069 -16.726   2.986  1.00  0.00    -0.031 C 
HETATM   17  C   UNL     1      43.284 -16.009   1.692  1.00  0.00     0.027 C 
HETATM   18  C   UNL     1      42.040 -15.328   1.123  1.00  0.00     0.009 C 
ENDBRANCH   7  13
BRANCH  11  19
HETATM   19  N   UNL     1      40.305 -12.558   6.380  1.00  0.00    -0.282 NA
HETATM   20  H   UNL     1      40.043 -13.373   6.928  1.00  0.00     0.126 HD
HETATM   21  H   UNL     1      41.178 -12.134   6.684  1.00  0.00     0.126 HD
ENDBRANCH  11  19
BRANCH   1  22
HETATM   22  C   UNL     1      39.934 -12.587  -0.358  1.00  0.00    -0.005 A 
HETATM   23  C   UNL     1      39.508 -13.732  -1.044  1.00  0.00     0.014 A 
HETATM   24  C   UNL     1      39.989 -14.005  -2.327  1.00  0.00     0.001 A 
HETATM   25  C   UNL     1      40.896 -13.138  -2.931  1.00  0.00     0.000 A 
HETATM   26  C   UNL     1      41.334 -12.001  -2.253  1.00  0.00     0.001 A 
HETATM   27  C   UNL     1      40.859 -11.729  -0.968  1.00  0.00     0.014 A 
ENDBRANCH   1  22
TORSDOF 3
ENDMDL
MODEL 6
REMARK VINA RESULT:      -7.9      3.527      5.524
REMARK  3 active torsions:
REMARK  status: ('A' for Active; 'I' for Inactive)
REMARK    1  A    between atoms: C_4  and  C_5 
REMARK    2  A    between atoms: C_11  and  C_12 
REMARK    3  A    between atoms: C_21  and  N_22 
ROOT
HETATM    1  C   UNL     1      42.115 -12.723   2.357  1.00  0.00     0.098 A 
HETATM    2  N   UNL     1      42.987 -11.970   3.053  1.00  0.00    -0.172 NA
HETATM    3  N   UNL     1      42.636 -10.700   2.776  1.00  0.00    -0.256 N 
HETATM    4  H   UNL     1      43.159  -9.943   3.202  1.00  0.00     0.191 HD
HETATM    5  C   UNL     1      41.587 -10.617   1.922  1.00  0.00     0.175 A 
HETATM    6  C   UNL     1      41.234 -11.900   1.601  1.00  0.00     0.036 A 
HETATM    7  C   UNL     1      40.144 -12.167   0.596  1.00  0.00     0.076 C 
HETATM    8  C   UNL     1      39.437 -10.824   0.291  1.00  0.00     0.063 C 
HETATM    9  C   UNL     1      38.126 -10.903  -0.474  1.00  0.00     0.020 C 
HETATM   10  N   UNL     1      37.038 -10.967  -1.108  1.00  0.00    -0.096 N 
HETATM   11  C   UNL     1      39.891  -9.611   0.707  1.00  0.00     0.139 C 
HETATM   12  O   UNL     1      41.044  -9.484   1.500  1.00  0.00    -0.279 OA
ENDROOT
BRANCH   7  13
HETATM   13  C   UNL     1      40.738 -12.963  -0.626  1.00  0.00     0.003 C 
HETATM   14  C   UNL     1      41.030 -12.111  -1.877  1.00  0.00     0.032 C 
HETATM   15  C   UNL     1      39.944 -12.127  -2.905  1.00  0.00    -0.030 C 
HETATM   16  C   UNL     1      38.984 -13.058  -2.951  1.00  0.00    -0.031 C 
HETATM   17  C   UNL     1      38.874 -14.195  -1.986  1.00  0.00     0.027 C 
HETATM   18  C   UNL     1      40.007 -14.279  -0.964  1.00  0.00     0.009 C 
ENDBRANCH   7  13
BRANCH  11  19
HETATM   19  N   UNL     1      39.294  -8.401   0.444  1.00  0.00    -0.282 NA
HETATM   20  H   UNL     1      39.883  -7.579   0.547  1.00  0.00     0.126 HD
HETATM   21  H   UNL     1      38.769  -8.411  -0.426  1.00  0.00     0.126 HD
ENDBRANCH  11  19
BRANCH   1  22
HETATM   22  C   UNL     1      42.182 -14.181   2.393  1.00  0.00    -0.005 A 
HETATM   23  C   UNL     1      41.144 -14.932   2.959  1.00  0.00     0.014 A 
HETATM   24  C   UNL     1      41.192 -16.328   2.940  1.00  0.00     0.001 A 
HETATM   25  C   UNL     1      42.275 -16.981   2.357  1.00  0.00     0.000 A 
HETATM   26  C   UNL     1      43.319 -16.242   1.799  1.00  0.00     0.001 A 
HETATM   27  C   UNL     1      43.275 -14.846   1.822  1.00  0.00     0.014 A 
ENDBRANCH   1  22
TORSDOF 3
ENDMDL
MODEL 7
REMARK VINA RESULT:      -7.9     13.871     15.877
REMARK  3 active torsions:
REMARK  status: ('A' for Active; 'I' for Inactive)
REMARK    1  A    between atoms: C_4  and  C_5 
REMARK    2  A    between atoms: C_11  and  C_12 
REMARK    3  A    between atoms: C_21  and  N_22 
ROOT
HETATM    1  C   UNL     1      50.072 -30.311   1.257  1.00  0.00     0.098 A 
HETATM    2  N   UNL     1      50.661 -29.803   2.356  1.00  0.00    -0.172 NA
HETATM    3  N   UNL     1      49.662 -29.201   3.029  1.00  0.00    -0.256 N 
HETATM    4  H   UNL     1      49.870 -28.745   3.910  1.00  0.00     0.191 HD
HETATM    5  C   UNL     1      48.468 -29.295   2.394  1.00  0.00     0.175 A 
HETATM    6  C   UNL     1      48.689 -29.979   1.229  1.00  0.00     0.036 A 
HETATM    7  C   UNL     1      47.573 -30.187   0.239  1.00  0.00     0.076 C 
HETATM    8  C   UNL     1      46.250 -29.751   0.911  1.00  0.00     0.063 C 
HETATM    9  C   UNL     1      44.963 -30.141   0.202  1.00  0.00     0.020 C 
HETATM   10  N   UNL     1      43.896 -30.466  -0.385  1.00  0.00    -0.096 N 
HETATM   11  C   UNL     1      46.179 -29.097   2.103  1.00  0.00     0.139 C 
HETATM   12  O   UNL     1      47.328 -28.795   2.852  1.00  0.00    -0.279 OA
ENDROOT
BRANCH   7  13
HETATM   13  C   UNL     1      47.949 -29.500  -1.127  1.00  0.00     0.003 C 
HETATM   14  C   UNL     1      47.437 -28.056  -1.291  1.00  0.00     0.032 C 
HETATM   15  C   UNL     1      46.149 -27.935  -2.041  1.00  0.00    -0.030 C 
HETATM   16  C   UNL     1      45.658 -28.901  -2.827  1.00  0.00    -0.031 C 
HETATM   17  C   UNL     1      46.332 -30.216  -3.055  1.00  0.00     0.027 C 
HETATM   18  C   UNL     1      47.696 -30.362  -2.382  1.00  0.00     0.009 C 
ENDBRANCH   7  13
BRANCH  11  19
HETATM   19  N   UNL     1      45.022 -28.686   2.721  1.00  0.00    -0.282 NA
HETATM   20  H   UNL     1      44.226 -28.512   2.113  1.00  0.00     0.126 HD
HETATM   21  H   UNL     1      44.791 -29.261   3.527  1.00  0.00     0.126 HD
ENDBRANCH  11  19
BRANCH   1  22
HETATM   22  C   UNL     1      50.846 -31.040   0.256  1.00  0.00    -0.005 A 
HETATM   23  C   UNL     1      51.082 -30.487  -1.009  1.00  0.00     0.014 A 
HETATM   24  C   UNL     1      51.869 -31.169  -1.941  1.00  0.00     0.001 A 
HETATM   25  C   UNL     1      52.423 -32.405  -1.615  1.00  0.00     0.000 A 
HETATM   26  C   UNL     1      52.184 -32.969  -0.362  1.00  0.00     0.001 A 
HETATM   27  C   UNL     1      51.394 -32.291   0.569  1.00  0.00     0.014 A 
ENDBRANCH   1  22
TORSDOF 3
ENDMDL
MODEL 8
REMARK VINA RESULT:      -7.8     14.270     16.077
REMARK  3 active torsions:
REMARK  status: ('A' for Active; 'I' for Inactive)
REMARK    1  A    between atoms: C_4  and  C_5 
REMARK    2  A    between atoms: C_11  and  C_12 
REMARK    3  A    between atoms: C_21  and  N_22 
ROOT
HETATM    1  C   UNL     1      45.093 -29.807  -0.749  1.00  0.00     0.098 A 
HETATM    2  N   UNL     1      44.953 -29.197  -1.941  1.00  0.00    -0.172 NA
HETATM    3  N   UNL     1      46.213 -28.977  -2.361  1.00  0.00    -0.256 N 
HETATM    4  H   UNL     1      46.360 -28.525  -3.256  1.00  0.00     0.191 HD
HETATM    5  C   UNL     1      47.146 -29.411  -1.477  1.00  0.00     0.175 A 
HETATM    6  C   UNL     1      46.469 -29.929  -0.406  1.00  0.00     0.036 A 
HETATM    7  C   UNL     1      47.214 -30.428   0.804  1.00  0.00     0.076 C 
HETATM    8  C   UNL     1      48.721 -30.468   0.454  1.00  0.00     0.063 C 
HETATM    9  C   UNL     1      49.627 -31.207   1.424  1.00  0.00     0.020 C 
HETATM   10  N   UNL     1      50.379 -31.822   2.228  1.00  0.00    -0.096 N 
HETATM   11  C   UNL     1      49.255 -29.932  -0.677  1.00  0.00     0.139 C 
HETATM   12  O   UNL     1      48.456 -29.322  -1.658  1.00  0.00    -0.279 OA
ENDROOT
BRANCH   7  13
HETATM   13  C   UNL     1      46.789 -29.587   2.066  1.00  0.00     0.003 C 
HETATM   14  C   UNL     1      47.684 -28.370   2.367  1.00  0.00     0.032 C 
HETATM   15  C   UNL     1      48.749 -28.620   3.387  1.00  0.00    -0.030 C 
HETATM   16  C   UNL     1      48.726 -29.648   4.243  1.00  0.00    -0.031 C 
HETATM   17  C   UNL     1      47.637 -30.673   4.290  1.00  0.00     0.027 C 
HETATM   18  C   UNL     1      46.478 -30.419   3.328  1.00  0.00     0.009 C 
ENDBRANCH   7  13
BRANCH  11  19
HETATM   19  N   UNL     1      50.589 -29.941  -1.012  1.00  0.00    -0.282 NA
HETATM   20  H   UNL     1      51.095 -29.072  -0.860  1.00  0.00     0.126 HD
HETATM   21  H   UNL     1      51.073 -30.756  -0.645  1.00  0.00     0.126 HD
ENDBRANCH  11  19
BRANCH   1  22
HETATM   22  C   UNL     1      43.928 -30.202   0.037  1.00  0.00    -0.005 A 
HETATM   23  C   UNL     1      43.579 -31.551   0.173  1.00  0.00     0.014 A 
HETATM   24  C   UNL     1      42.494 -31.922   0.972  1.00  0.00     0.001 A 
HETATM   25  C   UNL     1      41.753 -30.948   1.638  1.00  0.00     0.000 A 
HETATM   26  C   UNL     1      42.086 -29.601   1.500  1.00  0.00     0.001 A 
HETATM   27  C   UNL     1      43.167 -29.228   0.698  1.00  0.00     0.014 A 
ENDBRANCH   1  22
TORSDOF 3
ENDMDL
MODEL 9
REMARK VINA RESULT:      -7.7     14.186     15.840
REMARK  3 active torsions:
REMARK  status: ('A' for Active; 'I' for Inactive)
REMARK    1  A    between atoms: C_4  and  C_5 
REMARK    2  A    between atoms: C_11  and  C_12 
REMARK    3  A    between atoms: C_21  and  N_22 
ROOT
HETATM    1  C   UNL     1      44.246 -29.826   0.066  1.00  0.00     0.098 A 
HETATM    2  N   UNL     1      43.022 -30.209   0.475  1.00  0.00    -0.172 NA
HETATM    3  N   UNL     1      43.190 -30.567   1.763  1.00  0.00    -0.256 N 
HETATM    4  H   UNL     1      42.387 -30.891   2.290  1.00  0.00     0.191 HD
HETATM    5  C   UNL     1      44.472 -30.438   2.182  1.00  0.00     0.175 A 
HETATM    6  C   UNL     1      45.198 -29.990   1.111  1.00  0.00     0.036 A 
HETATM    7  C   UNL     1      46.691 -29.818   1.214  1.00  0.00     0.076 C 
HETATM    8  C   UNL     1      47.088 -29.975   2.701  1.00  0.00     0.063 C 
HETATM    9  C   UNL     1      48.500 -29.558   3.078  1.00  0.00     0.020 C 
HETATM   10  N   UNL     1      49.671 -29.210   3.390  1.00  0.00    -0.096 N 
HETATM   11  C   UNL     1      46.242 -30.407   3.675  1.00  0.00     0.139 C 
HETATM   12  O   UNL     1      44.898 -30.714   3.407  1.00  0.00    -0.279 OA
ENDROOT
BRANCH   7  13
HETATM   13  C   UNL     1      47.401 -30.765   0.175  1.00  0.00     0.003 C 
HETATM   14  C   UNL     1      48.221 -31.912   0.795  1.00  0.00     0.032 C 
HETATM   15  C   UNL     1      49.682 -31.627   0.933  1.00  0.00    -0.030 C 
HETATM   16  C   UNL     1      50.312 -30.655   0.263  1.00  0.00    -0.031 C 
HETATM   17  C   UNL     1      49.640 -29.737  -0.707  1.00  0.00     0.027 C 
HETATM   18  C   UNL     1      48.162 -30.038  -0.954  1.00  0.00     0.009 C 
ENDBRANCH   7  13
BRANCH  11  19
HETATM   19  N   UNL     1      46.566 -30.567   5.002  1.00  0.00    -0.282 NA
HETATM   20  H   UNL     1      46.738 -29.714   5.527  1.00  0.00     0.126 HD
HETATM   21  H   UNL     1      45.937 -31.209   5.477  1.00  0.00     0.126 HD
ENDBRANCH  11  19
BRANCH   1  22
HETATM   22  C   UNL     1      44.476 -29.373  -1.302  1.00  0.00    -0.005 A 
HETATM   23  C   UNL     1      45.054 -28.122  -1.555  1.00  0.00     0.014 A 
HETATM   24  C   UNL     1      45.320 -27.720  -2.866  1.00  0.00     0.001 A 
HETATM   25  C   UNL     1      45.009 -28.563  -3.931  1.00  0.00     0.000 A 
HETATM   26  C   UNL     1      44.423 -29.806  -3.690  1.00  0.00     0.001 A 
HETATM   27  C   UNL     1      44.152 -30.207  -2.381  1.00  0.00     0.014 A 
ENDBRANCH   1  22
TORSDOF 3
ENDMDL
MODEL 10
REMARK VINA RESULT:      -7.6      2.485      3.979
REMARK  3 active torsions:
REMARK  status: ('A' for Active; 'I' for Inactive)
REMARK    1  A    between atoms: C_4  and  C_5 
REMARK    2  A    between atoms: C_11  and  C_12 
REMARK    3  A    between atoms: C_21  and  N_22 
ROOT
HETATM    1  C   UNL     1      41.129 -14.259   4.813  1.00  0.00     0.098 A 
HETATM    2  N   UNL     1      41.287 -14.177   6.147  1.00  0.00    -0.172 NA
HETATM    3  N   UNL     1      40.661 -13.036   6.494  1.00  0.00    -0.256 N 
HETATM    4  H   UNL     1      40.644 -12.764   7.471  1.00  0.00     0.191 HD
HETATM    5  C   UNL     1      40.124 -12.386   5.433  1.00  0.00     0.175 A 
HETATM    6  C   UNL     1      40.426 -13.125   4.320  1.00  0.00     0.036 A 
HETATM    7  C   UNL     1      40.044 -12.635   2.948  1.00  0.00     0.076 C 
HETATM    8  C   UNL     1      39.108 -11.415   3.120  1.00  0.00     0.063 C 
HETATM    9  C   UNL     1      38.373 -10.938   1.878  1.00  0.00     0.020 C 
HETATM   10  N   UNL     1      37.762 -10.544   0.848  1.00  0.00    -0.096 N 
HETATM   11  C   UNL     1      38.874 -10.794   4.308  1.00  0.00     0.139 C 
HETATM   12  O   UNL     1      39.448 -11.248   5.507  1.00  0.00    -0.279 OA
ENDROOT
BRANCH   7  13
HETATM   13  C   UNL     1      41.344 -12.429   2.082  1.00  0.00     0.003 C 
HETATM   14  C   UNL     1      41.923 -11.002   2.109  1.00  0.00     0.032 C 
HETATM   15  C   UNL     1      41.503 -10.141   0.961  1.00  0.00    -0.030 C 
HETATM   16  C   UNL     1      40.994 -10.624  -0.178  1.00  0.00    -0.031 C 
HETATM   17  C   UNL     1      40.783 -12.079  -0.449  1.00  0.00     0.027 C 
HETATM   18  C   UNL     1      41.275 -13.013   0.656  1.00  0.00     0.009 C 
ENDBRANCH   7  13
BRANCH  11  19
HETATM   19  N   UNL     1      38.058  -9.703   4.493  1.00  0.00    -0.282 NA
HETATM   20  H   UNL     1      37.223  -9.858   5.053  1.00  0.00     0.126 HD
HETATM   21  H   UNL     1      38.578  -8.875   4.771  1.00  0.00     0.126 HD
ENDBRANCH  11  19
BRANCH   1  22
HETATM   22  C   UNL     1      41.690 -15.374   4.055  1.00  0.00    -0.005 A 
HETATM   23  C   UNL     1      40.976 -15.952   2.997  1.00  0.00     0.014 A 
HETATM   24  C   UNL     1      41.544 -16.982   2.243  1.00  0.00     0.001 A 
HETATM   25  C   UNL     1      42.825 -17.440   2.541  1.00  0.00     0.000 A 
HETATM   26  C   UNL     1      43.539 -16.879   3.599  1.00  0.00     0.001 A 
HETATM   27  C   UNL     1      42.972 -15.852   4.357  1.00  0.00     0.014 A 
ENDBRANCH   1  22
TORSDOF 3
ENDMDL
