MODEL 1
REMARK VINA RESULT:      -8.2      0.000      0.000
REMARK  8 active torsions:
REMARK  status: ('A' for Active; 'I' for Inactive)
REMARK    1  A    between atoms: C_7  and  C_8 
REMARK       I    between atoms: C_8  and  N_9 
REMARK    2  A    between atoms: N_9  and  C_10 
REMARK    3  A    between atoms: C_11  and  C_12 
REMARK       I    between atoms: C_12  and  N_13 
REMARK    4  A    between atoms: N_13  and  C_14 
REMARK    5  A    between atoms: C_14  and  C_15 
REMARK    6  A    between atoms: C_15  and  C_16 
REMARK    7  A    between atoms: C_17  and  O_18 
REMARK    8  A    between atoms: C_22  and  O_23 
ROOT
HETATM    1  C   UNL     1      43.176 -18.106   2.870  1.00  0.00     0.050 A 
HETATM    2  C   UNL     1      43.742 -18.274   4.146  1.00  0.00     0.058 A 
HETATM    3  C   UNL     1      44.209 -19.544   4.539  1.00  0.00     0.019 A 
HETATM    4  C   UNL     1      44.108 -20.637   3.679  1.00  0.00     0.001 A 
HETATM    5  C   UNL     1      43.509 -20.481   2.433  1.00  0.00     0.002 A 
HETATM    6  C   UNL     1      43.032 -19.229   2.039  1.00  0.00     0.030 A 
ENDROOT
BRANCH   2   7
HETATM    7  C   UNL     1      43.692 -17.218   5.197  1.00  0.00     0.253 C 
HETATM    8  N   UNL     1      42.500 -17.147   5.893  1.00  0.00    -0.356 N 
HETATM    9  H   UNL     1      41.908 -17.966   5.851  1.00  0.00     0.162 HD
HETATM   10  O   UNL     1      44.640 -16.462   5.368  1.00  0.00    -0.268 OA
BRANCH   8  11
HETATM   11  C   UNL     1      42.324 -16.270   7.037  1.00  0.00     0.127 C 
BRANCH  11  12
HETATM   12  C   UNL     1      41.407 -15.067   6.774  1.00  0.00     0.061 C 
BRANCH  12  13
HETATM   13  C   UNL     1      42.088 -13.727   6.530  1.00  0.00    -0.021 A 
HETATM   14  C   UNL     1      41.334 -12.660   5.993  1.00  0.00     0.074 A 
HETATM   15  C   UNL     1      41.933 -11.414   5.795  1.00  0.00     0.040 A 
HETATM   16  C   UNL     1      43.282 -11.223   6.095  1.00  0.00     0.039 A 
HETATM   17  C   UNL     1      44.054 -12.275   6.585  1.00  0.00     0.068 A 
HETATM   18  C   UNL     1      43.457 -13.520   6.796  1.00  0.00     0.046 A 
BRANCH  14  19
HETATM   19  O   UNL     1      40.018 -12.932   5.717  1.00  0.00    -0.355 OA
HETATM   20  C   UNL     1      39.564 -12.654   4.398  1.00  0.00     0.210 C 
ENDBRANCH  14  19
BRANCH  17  21
HETATM   21  O   UNL     1      45.362 -11.956   6.824  1.00  0.00    -0.356 OA
HETATM   22  C   UNL     1      45.610 -10.841   7.670  1.00  0.00     0.210 C 
ENDBRANCH  17  21
ENDBRANCH  12  13
ENDBRANCH  11  12
ENDBRANCH   8  11
ENDBRANCH   2   7
BRANCH   1  23
HETATM   23  N   UNL     1      42.718 -16.887   2.332  1.00  0.00    -0.321 N 
HETATM   24  C   UNL     1      41.535 -16.249   2.656  1.00  0.00     0.265 C 
HETATM   25  O   UNL     1      40.799 -16.575   3.584  1.00  0.00    -0.267 OA
HETATM   26  H   UNL     1      43.381 -16.320   1.816  1.00  0.00     0.169 HD
BRANCH  24  27
HETATM   27  C   UNL     1      41.284 -14.996   1.834  1.00  0.00     0.097 C 
HETATM   28  C   UNL     1      42.048 -13.889   2.000  1.00  0.00     0.064 C 
HETATM   29  C   UNL     1      43.102 -13.754   3.068  1.00  0.00     0.078 C 
HETATM   30  O   UNL     1      41.938 -12.718   1.265  1.00  0.00    -0.353 OA
HETATM   31  C   UNL     1      41.204 -12.782   0.043  1.00  0.00     0.185 C 
HETATM   32  C   UNL     1      39.814 -13.342   0.256  1.00  0.00     0.106 C 
HETATM   33  S   UNL     1      39.975 -15.094   0.674  1.00  0.00    -0.120 SA
ENDBRANCH  24  27
ENDBRANCH   1  23
TORSDOF 8
ENDMDL
MODEL 2
REMARK VINA RESULT:      -7.8      2.369      6.156
REMARK  8 active torsions:
REMARK  status: ('A' for Active; 'I' for Inactive)
REMARK    1  A    between atoms: C_7  and  C_8 
REMARK       I    between atoms: C_8  and  N_9 
REMARK    2  A    between atoms: N_9  and  C_10 
REMARK    3  A    between atoms: C_11  and  C_12 
REMARK       I    between atoms: C_12  and  N_13 
REMARK    4  A    between atoms: N_13  and  C_14 
REMARK    5  A    between atoms: C_14  and  C_15 
REMARK    6  A    between atoms: C_15  and  C_16 
REMARK    7  A    between atoms: C_17  and  O_18 
REMARK    8  A    between atoms: C_22  and  O_23 
ROOT
HETATM    1  C   UNL     1      43.490 -17.302   3.843  1.00  0.00     0.050 A 
HETATM    2  C   UNL     1      42.773 -17.444   2.643  1.00  0.00     0.058 A 
HETATM    3  C   UNL     1      42.735 -18.696   1.998  1.00  0.00     0.019 A 
HETATM    4  C   UNL     1      43.408 -19.793   2.534  1.00  0.00     0.001 A 
HETATM    5  C   UNL     1      44.154 -19.643   3.698  1.00  0.00     0.002 A 
HETATM    6  C   UNL     1      44.208 -18.404   4.338  1.00  0.00     0.030 A 
ENDROOT
BRANCH   2   7
HETATM    7  C   UNL     1      42.210 -16.282   1.897  1.00  0.00     0.253 C 
HETATM    8  N   UNL     1      40.852 -16.086   2.065  1.00  0.00    -0.356 N 
HETATM    9  H   UNL     1      40.432 -16.528   2.872  1.00  0.00     0.162 HD
HETATM   10  O   UNL     1      42.923 -15.604   1.167  1.00  0.00    -0.268 OA
BRANCH   8  11
HETATM   11  C   UNL     1      40.165 -14.928   1.521  1.00  0.00     0.127 C 
BRANCH  11  12
HETATM   12  C   UNL     1      39.886 -15.010   0.014  1.00  0.00     0.061 C 
BRANCH  12  13
HETATM   13  C   UNL     1      40.226 -13.777  -0.814  1.00  0.00    -0.021 A 
HETATM   14  C   UNL     1      39.935 -13.775  -2.195  1.00  0.00     0.074 A 
HETATM   15  C   UNL     1      40.208 -12.641  -2.964  1.00  0.00     0.040 A 
HETATM   16  C   UNL     1      40.796 -11.518  -2.380  1.00  0.00     0.039 A 
HETATM   17  C   UNL     1      41.131 -11.517  -1.028  1.00  0.00     0.068 A 
HETATM   18  C   UNL     1      40.850 -12.644  -0.253  1.00  0.00     0.046 A 
BRANCH  14  19
HETATM   19  O   UNL     1      39.365 -14.919  -2.693  1.00  0.00    -0.355 OA
HETATM   20  C   UNL     1      38.204 -14.764  -3.499  1.00  0.00     0.210 C 
ENDBRANCH  14  19
BRANCH  17  21
HETATM   21  O   UNL     1      41.714 -10.360  -0.588  1.00  0.00    -0.356 OA
HETATM   22  C   UNL     1      41.704  -9.253  -1.480  1.00  0.00     0.210 C 
ENDBRANCH  17  21
ENDBRANCH  12  13
ENDBRANCH  11  12
ENDBRANCH   8  11
ENDBRANCH   2   7
BRANCH   1  23
HETATM   23  N   UNL     1      43.569 -16.127   4.617  1.00  0.00    -0.321 N 
HETATM   24  C   UNL     1      42.499 -15.432   5.150  1.00  0.00     0.265 C 
HETATM   25  O   UNL     1      41.341 -15.839   5.163  1.00  0.00    -0.267 OA
HETATM   26  H   UNL     1      44.475 -15.866   4.989  1.00  0.00     0.169 HD
BRANCH  24  27
HETATM   27  C   UNL     1      42.908 -14.152   5.859  1.00  0.00     0.097 C 
HETATM   28  C   UNL     1      43.242 -14.158   7.172  1.00  0.00     0.064 C 
HETATM   29  C   UNL     1      43.120 -15.371   8.058  1.00  0.00     0.078 C 
HETATM   30  O   UNL     1      43.680 -13.060   7.897  1.00  0.00    -0.353 OA
HETATM   31  C   UNL     1      44.124 -11.924   7.154  1.00  0.00     0.185 C 
HETATM   32  C   UNL     1      43.073 -11.457   6.169  1.00  0.00     0.106 C 
HETATM   33  S   UNL     1      42.930 -12.706   4.869  1.00  0.00    -0.120 SA
ENDBRANCH  24  27
ENDBRANCH   1  23
TORSDOF 8
ENDMDL
MODEL 3
REMARK VINA RESULT:      -7.6      4.247      8.694
REMARK  8 active torsions:
REMARK  status: ('A' for Active; 'I' for Inactive)
REMARK    1  A    between atoms: C_7  and  C_8 
REMARK       I    between atoms: C_8  and  N_9 
REMARK    2  A    between atoms: N_9  and  C_10 
REMARK    3  A    between atoms: C_11  and  C_12 
REMARK       I    between atoms: C_12  and  N_13 
REMARK    4  A    between atoms: N_13  and  C_14 
REMARK    5  A    between atoms: C_14  and  C_15 
REMARK    6  A    between atoms: C_15  and  C_16 
REMARK    7  A    between atoms: C_17  and  O_18 
REMARK    8  A    between atoms: C_22  and  O_23 
ROOT
HETATM    1  C   UNL     1      44.055 -10.781   8.304  1.00  0.00     0.050 A 
HETATM    2  C   UNL     1      43.753 -11.507   7.139  1.00  0.00     0.058 A 
HETATM    3  C   UNL     1      44.774 -11.788   6.208  1.00  0.00     0.019 A 
HETATM    4  C   UNL     1      46.078 -11.346   6.429  1.00  0.00     0.001 A 
HETATM    5  C   UNL     1      46.369 -10.591   7.560  1.00  0.00     0.002 A 
HETATM    6  C   UNL     1      45.362 -10.297   8.482  1.00  0.00     0.030 A 
ENDROOT
BRANCH   2   7
HETATM    7  C   UNL     1      42.357 -11.826   6.725  1.00  0.00     0.253 C 
HETATM    8  N   UNL     1      42.101 -13.170   6.531  1.00  0.00    -0.356 N 
HETATM    9  H   UNL     1      42.752 -13.816   6.958  1.00  0.00     0.162 HD
HETATM   10  O   UNL     1      41.541 -10.932   6.540  1.00  0.00    -0.268 OA
BRANCH   8  11
HETATM   11  C   UNL     1      40.765 -13.672   6.258  1.00  0.00     0.127 C 
BRANCH  11  12
HETATM   12  C   UNL     1      40.692 -15.193   6.060  1.00  0.00     0.061 C 
BRANCH  12  13
HETATM   13  C   UNL     1      41.096 -15.726   4.692  1.00  0.00    -0.021 A 
HETATM   14  C   UNL     1      42.308 -16.439   4.563  1.00  0.00     0.074 A 
HETATM   15  C   UNL     1      42.679 -16.966   3.323  1.00  0.00     0.040 A 
HETATM   16  C   UNL     1      41.872 -16.765   2.202  1.00  0.00     0.039 A 
HETATM   17  C   UNL     1      40.695 -16.027   2.300  1.00  0.00     0.068 A 
HETATM   18  C   UNL     1      40.314 -15.508   3.539  1.00  0.00     0.046 A 
BRANCH  14  19
HETATM   19  O   UNL     1      43.046 -16.585   5.710  1.00  0.00    -0.355 OA
HETATM   20  C   UNL     1      43.383 -17.912   6.095  1.00  0.00     0.210 C 
ENDBRANCH  14  19
BRANCH  17  21
HETATM   21  O   UNL     1      40.007 -15.895   1.124  1.00  0.00    -0.356 OA
HETATM   22  C   UNL     1      40.362 -14.801   0.288  1.00  0.00     0.210 C 
ENDBRANCH  17  21
ENDBRANCH  12  13
ENDBRANCH  11  12
ENDBRANCH   8  11
ENDBRANCH   2   7
BRANCH   1  23
HETATM   23  N   UNL     1      43.147 -10.476   9.337  1.00  0.00    -0.321 N 
HETATM   24  C   UNL     1      42.479  -9.277   9.504  1.00  0.00     0.265 C 
HETATM   25  O   UNL     1      42.460  -8.370   8.677  1.00  0.00    -0.267 OA
HETATM   26  H   UNL     1      42.790 -11.244   9.894  1.00  0.00     0.169 HD
BRANCH  24  27
HETATM   27  C   UNL     1      41.638  -9.230  10.768  1.00  0.00     0.097 C 
HETATM   28  C   UNL     1      42.166  -8.808  11.942  1.00  0.00     0.064 C 
HETATM   29  C   UNL     1      43.624  -8.476  12.130  1.00  0.00     0.078 C 
HETATM   30  O   UNL     1      41.473  -8.675  13.136  1.00  0.00    -0.353 OA
HETATM   31  C   UNL     1      40.047  -8.666  13.064  1.00  0.00     0.185 C 
HETATM   32  C   UNL     1      39.518  -9.884  12.338  1.00  0.00     0.106 C 
HETATM   33  S   UNL     1      39.970  -9.736  10.593  1.00  0.00    -0.120 SA
ENDBRANCH  24  27
ENDBRANCH   1  23
TORSDOF 8
ENDMDL
MODEL 4
REMARK VINA RESULT:      -7.6      4.194      8.432
REMARK  8 active torsions:
REMARK  status: ('A' for Active; 'I' for Inactive)
REMARK    1  A    between atoms: C_7  and  C_8 
REMARK       I    between atoms: C_8  and  N_9 
REMARK    2  A    between atoms: N_9  and  C_10 
REMARK    3  A    between atoms: C_11  and  C_12 
REMARK       I    between atoms: C_12  and  N_13 
REMARK    4  A    between atoms: N_13  and  C_14 
REMARK    5  A    between atoms: C_14  and  C_15 
REMARK    6  A    between atoms: C_15  and  C_16 
REMARK    7  A    between atoms: C_17  and  O_18 
REMARK    8  A    between atoms: C_22  and  O_23 
ROOT
HETATM    1  C   UNL     1      44.008 -10.795   8.251  1.00  0.00     0.050 A 
HETATM    2  C   UNL     1      43.706 -11.491   7.068  1.00  0.00     0.058 A 
HETATM    3  C   UNL     1      44.732 -11.776   6.145  1.00  0.00     0.019 A 
HETATM    4  C   UNL     1      46.043 -11.368   6.391  1.00  0.00     0.001 A 
HETATM    5  C   UNL     1      46.335 -10.642   7.541  1.00  0.00     0.002 A 
HETATM    6  C   UNL     1      45.323 -10.344   8.455  1.00  0.00     0.030 A 
ENDROOT
BRANCH   2   7
HETATM    7  C   UNL     1      42.308 -11.770   6.631  1.00  0.00     0.253 C 
HETATM    8  N   UNL     1      42.053 -13.089   6.305  1.00  0.00    -0.356 N 
HETATM    9  H   UNL     1      42.707 -13.772   6.663  1.00  0.00     0.162 HD
HETATM   10  O   UNL     1      41.489 -10.864   6.539  1.00  0.00    -0.268 OA
BRANCH   8  11
HETATM   11  C   UNL     1      40.718 -13.564   5.989  1.00  0.00     0.127 C 
BRANCH  11  12
HETATM   12  C   UNL     1      40.575 -15.093   5.996  1.00  0.00     0.061 C 
BRANCH  12  13
HETATM   13  C   UNL     1      41.433 -15.866   5.004  1.00  0.00    -0.021 A 
HETATM   14  C   UNL     1      41.076 -15.862   3.638  1.00  0.00     0.074 A 
HETATM   15  C   UNL     1      41.871 -16.537   2.707  1.00  0.00     0.040 A 
HETATM   16  C   UNL     1      43.001 -17.242   3.125  1.00  0.00     0.039 A 
HETATM   17  C   UNL     1      43.345 -17.294   4.474  1.00  0.00     0.068 A 
HETATM   18  C   UNL     1      42.561 -16.611   5.406  1.00  0.00     0.046 A 
BRANCH  14  19
HETATM   19  O   UNL     1      39.949 -15.153   3.311  1.00  0.00    -0.355 OA
HETATM   20  C   UNL     1      40.061 -14.216   2.247  1.00  0.00     0.210 C 
ENDBRANCH  14  19
BRANCH  17  21
HETATM   21  O   UNL     1      44.466 -18.029   4.747  1.00  0.00    -0.356 OA
HETATM   22  C   UNL     1      44.340 -19.444   4.685  1.00  0.00     0.210 C 
ENDBRANCH  17  21
ENDBRANCH  12  13
ENDBRANCH  11  12
ENDBRANCH   8  11
ENDBRANCH   2   7
BRANCH   1  23
HETATM   23  N   UNL     1      43.093 -10.490   9.279  1.00  0.00    -0.321 N 
HETATM   24  C   UNL     1      42.477  -9.269   9.481  1.00  0.00     0.265 C 
HETATM   25  O   UNL     1      42.515  -8.330   8.691  1.00  0.00    -0.267 OA
HETATM   26  H   UNL     1      42.692 -11.262   9.798  1.00  0.00     0.169 HD
BRANCH  24  27
HETATM   27  C   UNL     1      41.613  -9.234  10.731  1.00  0.00     0.097 C 
HETATM   28  C   UNL     1      42.120  -8.824  11.918  1.00  0.00     0.064 C 
HETATM   29  C   UNL     1      43.575  -8.496  12.136  1.00  0.00     0.078 C 
HETATM   30  O   UNL     1      41.405  -8.703  13.101  1.00  0.00    -0.353 OA
HETATM   31  C   UNL     1      39.981  -8.691  13.003  1.00  0.00     0.185 C 
HETATM   32  C   UNL     1      39.464  -9.901  12.255  1.00  0.00     0.106 C 
HETATM   33  S   UNL     1      39.947  -9.736  10.520  1.00  0.00    -0.120 SA
ENDBRANCH  24  27
ENDBRANCH   1  23
TORSDOF 8
ENDMDL
MODEL 5
REMARK VINA RESULT:      -7.3      1.789      3.156
REMARK  8 active torsions:
REMARK  status: ('A' for Active; 'I' for Inactive)
REMARK    1  A    between atoms: C_7  and  C_8 
REMARK       I    between atoms: C_8  and  N_9 
REMARK    2  A    between atoms: N_9  and  C_10 
REMARK    3  A    between atoms: C_11  and  C_12 
REMARK       I    between atoms: C_12  and  N_13 
REMARK    4  A    between atoms: N_13  and  C_14 
REMARK    5  A    between atoms: C_14  and  C_15 
REMARK    6  A    between atoms: C_15  and  C_16 
REMARK    7  A    between atoms: C_17  and  O_18 
REMARK    8  A    between atoms: C_22  and  O_23 
ROOT
HETATM    1  C   UNL     1      42.836 -16.792   3.199  1.00  0.00     0.050 A 
HETATM    2  C   UNL     1      43.228 -16.876   4.547  1.00  0.00     0.058 A 
HETATM    3  C   UNL     1      43.951 -18.001   4.993  1.00  0.00     0.019 A 
HETATM    4  C   UNL     1      44.275 -19.033   4.112  1.00  0.00     0.001 A 
HETATM    5  C   UNL     1      43.851 -18.970   2.789  1.00  0.00     0.002 A 
HETATM    6  C   UNL     1      43.123 -17.866   2.341  1.00  0.00     0.030 A 
ENDROOT
BRANCH   2   7
HETATM    7  C   UNL     1      42.740 -15.929   5.590  1.00  0.00     0.253 C 
HETATM    8  N   UNL     1      43.698 -15.064   6.082  1.00  0.00    -0.356 N 
HETATM    9  H   UNL     1      44.524 -14.939   5.512  1.00  0.00     0.162 HD
HETATM   10  O   UNL     1      41.582 -15.978   5.985  1.00  0.00    -0.268 OA
BRANCH   8  11
HETATM   11  C   UNL     1      43.370 -13.989   7.003  1.00  0.00     0.127 C 
BRANCH  11  12
HETATM   12  C   UNL     1      44.220 -12.723   6.822  1.00  0.00     0.061 C 
BRANCH  12  13
HETATM   13  C   UNL     1      43.490 -11.389   6.916  1.00  0.00    -0.021 A 
HETATM   14  C   UNL     1      43.699 -10.570   8.046  1.00  0.00     0.074 A 
HETATM   15  C   UNL     1      43.065  -9.327   8.133  1.00  0.00     0.040 A 
HETATM   16  C   UNL     1      42.201  -8.904   7.123  1.00  0.00     0.039 A 
HETATM   17  C   UNL     1      41.947  -9.718   6.020  1.00  0.00     0.068 A 
HETATM   18  C   UNL     1      42.587 -10.955   5.923  1.00  0.00     0.046 A 
BRANCH  14  19
HETATM   19  O   UNL     1      44.556 -11.062   8.997  1.00  0.00    -0.355 OA
HETATM   20  C   UNL     1      45.280 -10.110   9.767  1.00  0.00     0.210 C 
ENDBRANCH  14  19
BRANCH  17  21
HETATM   21  O   UNL     1      41.072  -9.189   5.113  1.00  0.00    -0.356 OA
HETATM   22  C   UNL     1      41.336  -9.440   3.739  1.00  0.00     0.210 C 
ENDBRANCH  17  21
ENDBRANCH  12  13
ENDBRANCH  11  12
ENDBRANCH   8  11
ENDBRANCH   2   7
BRANCH   1  23
HETATM   23  N   UNL     1      42.157 -15.706   2.611  1.00  0.00    -0.321 N 
HETATM   24  C   UNL     1      40.785 -15.555   2.527  1.00  0.00     0.265 C 
HETATM   25  O   UNL     1      39.969 -16.268   3.104  1.00  0.00    -0.267 OA
HETATM   26  H   UNL     1      42.691 -14.870   2.406  1.00  0.00     0.169 HD
BRANCH  24  27
HETATM   27  C   UNL     1      40.364 -14.318   1.751  1.00  0.00     0.097 C 
HETATM   28  C   UNL     1      40.127 -13.145   2.386  1.00  0.00     0.064 C 
HETATM   29  C   UNL     1      40.133 -12.990   3.885  1.00  0.00     0.078 C 
HETATM   30  O   UNL     1      39.792 -11.949   1.768  1.00  0.00    -0.353 OA
HETATM   31  C   UNL     1      40.029 -11.853   0.363  1.00  0.00     0.185 C 
HETATM   32  C   UNL     1      39.361 -12.982  -0.392  1.00  0.00     0.106 C 
HETATM   33  S   UNL     1      40.227 -14.517   0.016  1.00  0.00    -0.120 SA
ENDBRANCH  24  27
ENDBRANCH   1  23
TORSDOF 8
ENDMDL
MODEL 6
REMARK VINA RESULT:      -7.3      2.124      2.741
REMARK  8 active torsions:
REMARK  status: ('A' for Active; 'I' for Inactive)
REMARK    1  A    between atoms: C_7  and  C_8 
REMARK       I    between atoms: C_8  and  N_9 
REMARK    2  A    between atoms: N_9  and  C_10 
REMARK    3  A    between atoms: C_11  and  C_12 
REMARK       I    between atoms: C_12  and  N_13 
REMARK    4  A    between atoms: N_13  and  C_14 
REMARK    5  A    between atoms: C_14  and  C_15 
REMARK    6  A    between atoms: C_15  and  C_16 
REMARK    7  A    between atoms: C_17  and  O_18 
REMARK    8  A    between atoms: C_22  and  O_23 
ROOT
HETATM    1  C   UNL     1      42.617 -16.913   3.326  1.00  0.00     0.050 A 
HETATM    2  C   UNL     1      43.239 -17.005   4.583  1.00  0.00     0.058 A 
HETATM    3  C   UNL     1      44.067 -18.107   4.872  1.00  0.00     0.019 A 
HETATM    4  C   UNL     1      44.270 -19.112   3.926  1.00  0.00     0.001 A 
HETATM    5  C   UNL     1      43.621 -19.044   2.698  1.00  0.00     0.002 A 
HETATM    6  C   UNL     1      42.789 -17.961   2.407  1.00  0.00     0.030 A 
ENDROOT
BRANCH   2   7
HETATM    7  C   UNL     1      42.907 -16.094   5.716  1.00  0.00     0.253 C 
HETATM    8  N   UNL     1      43.730 -14.991   5.836  1.00  0.00    -0.356 N 
HETATM    9  H   UNL     1      44.264 -14.740   5.015  1.00  0.00     0.162 HD
HETATM   10  O   UNL     1      41.993 -16.364   6.486  1.00  0.00    -0.268 OA
BRANCH   8  11
HETATM   11  C   UNL     1      43.471 -13.933   6.797  1.00  0.00     0.127 C 
BRANCH  11  12
HETATM   12  C   UNL     1      44.243 -12.633   6.527  1.00  0.00     0.061 C 
BRANCH  12  13
HETATM   13  C   UNL     1      43.761 -11.386   7.256  1.00  0.00    -0.021 A 
HETATM   14  C   UNL     1      43.002 -10.428   6.550  1.00  0.00     0.074 A 
HETATM   15  C   UNL     1      42.521  -9.294   7.210  1.00  0.00     0.040 A 
HETATM   16  C   UNL     1      42.814  -9.087   8.559  1.00  0.00     0.039 A 
HETATM   17  C   UNL     1      43.598  -9.999   9.262  1.00  0.00     0.068 A 
HETATM   18  C   UNL     1      44.071 -11.140   8.610  1.00  0.00     0.046 A 
BRANCH  14  19
HETATM   19  O   UNL     1      42.766 -10.702   5.227  1.00  0.00    -0.355 OA
HETATM   20  C   UNL     1      41.767  -9.927   4.576  1.00  0.00     0.210 C 
ENDBRANCH  14  19
BRANCH  17  21
HETATM   21  O   UNL     1      43.819  -9.669  10.571  1.00  0.00    -0.356 OA
HETATM   22  C   UNL     1      43.631 -10.695  11.536  1.00  0.00     0.210 C 
ENDBRANCH  17  21
ENDBRANCH  12  13
ENDBRANCH  11  12
ENDBRANCH   8  11
ENDBRANCH   2   7
BRANCH   1  23
HETATM   23  N   UNL     1      41.809 -15.845   2.888  1.00  0.00    -0.321 N 
HETATM   24  C   UNL     1      42.220 -14.538   2.702  1.00  0.00     0.265 C 
HETATM   25  O   UNL     1      43.390 -14.165   2.732  1.00  0.00    -0.267 OA
HETATM   26  H   UNL     1      40.907 -16.070   2.484  1.00  0.00     0.169 HD
BRANCH  24  27
HETATM   27  C   UNL     1      41.089 -13.603   2.310  1.00  0.00     0.097 C 
HETATM   28  C   UNL     1      40.285 -13.049   3.249  1.00  0.00     0.064 C 
HETATM   29  C   UNL     1      40.353 -13.394   4.715  1.00  0.00     0.078 C 
HETATM   30  O   UNL     1      39.264 -12.143   3.003  1.00  0.00    -0.353 OA
HETATM   31  C   UNL     1      39.258 -11.498   1.729  1.00  0.00     0.185 C 
HETATM   32  C   UNL     1      39.290 -12.501   0.596  1.00  0.00     0.106 C 
HETATM   33  S   UNL     1      40.916 -13.292   0.594  1.00  0.00    -0.120 SA
ENDBRANCH  24  27
ENDBRANCH   1  23
TORSDOF 8
ENDMDL
MODEL 7
REMARK VINA RESULT:      -7.3      2.386      6.486
REMARK  8 active torsions:
REMARK  status: ('A' for Active; 'I' for Inactive)
REMARK    1  A    between atoms: C_7  and  C_8 
REMARK       I    between atoms: C_8  and  N_9 
REMARK    2  A    between atoms: N_9  and  C_10 
REMARK    3  A    between atoms: C_11  and  C_12 
REMARK       I    between atoms: C_12  and  N_13 
REMARK    4  A    between atoms: N_13  and  C_14 
REMARK    5  A    between atoms: C_14  and  C_15 
REMARK    6  A    between atoms: C_15  and  C_16 
REMARK    7  A    between atoms: C_17  and  O_18 
REMARK    8  A    between atoms: C_22  and  O_23 
ROOT
HETATM    1  C   UNL     1      39.252 -12.790   0.123  1.00  0.00     0.050 A 
HETATM    2  C   UNL     1      40.008 -13.877  -0.349  1.00  0.00     0.058 A 
HETATM    3  C   UNL     1      40.109 -14.105  -1.736  1.00  0.00     0.019 A 
HETATM    4  C   UNL     1      39.461 -13.267  -2.643  1.00  0.00     0.001 A 
HETATM    5  C   UNL     1      38.678 -12.217  -2.176  1.00  0.00     0.002 A 
HETATM    6  C   UNL     1      38.561 -11.991  -0.803  1.00  0.00     0.030 A 
ENDROOT
BRANCH   2   7
HETATM    7  C   UNL     1      40.548 -14.936   0.551  1.00  0.00     0.253 C 
HETATM    8  N   UNL     1      41.927 -14.993   0.618  1.00  0.00    -0.356 N 
HETATM    9  H   UNL     1      42.425 -14.167   0.314  1.00  0.00     0.162 HD
HETATM   10  O   UNL     1      39.794 -15.704   1.134  1.00  0.00    -0.268 OA
BRANCH   8  11
HETATM   11  C   UNL     1      42.621 -15.872   1.543  1.00  0.00     0.127 C 
BRANCH  11  12
HETATM   12  C   UNL     1      43.084 -15.186   2.837  1.00  0.00     0.061 C 
BRANCH  12  13
HETATM   13  C   UNL     1      43.367 -16.090   4.029  1.00  0.00    -0.021 A 
HETATM   14  C   UNL     1      43.410 -15.528   5.323  1.00  0.00     0.074 A 
HETATM   15  C   UNL     1      43.634 -16.348   6.433  1.00  0.00     0.040 A 
HETATM   16  C   UNL     1      43.846 -17.716   6.266  1.00  0.00     0.039 A 
HETATM   17  C   UNL     1      43.851 -18.283   4.994  1.00  0.00     0.068 A 
HETATM   18  C   UNL     1      43.616 -17.471   3.882  1.00  0.00     0.046 A 
BRANCH  14  19
HETATM   19  O   UNL     1      43.200 -14.175   5.400  1.00  0.00    -0.355 OA
HETATM   20  C   UNL     1      43.372 -13.566   6.673  1.00  0.00     0.210 C 
ENDBRANCH  14  19
BRANCH  17  21
HETATM   21  O   UNL     1      44.084 -19.631   4.972  1.00  0.00    -0.356 OA
HETATM   22  C   UNL     1      43.877 -20.303   3.737  1.00  0.00     0.210 C 
ENDBRANCH  17  21
ENDBRANCH  12  13
ENDBRANCH  11  12
ENDBRANCH   8  11
ENDBRANCH   2   7
BRANCH   1  23
HETATM   23  N   UNL     1      39.109 -12.418   1.475  1.00  0.00    -0.321 N 
HETATM   24  C   UNL     1      40.104 -11.901   2.285  1.00  0.00     0.265 C 
HETATM   25  O   UNL     1      41.207 -11.538   1.887  1.00  0.00    -0.267 OA
HETATM   26  H   UNL     1      38.169 -12.327   1.843  1.00  0.00     0.169 HD
BRANCH  24  27
HETATM   27  C   UNL     1      39.656 -11.685   3.721  1.00  0.00     0.097 C 
HETATM   28  C   UNL     1      39.686 -12.698   4.619  1.00  0.00     0.064 C 
HETATM   29  C   UNL     1      40.031 -14.121   4.263  1.00  0.00     0.078 C 
HETATM   30  O   UNL     1      39.353 -12.594   5.962  1.00  0.00    -0.353 OA
HETATM   31  C   UNL     1      39.289 -11.280   6.517  1.00  0.00     0.185 C 
HETATM   32  C   UNL     1      38.360 -10.385   5.725  1.00  0.00     0.106 C 
HETATM   33  S   UNL     1      39.128 -10.063   4.119  1.00  0.00    -0.120 SA
ENDBRANCH  24  27
ENDBRANCH   1  23
TORSDOF 8
ENDMDL
MODEL 8
REMARK VINA RESULT:      -7.2      2.069      2.786
REMARK  8 active torsions:
REMARK  status: ('A' for Active; 'I' for Inactive)
REMARK    1  A    between atoms: C_7  and  C_8 
REMARK       I    between atoms: C_8  and  N_9 
REMARK    2  A    between atoms: N_9  and  C_10 
REMARK    3  A    between atoms: C_11  and  C_12 
REMARK       I    between atoms: C_12  and  N_13 
REMARK    4  A    between atoms: N_13  and  C_14 
REMARK    5  A    between atoms: C_14  and  C_15 
REMARK    6  A    between atoms: C_15  and  C_16 
REMARK    7  A    between atoms: C_17  and  O_18 
REMARK    8  A    between atoms: C_22  and  O_23 
ROOT
HETATM    1  C   UNL     1      42.684 -16.297   3.074  1.00  0.00     0.050 A 
HETATM    2  C   UNL     1      43.153 -16.335   4.398  1.00  0.00     0.058 A 
HETATM    3  C   UNL     1      43.913 -17.438   4.836  1.00  0.00     0.019 A 
HETATM    4  C   UNL     1      44.199 -18.493   3.971  1.00  0.00     0.001 A 
HETATM    5  C   UNL     1      43.700 -18.476   2.673  1.00  0.00     0.002 A 
HETATM    6  C   UNL     1      42.935 -17.394   2.234  1.00  0.00     0.030 A 
ENDROOT
BRANCH   2   7
HETATM    7  C   UNL     1      42.715 -15.361   5.439  1.00  0.00     0.253 C 
HETATM    8  N   UNL     1      43.737 -14.815   6.190  1.00  0.00    -0.356 N 
HETATM    9  H   UNL     1      44.666 -14.878   5.796  1.00  0.00     0.162 HD
HETATM   10  O   UNL     1      41.525 -15.125   5.611  1.00  0.00    -0.268 OA
BRANCH   8  11
HETATM   11  C   UNL     1      43.506 -13.753   7.154  1.00  0.00     0.127 C 
BRANCH  11  12
HETATM   12  C   UNL     1      44.227 -12.437   6.827  1.00  0.00     0.061 C 
BRANCH  12  13
HETATM   13  C   UNL     1      43.348 -11.223   6.554  1.00  0.00    -0.021 A 
HETATM   14  C   UNL     1      42.663 -11.133   5.323  1.00  0.00     0.074 A 
HETATM   15  C   UNL     1      41.824 -10.045   5.069  1.00  0.00     0.040 A 
HETATM   16  C   UNL     1      41.683  -9.029   6.014  1.00  0.00     0.039 A 
HETATM   17  C   UNL     1      42.384  -9.077   7.217  1.00  0.00     0.068 A 
HETATM   18  C   UNL     1      43.214 -10.169   7.481  1.00  0.00     0.046 A 
BRANCH  14  19
HETATM   19  O   UNL     1      42.862 -12.169   4.446  1.00  0.00    -0.355 OA
HETATM   20  C   UNL     1      43.328 -11.833   3.145  1.00  0.00     0.210 C 
ENDBRANCH  14  19
BRANCH  17  21
HETATM   21  O   UNL     1      42.165  -8.011   8.046  1.00  0.00    -0.356 OA
HETATM   22  C   UNL     1      41.996  -8.294   9.429  1.00  0.00     0.210 C 
ENDBRANCH  17  21
ENDBRANCH  12  13
ENDBRANCH  11  12
ENDBRANCH   8  11
ENDBRANCH   2   7
BRANCH   1  23
HETATM   23  N   UNL     1      41.960 -15.237   2.492  1.00  0.00    -0.321 N 
HETATM   24  C   UNL     1      40.591 -15.199   2.297  1.00  0.00     0.265 C 
HETATM   25  O   UNL     1      39.799 -16.016   2.758  1.00  0.00    -0.267 OA
HETATM   26  H   UNL     1      42.431 -14.346   2.384  1.00  0.00     0.169 HD
BRANCH  24  27
HETATM   27  C   UNL     1      40.125 -13.954   1.561  1.00  0.00     0.097 C 
HETATM   28  C   UNL     1      39.711 -12.857   2.240  1.00  0.00     0.064 C 
HETATM   29  C   UNL     1      39.558 -12.811   3.738  1.00  0.00     0.078 C 
HETATM   30  O   UNL     1      39.319 -11.656   1.667  1.00  0.00    -0.353 OA
HETATM   31  C   UNL     1      39.678 -11.437   0.303  1.00  0.00     0.185 C 
HETATM   32  C   UNL     1      39.203 -12.566  -0.587  1.00  0.00     0.106 C 
HETATM   33  S   UNL     1      40.176 -14.039  -0.188  1.00  0.00    -0.120 SA
ENDBRANCH  24  27
ENDBRANCH   1  23
TORSDOF 8
ENDMDL
MODEL 9
REMARK VINA RESULT:      -7.2      2.626      6.309
REMARK  8 active torsions:
REMARK  status: ('A' for Active; 'I' for Inactive)
REMARK    1  A    between atoms: C_7  and  C_8 
REMARK       I    between atoms: C_8  and  N_9 
REMARK    2  A    between atoms: N_9  and  C_10 
REMARK    3  A    between atoms: C_11  and  C_12 
REMARK       I    between atoms: C_12  and  N_13 
REMARK    4  A    between atoms: N_13  and  C_14 
REMARK    5  A    between atoms: C_14  and  C_15 
REMARK    6  A    between atoms: C_15  and  C_16 
REMARK    7  A    between atoms: C_17  and  O_18 
REMARK    8  A    between atoms: C_22  and  O_23 
ROOT
HETATM    1  C   UNL     1      42.977 -14.825   5.980  1.00  0.00     0.050 A 
HETATM    2  C   UNL     1      42.235 -15.627   5.096  1.00  0.00     0.058 A 
HETATM    3  C   UNL     1      42.673 -16.935   4.808  1.00  0.00     0.019 A 
HETATM    4  C   UNL     1      43.838 -17.438   5.387  1.00  0.00     0.001 A 
HETATM    5  C   UNL     1      44.595 -16.630   6.228  1.00  0.00     0.002 A 
HETATM    6  C   UNL     1      44.176 -15.328   6.509  1.00  0.00     0.030 A 
ENDROOT
BRANCH   2   7
HETATM    7  C   UNL     1      41.108 -15.096   4.276  1.00  0.00     0.253 C 
HETATM    8  N   UNL     1      40.834 -15.818   3.130  1.00  0.00    -0.356 N 
HETATM    9  H   UNL     1      41.190 -16.764   3.100  1.00  0.00     0.162 HD
HETATM   10  O   UNL     1      40.526 -14.071   4.605  1.00  0.00    -0.268 OA
BRANCH   8  11
HETATM   11  C   UNL     1      39.688 -15.524   2.286  1.00  0.00     0.127 C 
BRANCH  11  12
HETATM   12  C   UNL     1      39.997 -15.524   0.782  1.00  0.00     0.061 C 
BRANCH  12  13
HETATM   13  C   UNL     1      40.175 -14.165   0.118  1.00  0.00    -0.021 A 
HETATM   14  C   UNL     1      39.688 -13.972  -1.193  1.00  0.00     0.074 A 
HETATM   15  C   UNL     1      39.811 -12.722  -1.805  1.00  0.00     0.040 A 
HETATM   16  C   UNL     1      40.440 -11.670  -1.140  1.00  0.00     0.039 A 
HETATM   17  C   UNL     1      40.966 -11.853   0.138  1.00  0.00     0.068 A 
HETATM   18  C   UNL     1      40.835 -13.096   0.759  1.00  0.00     0.046 A 
BRANCH  14  19
HETATM   19  O   UNL     1      39.090 -15.058  -1.780  1.00  0.00    -0.355 OA
HETATM   20  C   UNL     1      38.506 -14.858  -3.061  1.00  0.00     0.210 C 
ENDBRANCH  14  19
BRANCH  17  21
HETATM   21  O   UNL     1      41.568 -10.745   0.669  1.00  0.00    -0.356 OA
HETATM   22  C   UNL     1      41.930 -10.803   2.042  1.00  0.00     0.210 C 
ENDBRANCH  17  21
ENDBRANCH  12  13
ENDBRANCH  11  12
ENDBRANCH   8  11
ENDBRANCH   2   7
BRANCH   1  23
HETATM   23  N   UNL     1      42.627 -13.523   6.393  1.00  0.00    -0.321 N 
HETATM   24  C   UNL     1      43.068 -12.344   5.822  1.00  0.00     0.265 C 
HETATM   25  O   UNL     1      43.693 -12.271   4.768  1.00  0.00    -0.267 OA
HETATM   26  H   UNL     1      41.842 -13.423   7.026  1.00  0.00     0.169 HD
BRANCH  24  27
HETATM   27  C   UNL     1      42.583 -11.104   6.555  1.00  0.00     0.097 C 
HETATM   28  C   UNL     1      43.387 -10.451   7.428  1.00  0.00     0.064 C 
HETATM   29  C   UNL     1      44.749 -10.947   7.840  1.00  0.00     0.078 C 
HETATM   30  O   UNL     1      43.062  -9.284   8.104  1.00  0.00    -0.353 OA
HETATM   31  C   UNL     1      41.947  -8.537   7.615  1.00  0.00     0.185 C 
HETATM   32  C   UNL     1      40.703  -9.393   7.516  1.00  0.00     0.106 C 
HETATM   33  S   UNL     1      40.950 -10.588   6.181  1.00  0.00    -0.120 SA
ENDBRANCH  24  27
ENDBRANCH   1  23
TORSDOF 8
ENDMDL
MODEL 10
REMARK VINA RESULT:      -7.2      2.401      5.576
REMARK  8 active torsions:
REMARK  status: ('A' for Active; 'I' for Inactive)
REMARK    1  A    between atoms: C_7  and  C_8 
REMARK       I    between atoms: C_8  and  N_9 
REMARK    2  A    between atoms: N_9  and  C_10 
REMARK    3  A    between atoms: C_11  and  C_12 
REMARK       I    between atoms: C_12  and  N_13 
REMARK    4  A    between atoms: N_13  and  C_14 
REMARK    5  A    between atoms: C_14  and  C_15 
REMARK    6  A    between atoms: C_15  and  C_16 
REMARK    7  A    between atoms: C_17  and  O_18 
REMARK    8  A    between atoms: C_22  and  O_23 
ROOT
HETATM    1  C   UNL     1      40.471 -13.577   2.342  1.00  0.00     0.050 A 
HETATM    2  C   UNL     1      39.708 -12.525   2.876  1.00  0.00     0.058 A 
HETATM    3  C   UNL     1      38.881 -11.763   2.027  1.00  0.00     0.019 A 
HETATM    4  C   UNL     1      38.818 -12.039   0.662  1.00  0.00     0.001 A 
HETATM    5  C   UNL     1      39.605 -13.052   0.125  1.00  0.00     0.002 A 
HETATM    6  C   UNL     1      40.437 -13.804   0.956  1.00  0.00     0.030 A 
ENDROOT
BRANCH   2   7
HETATM    7  C   UNL     1      39.880 -12.031   4.273  1.00  0.00     0.253 C 
HETATM    8  N   UNL     1      40.137 -10.679   4.383  1.00  0.00    -0.356 N 
HETATM    9  H   UNL     1      39.897 -10.110   3.582  1.00  0.00     0.162 HD
HETATM   10  O   UNL     1      39.832 -12.807   5.219  1.00  0.00    -0.268 OA
BRANCH   8  11
HETATM   11  C   UNL     1      40.199 -10.005   5.669  1.00  0.00     0.127 C 
BRANCH  11  12
HETATM   12  C   UNL     1      41.513  -9.251   5.923  1.00  0.00     0.061 C 
BRANCH  12  13
HETATM   13  C   UNL     1      42.673 -10.064   6.480  1.00  0.00    -0.021 A 
HETATM   14  C   UNL     1      43.491 -10.794   5.590  1.00  0.00     0.074 A 
HETATM   15  C   UNL     1      44.581 -11.518   6.080  1.00  0.00     0.040 A 
HETATM   16  C   UNL     1      44.849 -11.550   7.448  1.00  0.00     0.039 A 
HETATM   17  C   UNL     1      44.028 -10.873   8.347  1.00  0.00     0.068 A 
HETATM   18  C   UNL     1      42.944 -10.138   7.862  1.00  0.00     0.046 A 
BRANCH  14  19
HETATM   19  O   UNL     1      43.156 -10.716   4.263  1.00  0.00    -0.355 OA
HETATM   20  C   UNL     1      43.684 -11.719   3.404  1.00  0.00     0.210 C 
ENDBRANCH  14  19
BRANCH  17  21
HETATM   21  O   UNL     1      44.395 -10.999   9.659  1.00  0.00    -0.356 OA
HETATM   22  C   UNL     1      45.257  -9.999  10.187  1.00  0.00     0.210 C 
ENDBRANCH  17  21
ENDBRANCH  12  13
ENDBRANCH  11  12
ENDBRANCH   8  11
ENDBRANCH   2   7
BRANCH   1  23
HETATM   23  N   UNL     1      41.297 -14.448   3.081  1.00  0.00    -0.321 N 
HETATM   24  C   UNL     1      40.949 -15.706   3.538  1.00  0.00     0.265 C 
HETATM   25  O   UNL     1      39.927 -16.305   3.216  1.00  0.00    -0.267 OA
HETATM   26  H   UNL     1      42.288 -14.239   3.121  1.00  0.00     0.169 HD
BRANCH  24  27
HETATM   27  C   UNL     1      42.030 -16.357   4.384  1.00  0.00     0.097 C 
HETATM   28  C   UNL     1      43.024 -17.077   3.811  1.00  0.00     0.064 C 
HETATM   29  C   UNL     1      43.082 -17.398   2.340  1.00  0.00     0.078 C 
HETATM   30  O   UNL     1      44.085 -17.664   4.485  1.00  0.00    -0.353 OA
HETATM   31  C   UNL     1      44.337 -17.217   5.818  1.00  0.00     0.185 C 
HETATM   32  C   UNL     1      43.102 -17.328   6.685  1.00  0.00     0.106 C 
HETATM   33  S   UNL     1      41.904 -16.099   6.112  1.00  0.00    -0.120 SA
ENDBRANCH  24  27
ENDBRANCH   1  23
TORSDOF 8
ENDMDL
