MODEL 1
REMARK VINA RESULT:      -8.4      0.000      0.000
REMARK  7 active torsions:
REMARK  status: ('A' for Active; 'I' for Inactive)
REMARK    1  A    between atoms: C_5  and  S_6 
REMARK    2  A    between atoms: S_6  and  C_7 
REMARK    3  A    between atoms: C_7  and  C_8 
REMARK       I    between atoms: C_8  and  N_9 
REMARK    4  A    between atoms: N_9  and  C_10 
REMARK    5  A    between atoms: C_10  and  C_11 
REMARK    6  A    between atoms: C_11  and  C_12 
REMARK    7  A    between atoms: C_26  and  O_27 
ROOT
HETATM    1  C   UNL     1      43.149 -17.200   7.161  1.00  0.00     0.052 C 
HETATM    2  C   UNL     1      42.865 -15.809   6.649  1.00  0.00    -0.013 A 
HETATM    3  C   UNL     1      41.841 -15.547   5.689  1.00  0.00     0.165 A 
HETATM    4  N   UNL     1      41.616 -14.253   5.215  1.00  0.00    -0.271 N 
HETATM    5  C   UNL     1      40.574 -14.416   4.317  1.00  0.00     0.197 A 
HETATM    6  N   UNL     1      40.202 -15.677   4.276  1.00  0.00    -0.122 NA
HETATM    7  N   UNL     1      40.995 -16.386   5.127  1.00  0.00    -0.128 NA
HETATM    8  C   UNL     1      42.361 -13.131   5.678  1.00  0.00     0.053 A 
HETATM    9  C   UNL     1      43.350 -13.397   6.641  1.00  0.00    -0.005 A 
HETATM   10  C   UNL     1      43.589 -14.769   7.104  1.00  0.00     0.024 A 
HETATM   11  C   UNL     1      42.159 -11.816   5.254  1.00  0.00     0.034 A 
HETATM   12  C   UNL     1      42.928 -10.773   5.793  1.00  0.00     0.039 A 
HETATM   13  C   UNL     1      43.901 -11.032   6.754  1.00  0.00     0.069 A 
HETATM   14  C   UNL     1      44.112 -12.347   7.170  1.00  0.00     0.050 A 
ENDROOT
BRANCH   5  15
HETATM   15  S   UNL     1      39.816 -13.201   3.343  1.00  0.00    -0.080 SA
BRANCH  15  16
HETATM   16  C   UNL     1      40.379 -13.666   1.683  1.00  0.00     0.185 C 
BRANCH  16  17
HETATM   17  C   UNL     1      41.808 -14.180   1.706  1.00  0.00     0.227 C 
HETATM   18  N   UNL     1      41.933 -15.531   1.455  1.00  0.00    -0.360 N 
HETATM   19  H   UNL     1      41.114 -16.104   1.667  1.00  0.00     0.162 HD
HETATM   20  O   UNL     1      42.768 -13.438   1.897  1.00  0.00    -0.273 OA
BRANCH  18  21
HETATM   21  C   UNL     1      43.230 -16.178   1.484  1.00  0.00     0.127 C 
BRANCH  21  22
HETATM   22  C   UNL     1      43.624 -16.582   2.904  1.00  0.00     0.058 C 
BRANCH  22  23
HETATM   23  C   UNL     1      43.671 -18.078   3.082  1.00  0.00    -0.057 A 
HETATM   24  C   UNL     1      44.221 -18.644   4.239  1.00  0.00     0.007 A 
HETATM   25  C   UNL     1      44.275 -20.031   4.390  1.00  0.00     0.001 A 
HETATM   26  C   UNL     1      43.780 -20.863   3.388  1.00  0.00     0.000 A 
HETATM   27  C   UNL     1      43.233 -20.311   2.232  1.00  0.00     0.001 A 
HETATM   28  C   UNL     1      43.181 -18.925   2.078  1.00  0.00     0.007 A 
ENDBRANCH  22  23
ENDBRANCH  21  22
ENDBRANCH  18  21
ENDBRANCH  16  17
ENDBRANCH  15  16
ENDBRANCH   5  15
BRANCH  13  29
HETATM   29  O   UNL     1      44.704 -10.105   7.359  1.00  0.00    -0.356 OA
HETATM   30  C   UNL     1      45.785 -10.600   8.139  1.00  0.00     0.210 C 
ENDBRANCH  13  29
TORSDOF 7
ENDMDL
MODEL 2
REMARK VINA RESULT:      -8.2      3.790      9.079
REMARK  7 active torsions:
REMARK  status: ('A' for Active; 'I' for Inactive)
REMARK    1  A    between atoms: C_5  and  S_6 
REMARK    2  A    between atoms: S_6  and  C_7 
REMARK    3  A    between atoms: C_7  and  C_8 
REMARK       I    between atoms: C_8  and  N_9 
REMARK    4  A    between atoms: N_9  and  C_10 
REMARK    5  A    between atoms: C_10  and  C_11 
REMARK    6  A    between atoms: C_11  and  C_12 
REMARK    7  A    between atoms: C_26  and  O_27 
ROOT
HETATM    1  C   UNL     1      40.941 -14.485   0.641  1.00  0.00     0.052 C 
HETATM    2  C   UNL     1      41.689 -14.965   1.861  1.00  0.00    -0.013 A 
HETATM    3  C   UNL     1      41.951 -14.112   2.975  1.00  0.00     0.165 A 
HETATM    4  N   UNL     1      42.668 -14.575   4.080  1.00  0.00    -0.271 N 
HETATM    5  C   UNL     1      42.714 -13.473   4.918  1.00  0.00     0.197 A 
HETATM    6  N   UNL     1      42.072 -12.461   4.375  1.00  0.00    -0.122 NA
HETATM    7  N   UNL     1      41.600 -12.856   3.160  1.00  0.00    -0.128 NA
HETATM    8  C   UNL     1      43.143 -15.914   4.174  1.00  0.00     0.053 A 
HETATM    9  C   UNL     1      42.858 -16.752   3.081  1.00  0.00    -0.005 A 
HETATM   10  C   UNL     1      42.129 -16.236   1.917  1.00  0.00     0.024 A 
HETATM   11  C   UNL     1      43.842 -16.432   5.267  1.00  0.00     0.034 A 
HETATM   12  C   UNL     1      44.245 -17.777   5.276  1.00  0.00     0.039 A 
HETATM   13  C   UNL     1      43.956 -18.612   4.199  1.00  0.00     0.069 A 
HETATM   14  C   UNL     1      43.268 -18.091   3.102  1.00  0.00     0.050 A 
ENDROOT
BRANCH   5  15
HETATM   15  S   UNL     1      43.486 -13.350   6.463  1.00  0.00    -0.080 SA
BRANCH  15  16
HETATM   16  C   UNL     1      43.560 -11.552   6.688  1.00  0.00     0.185 C 
BRANCH  16  17
HETATM   17  C   UNL     1      44.294 -11.183   7.965  1.00  0.00     0.227 C 
HETATM   18  N   UNL     1      43.476 -10.776   8.997  1.00  0.00    -0.360 N 
HETATM   19  H   UNL     1      42.569 -10.391   8.726  1.00  0.00     0.162 HD
HETATM   20  O   UNL     1      45.515 -11.277   8.069  1.00  0.00    -0.273 OA
BRANCH  18  21
HETATM   21  C   UNL     1      44.031 -10.350  10.267  1.00  0.00     0.127 C 
BRANCH  21  22
HETATM   22  C   UNL     1      43.620  -8.918  10.608  1.00  0.00     0.058 C 
BRANCH  22  23
HETATM   23  C   UNL     1      42.884  -8.831  11.921  1.00  0.00    -0.057 A 
HETATM   24  C   UNL     1      43.360  -8.015  12.955  1.00  0.00     0.007 A 
HETATM   25  C   UNL     1      42.681  -7.950  14.173  1.00  0.00     0.001 A 
HETATM   26  C   UNL     1      41.522  -8.699  14.369  1.00  0.00     0.000 A 
HETATM   27  C   UNL     1      41.042  -9.517  13.348  1.00  0.00     0.001 A 
HETATM   28  C   UNL     1      41.720  -9.585  12.130  1.00  0.00     0.007 A 
ENDBRANCH  22  23
ENDBRANCH  21  22
ENDBRANCH  18  21
ENDBRANCH  16  17
ENDBRANCH  15  16
ENDBRANCH   5  15
BRANCH  13  29
HETATM   29  O   UNL     1      44.284 -19.934   4.094  1.00  0.00    -0.356 OA
HETATM   30  C   UNL     1      44.204 -20.715   5.281  1.00  0.00     0.210 C 
ENDBRANCH  13  29
TORSDOF 7
ENDMDL
MODEL 3
REMARK VINA RESULT:      -8.2      2.717      8.155
REMARK  7 active torsions:
REMARK  status: ('A' for Active; 'I' for Inactive)
REMARK    1  A    between atoms: C_5  and  S_6 
REMARK    2  A    between atoms: S_6  and  C_7 
REMARK    3  A    between atoms: C_7  and  C_8 
REMARK       I    between atoms: C_8  and  N_9 
REMARK    4  A    between atoms: N_9  and  C_10 
REMARK    5  A    between atoms: C_10  and  C_11 
REMARK    6  A    between atoms: C_11  and  C_12 
REMARK    7  A    between atoms: C_26  and  O_27 
ROOT
HETATM    1  C   UNL     1      39.826 -15.661   0.788  1.00  0.00     0.052 C 
HETATM    2  C   UNL     1      40.781 -15.731   1.955  1.00  0.00    -0.013 A 
HETATM    3  C   UNL     1      40.932 -14.653   2.879  1.00  0.00     0.165 A 
HETATM    4  N   UNL     1      41.842 -14.734   3.934  1.00  0.00    -0.271 N 
HETATM    5  C   UNL     1      41.697 -13.517   4.579  1.00  0.00     0.197 A 
HETATM    6  N   UNL     1      40.779 -12.791   3.978  1.00  0.00    -0.122 NA
HETATM    7  N   UNL     1      40.303 -13.495   2.915  1.00  0.00    -0.128 NA
HETATM    8  C   UNL     1      42.638 -15.892   4.168  1.00  0.00     0.053 A 
HETATM    9  C   UNL     1      42.463 -16.957   3.266  1.00  0.00    -0.005 A 
HETATM   10  C   UNL     1      41.523 -16.838   2.145  1.00  0.00     0.024 A 
HETATM   11  C   UNL     1      43.543 -16.033   5.222  1.00  0.00     0.034 A 
HETATM   12  C   UNL     1      44.261 -17.228   5.382  1.00  0.00     0.039 A 
HETATM   13  C   UNL     1      44.084 -18.288   4.497  1.00  0.00     0.069 A 
HETATM   14  C   UNL     1      43.188 -18.144   3.436  1.00  0.00     0.050 A 
ENDROOT
BRANCH   5  15
HETATM   15  S   UNL     1      42.559 -12.945   5.967  1.00  0.00    -0.080 SA
BRANCH  15  16
HETATM   16  C   UNL     1      43.219 -11.369   5.359  1.00  0.00     0.185 C 
BRANCH  16  17
HETATM   17  C   UNL     1      44.663 -11.170   5.785  1.00  0.00     0.227 C 
HETATM   18  N   UNL     1      44.839 -10.998   7.142  1.00  0.00    -0.360 N 
HETATM   19  H   UNL     1      44.035 -10.634   7.656  1.00  0.00     0.162 HD
HETATM   20  O   UNL     1      45.592 -11.199   4.982  1.00  0.00    -0.273 OA
BRANCH  18  21
HETATM   21  C   UNL     1      46.156 -10.754   7.699  1.00  0.00     0.127 C 
BRANCH  21  22
HETATM   22  C   UNL     1      46.313  -9.305   8.156  1.00  0.00     0.058 C 
BRANCH  22  23
HETATM   23  C   UNL     1      45.227  -8.887   9.115  1.00  0.00    -0.057 A 
HETATM   24  C   UNL     1      44.382  -7.811   8.813  1.00  0.00     0.007 A 
HETATM   25  C   UNL     1      43.388  -7.420   9.713  1.00  0.00     0.001 A 
HETATM   26  C   UNL     1      43.231  -8.099  10.919  1.00  0.00     0.000 A 
HETATM   27  C   UNL     1      44.068  -9.168  11.230  1.00  0.00     0.001 A 
HETATM   28  C   UNL     1      45.064  -9.559  10.334  1.00  0.00     0.007 A 
ENDBRANCH  22  23
ENDBRANCH  21  22
ENDBRANCH  18  21
ENDBRANCH  16  17
ENDBRANCH  15  16
ENDBRANCH   5  15
BRANCH  13  29
HETATM   29  O   UNL     1      44.714 -19.499   4.553  1.00  0.00    -0.356 OA
HETATM   30  C   UNL     1      44.008 -20.618   4.030  1.00  0.00     0.210 C 
ENDBRANCH  13  29
TORSDOF 7
ENDMDL
MODEL 4
REMARK VINA RESULT:      -7.9      2.467      8.047
REMARK  7 active torsions:
REMARK  status: ('A' for Active; 'I' for Inactive)
REMARK    1  A    between atoms: C_5  and  S_6 
REMARK    2  A    between atoms: S_6  and  C_7 
REMARK    3  A    between atoms: C_7  and  C_8 
REMARK       I    between atoms: C_8  and  N_9 
REMARK    4  A    between atoms: N_9  and  C_10 
REMARK    5  A    between atoms: C_10  and  C_11 
REMARK    6  A    between atoms: C_11  and  C_12 
REMARK    7  A    between atoms: C_26  and  O_27 
ROOT
HETATM    1  C   UNL     1      43.133 -18.484   2.403  1.00  0.00     0.052 C 
HETATM    2  C   UNL     1      42.537 -17.108   2.571  1.00  0.00    -0.013 A 
HETATM    3  C   UNL     1      42.722 -16.341   3.761  1.00  0.00     0.165 A 
HETATM    4  N   UNL     1      42.137 -15.080   3.900  1.00  0.00    -0.271 N 
HETATM    5  C   UNL     1      42.536 -14.678   5.164  1.00  0.00     0.197 A 
HETATM    6  N   UNL     1      43.297 -15.599   5.715  1.00  0.00    -0.122 NA
HETATM    7  N   UNL     1      43.410 -16.639   4.844  1.00  0.00    -0.128 NA
HETATM    8  C   UNL     1      41.363 -14.480   2.866  1.00  0.00     0.053 A 
HETATM    9  C   UNL     1      41.209 -15.235   1.689  1.00  0.00    -0.005 A 
HETATM   10  C   UNL     1      41.807 -16.571   1.576  1.00  0.00     0.024 A 
HETATM   11  C   UNL     1      40.780 -13.214   2.945  1.00  0.00     0.034 A 
HETATM   12  C   UNL     1      40.057 -12.699   1.857  1.00  0.00     0.039 A 
HETATM   13  C   UNL     1      39.911 -13.440   0.687  1.00  0.00     0.069 A 
HETATM   14  C   UNL     1      40.484 -14.710   0.611  1.00  0.00     0.050 A 
ENDROOT
BRANCH   5  15
HETATM   15  S   UNL     1      42.134 -13.206   5.982  1.00  0.00    -0.080 SA
BRANCH  15  16
HETATM   16  C   UNL     1      43.552 -12.158   5.559  1.00  0.00     0.185 C 
BRANCH  16  17
HETATM   17  C   UNL     1      44.401 -11.854   6.781  1.00  0.00     0.227 C 
HETATM   18  N   UNL     1      45.503 -11.065   6.528  1.00  0.00    -0.360 N 
HETATM   19  H   UNL     1      45.863 -11.088   5.572  1.00  0.00     0.162 HD
HETATM   20  O   UNL     1      44.101 -12.255   7.903  1.00  0.00    -0.273 OA
BRANCH  18  21
HETATM   21  C   UNL     1      46.434 -10.723   7.586  1.00  0.00     0.127 C 
BRANCH  21  22
HETATM   22  C   UNL     1      46.358  -9.240   7.944  1.00  0.00     0.058 C 
BRANCH  22  23
HETATM   23  C   UNL     1      45.287  -8.952   8.966  1.00  0.00    -0.057 A 
HETATM   24  C   UNL     1      44.330  -7.956   8.738  1.00  0.00     0.007 A 
HETATM   25  C   UNL     1      43.350  -7.684   9.696  1.00  0.00     0.001 A 
HETATM   26  C   UNL     1      43.319  -8.406  10.888  1.00  0.00     0.000 A 
HETATM   27  C   UNL     1      44.269  -9.397  11.126  1.00  0.00     0.001 A 
HETATM   28  C   UNL     1      45.250  -9.668  10.171  1.00  0.00     0.007 A 
ENDBRANCH  22  23
ENDBRANCH  21  22
ENDBRANCH  18  21
ENDBRANCH  16  17
ENDBRANCH  15  16
ENDBRANCH   5  15
BRANCH  13  29
HETATM   29  O   UNL     1      39.242 -13.046  -0.438  1.00  0.00    -0.356 OA
HETATM   30  C   UNL     1      39.934 -12.178  -1.328  1.00  0.00     0.210 C 
ENDBRANCH  13  29
TORSDOF 7
ENDMDL
MODEL 5
REMARK VINA RESULT:      -7.8      3.486      8.672
REMARK  7 active torsions:
REMARK  status: ('A' for Active; 'I' for Inactive)
REMARK    1  A    between atoms: C_5  and  S_6 
REMARK    2  A    between atoms: S_6  and  C_7 
REMARK    3  A    between atoms: C_7  and  C_8 
REMARK       I    between atoms: C_8  and  N_9 
REMARK    4  A    between atoms: N_9  and  C_10 
REMARK    5  A    between atoms: C_10  and  C_11 
REMARK    6  A    between atoms: C_11  and  C_12 
REMARK    7  A    between atoms: C_26  and  O_27 
ROOT
HETATM    1  C   UNL     1      43.992 -18.895   3.924  1.00  0.00     0.052 C 
HETATM    2  C   UNL     1      43.470 -17.485   3.791  1.00  0.00    -0.013 A 
HETATM    3  C   UNL     1      43.616 -16.519   4.832  1.00  0.00     0.165 A 
HETATM    4  N   UNL     1      43.100 -15.229   4.692  1.00  0.00    -0.271 N 
HETATM    5  C   UNL     1      43.434 -14.618   5.890  1.00  0.00     0.197 A 
HETATM    6  N   UNL     1      44.099 -15.454   6.657  1.00  0.00    -0.122 NA
HETATM    7  N   UNL     1      44.209 -16.642   6.002  1.00  0.00    -0.128 NA
HETATM    8  C   UNL     1      42.438 -14.797   3.508  1.00  0.00     0.053 A 
HETATM    9  C   UNL     1      42.320 -15.750   2.480  1.00  0.00    -0.005 A 
HETATM   10  C   UNL     1      42.843 -17.109   2.660  1.00  0.00     0.024 A 
HETATM   11  C   UNL     1      41.927 -13.513   3.309  1.00  0.00     0.034 A 
HETATM   12  C   UNL     1      41.313 -13.176   2.092  1.00  0.00     0.039 A 
HETATM   13  C   UNL     1      41.204 -14.114   1.068  1.00  0.00     0.069 A 
HETATM   14  C   UNL     1      41.704 -15.401   1.271  1.00  0.00     0.050 A 
ENDROOT
BRANCH   5  15
HETATM   15  S   UNL     1      43.065 -13.003   6.392  1.00  0.00    -0.080 SA
BRANCH  15  16
HETATM   16  C   UNL     1      44.722 -12.325   6.678  1.00  0.00     0.185 C 
BRANCH  16  17
HETATM   17  C   UNL     1      44.681 -11.144   7.632  1.00  0.00     0.227 C 
HETATM   18  N   UNL     1      43.633 -11.169   8.528  1.00  0.00    -0.360 N 
HETATM   19  H   UNL     1      42.811 -11.703   8.241  1.00  0.00     0.162 HD
HETATM   20  O   UNL     1      45.537 -10.262   7.620  1.00  0.00    -0.273 OA
BRANCH  18  21
HETATM   21  C   UNL     1      43.434 -10.089   9.475  1.00  0.00     0.127 C 
BRANCH  21  22
HETATM   22  C   UNL     1      43.922 -10.470  10.871  1.00  0.00     0.058 C 
BRANCH  22  23
HETATM   23  C   UNL     1      43.240  -9.672  11.954  1.00  0.00    -0.057 A 
HETATM   24  C   UNL     1      42.128 -10.190  12.630  1.00  0.00     0.007 A 
HETATM   25  C   UNL     1      41.492  -9.439  13.621  1.00  0.00     0.001 A 
HETATM   26  C   UNL     1      41.962  -8.167  13.945  1.00  0.00     0.000 A 
HETATM   27  C   UNL     1      43.066  -7.643  13.276  1.00  0.00     0.001 A 
HETATM   28  C   UNL     1      43.701  -8.390  12.283  1.00  0.00     0.007 A 
ENDBRANCH  22  23
ENDBRANCH  21  22
ENDBRANCH  18  21
ENDBRANCH  16  17
ENDBRANCH  15  16
ENDBRANCH   5  15
BRANCH  13  29
HETATM   29  O   UNL     1      40.640 -13.906  -0.159  1.00  0.00    -0.356 OA
HETATM   30  C   UNL     1      39.536 -13.012  -0.217  1.00  0.00     0.210 C 
ENDBRANCH  13  29
TORSDOF 7
ENDMDL
MODEL 6
REMARK VINA RESULT:      -7.7      2.768      4.879
REMARK  7 active torsions:
REMARK  status: ('A' for Active; 'I' for Inactive)
REMARK    1  A    between atoms: C_5  and  S_6 
REMARK    2  A    between atoms: S_6  and  C_7 
REMARK    3  A    between atoms: C_7  and  C_8 
REMARK       I    between atoms: C_8  and  N_9 
REMARK    4  A    between atoms: N_9  and  C_10 
REMARK    5  A    between atoms: C_10  and  C_11 
REMARK    6  A    between atoms: C_11  and  C_12 
REMARK    7  A    between atoms: C_26  and  O_27 
ROOT
HETATM    1  C   UNL     1      45.474 -10.904   6.714  1.00  0.00     0.052 C 
HETATM    2  C   UNL     1      44.212 -11.708   6.511  1.00  0.00    -0.013 A 
HETATM    3  C   UNL     1      42.923 -11.097   6.454  1.00  0.00     0.165 A 
HETATM    4  N   UNL     1      41.771 -11.868   6.290  1.00  0.00    -0.271 N 
HETATM    5  C   UNL     1      40.753 -10.929   6.293  1.00  0.00     0.197 A 
HETATM    6  N   UNL     1      41.251  -9.718   6.426  1.00  0.00    -0.122 NA
HETATM    7  N   UNL     1      42.604  -9.821   6.532  1.00  0.00    -0.128 NA
HETATM    8  C   UNL     1      41.815 -13.283   6.138  1.00  0.00     0.053 A 
HETATM    9  C   UNL     1      43.092 -13.872   6.172  1.00  0.00    -0.005 A 
HETATM   10  C   UNL     1      44.288 -13.045   6.375  1.00  0.00     0.024 A 
HETATM   11  C   UNL     1      40.695 -14.095   5.947  1.00  0.00     0.034 A 
HETATM   12  C   UNL     1      40.846 -15.481   5.780  1.00  0.00     0.039 A 
HETATM   13  C   UNL     1      42.110 -16.065   5.802  1.00  0.00     0.069 A 
HETATM   14  C   UNL     1      43.229 -15.256   6.005  1.00  0.00     0.050 A 
ENDROOT
BRANCH   5  15
HETATM   15  S   UNL     1      39.050 -11.213   6.157  1.00  0.00    -0.080 SA
BRANCH  15  16
HETATM   16  C   UNL     1      38.596 -10.064   4.830  1.00  0.00     0.185 C 
BRANCH  16  17
HETATM   17  C   UNL     1      39.250 -10.450   3.515  1.00  0.00     0.227 C 
HETATM   18  N   UNL     1      39.443 -11.805   3.348  1.00  0.00    -0.360 N 
HETATM   19  H   UNL     1      39.510 -12.357   4.205  1.00  0.00     0.162 HD
HETATM   20  O   UNL     1      39.547  -9.616   2.662  1.00  0.00    -0.273 OA
BRANCH  18  21
HETATM   21  C   UNL     1      40.095 -12.327   2.163  1.00  0.00     0.127 C 
BRANCH  21  22
HETATM   22  C   UNL     1      41.566 -12.645   2.425  1.00  0.00     0.058 C 
BRANCH  22  23
HETATM   23  C   UNL     1      41.859 -14.120   2.325  1.00  0.00    -0.057 A 
HETATM   24  C   UNL     1      40.818 -15.051   2.217  1.00  0.00     0.007 A 
HETATM   25  C   UNL     1      41.096 -16.417   2.140  1.00  0.00     0.001 A 
HETATM   26  C   UNL     1      42.416 -16.864   2.169  1.00  0.00     0.000 A 
HETATM   27  C   UNL     1      43.459 -15.947   2.279  1.00  0.00     0.001 A 
HETATM   28  C   UNL     1      43.182 -14.582   2.360  1.00  0.00     0.007 A 
ENDBRANCH  22  23
ENDBRANCH  21  22
ENDBRANCH  18  21
ENDBRANCH  16  17
ENDBRANCH  15  16
ENDBRANCH   5  15
BRANCH  13  29
HETATM   29  O   UNL     1      42.387 -17.394   5.642  1.00  0.00    -0.356 OA
HETATM   30  C   UNL     1      43.759 -17.767   5.601  1.00  0.00     0.210 C 
ENDBRANCH  13  29
TORSDOF 7
ENDMDL
MODEL 7
REMARK VINA RESULT:      -7.5      8.122     11.404
REMARK  7 active torsions:
REMARK  status: ('A' for Active; 'I' for Inactive)
REMARK    1  A    between atoms: C_5  and  S_6 
REMARK    2  A    between atoms: S_6  and  C_7 
REMARK    3  A    between atoms: C_7  and  C_8 
REMARK       I    between atoms: C_8  and  N_9 
REMARK    4  A    between atoms: N_9  and  C_10 
REMARK    5  A    between atoms: C_10  and  C_11 
REMARK    6  A    between atoms: C_11  and  C_12 
REMARK    7  A    between atoms: C_26  and  O_27 
ROOT
HETATM    1  C   UNL     1      38.228  -7.615  12.967  1.00  0.00     0.052 C 
HETATM    2  C   UNL     1      39.356  -6.954  12.212  1.00  0.00    -0.013 A 
HETATM    3  C   UNL     1      39.802  -7.430  10.943  1.00  0.00     0.165 A 
HETATM    4  N   UNL     1      40.865  -6.814  10.278  1.00  0.00    -0.271 N 
HETATM    5  C   UNL     1      40.992  -7.558   9.117  1.00  0.00     0.197 A 
HETATM    6  N   UNL     1      40.084  -8.510   9.084  1.00  0.00    -0.122 NA
HETATM    7  N   UNL     1      39.344  -8.435  10.225  1.00  0.00    -0.128 NA
HETATM    8  C   UNL     1      41.533  -5.671  10.803  1.00  0.00     0.053 A 
HETATM    9  C   UNL     1      41.068  -5.196  12.043  1.00  0.00    -0.005 A 
HETATM   10  C   UNL     1      39.970  -5.877  12.738  1.00  0.00     0.024 A 
HETATM   11  C   UNL     1      42.582  -5.004  10.168  1.00  0.00     0.034 A 
HETATM   12  C   UNL     1      43.157  -3.867  10.755  1.00  0.00     0.039 A 
HETATM   13  C   UNL     1      42.693  -3.388  11.978  1.00  0.00     0.069 A 
HETATM   14  C   UNL     1      41.652  -4.061  12.620  1.00  0.00     0.050 A 
ENDROOT
BRANCH   5  15
HETATM   15  S   UNL     1      42.150  -7.347   7.847  1.00  0.00    -0.080 SA
BRANCH  15  16
HETATM   16  C   UNL     1      43.044  -8.923   7.907  1.00  0.00     0.185 C 
BRANCH  16  17
HETATM   17  C   UNL     1      43.583  -9.203   9.299  1.00  0.00     0.227 C 
HETATM   18  N   UNL     1      42.804 -10.057  10.052  1.00  0.00    -0.360 N 
HETATM   19  H   UNL     1      41.815 -10.101   9.801  1.00  0.00     0.162 HD
HETATM   20  O   UNL     1      44.644  -8.729   9.698  1.00  0.00    -0.273 OA
BRANCH  18  21
HETATM   21  C   UNL     1      43.164 -10.387  11.417  1.00  0.00     0.127 C 
BRANCH  21  22
HETATM   22  C   UNL     1      41.989 -10.180  12.372  1.00  0.00     0.058 C 
BRANCH  22  23
HETATM   23  C   UNL     1      42.220  -9.036  13.326  1.00  0.00    -0.057 A 
HETATM   24  C   UNL     1      43.214  -8.082  13.071  1.00  0.00     0.007 A 
HETATM   25  C   UNL     1      43.433  -7.033  13.966  1.00  0.00     0.001 A 
HETATM   26  C   UNL     1      42.661  -6.928  15.122  1.00  0.00     0.000 A 
HETATM   27  C   UNL     1      41.672  -7.872  15.386  1.00  0.00     0.001 A 
HETATM   28  C   UNL     1      41.454  -8.923  14.494  1.00  0.00     0.007 A 
ENDBRANCH  22  23
ENDBRANCH  21  22
ENDBRANCH  18  21
ENDBRANCH  16  17
ENDBRANCH  15  16
ENDBRANCH   5  15
BRANCH  13  29
HETATM   29  O   UNL     1      43.162  -2.291  12.644  1.00  0.00    -0.356 OA
HETATM   30  C   UNL     1      42.522  -1.958  13.870  1.00  0.00     0.210 C 
ENDBRANCH  13  29
TORSDOF 7
ENDMDL
MODEL 8
REMARK VINA RESULT:      -7.3      3.183      4.883
REMARK  7 active torsions:
REMARK  status: ('A' for Active; 'I' for Inactive)
REMARK    1  A    between atoms: C_5  and  S_6 
REMARK    2  A    between atoms: S_6  and  C_7 
REMARK    3  A    between atoms: C_7  and  C_8 
REMARK       I    between atoms: C_8  and  N_9 
REMARK    4  A    between atoms: N_9  and  C_10 
REMARK    5  A    between atoms: C_10  and  C_11 
REMARK    6  A    between atoms: C_11  and  C_12 
REMARK    7  A    between atoms: C_26  and  O_27 
ROOT
HETATM    1  C   UNL     1      44.991  -9.427   9.959  1.00  0.00     0.052 C 
HETATM    2  C   UNL     1      43.844  -9.660   9.006  1.00  0.00    -0.013 A 
HETATM    3  C   UNL     1      43.854 -10.719   8.049  1.00  0.00     0.165 A 
HETATM    4  N   UNL     1      42.790 -10.896   7.163  1.00  0.00    -0.271 N 
HETATM    5  C   UNL     1      43.175 -11.994   6.412  1.00  0.00     0.197 A 
HETATM    6  N   UNL     1      44.343 -12.439   6.824  1.00  0.00    -0.122 NA
HETATM    7  N   UNL     1      44.771 -11.642   7.841  1.00  0.00    -0.128 NA
HETATM    8  C   UNL     1      41.635 -10.063   7.183  1.00  0.00     0.053 A 
HETATM    9  C   UNL     1      41.625  -9.039   8.146  1.00  0.00    -0.005 A 
HETATM   10  C   UNL     1      42.768  -8.852   9.048  1.00  0.00     0.024 A 
HETATM   11  C   UNL     1      40.535 -10.213   6.336  1.00  0.00     0.034 A 
HETATM   12  C   UNL     1      39.429  -9.357   6.454  1.00  0.00     0.039 A 
HETATM   13  C   UNL     1      39.412  -8.347   7.413  1.00  0.00     0.069 A 
HETATM   14  C   UNL     1      40.516  -8.189   8.252  1.00  0.00     0.050 A 
ENDROOT
BRANCH   5  15
HETATM   15  S   UNL     1      42.318 -12.735   5.103  1.00  0.00    -0.080 SA
BRANCH  15  16
HETATM   16  C   UNL     1      41.110 -13.754   5.993  1.00  0.00     0.185 C 
BRANCH  16  17
HETATM   17  C   UNL     1      41.492 -15.223   5.959  1.00  0.00     0.227 C 
HETATM   18  N   UNL     1      42.719 -15.508   6.522  1.00  0.00    -0.360 N 
HETATM   19  H   UNL     1      43.393 -14.741   6.540  1.00  0.00     0.162 HD
HETATM   20  O   UNL     1      40.746 -16.083   5.497  1.00  0.00    -0.273 OA
BRANCH  18  21
HETATM   21  C   UNL     1      43.242 -16.860   6.527  1.00  0.00     0.127 C 
BRANCH  21  22
HETATM   22  C   UNL     1      44.373 -17.028   5.514  1.00  0.00     0.058 C 
BRANCH  22  23
HETATM   23  C   UNL     1      43.968 -17.882   4.339  1.00  0.00    -0.057 A 
HETATM   24  C   UNL     1      43.243 -17.334   3.274  1.00  0.00     0.007 A 
HETATM   25  C   UNL     1      42.858 -18.134   2.196  1.00  0.00     0.001 A 
HETATM   26  C   UNL     1      43.195 -19.486   2.174  1.00  0.00     0.000 A 
HETATM   27  C   UNL     1      43.913 -20.041   3.230  1.00  0.00     0.001 A 
HETATM   28  C   UNL     1      44.296 -19.244   4.309  1.00  0.00     0.007 A 
ENDBRANCH  22  23
ENDBRANCH  21  22
ENDBRANCH  18  21
ENDBRANCH  16  17
ENDBRANCH  15  16
ENDBRANCH   5  15
BRANCH  13  29
HETATM   29  O   UNL     1      38.395  -7.461   7.632  1.00  0.00    -0.356 OA
HETATM   30  C   UNL     1      38.705  -6.299   8.392  1.00  0.00     0.210 C 
ENDBRANCH  13  29
TORSDOF 7
ENDMDL
MODEL 9
REMARK VINA RESULT:      -7.3      4.396      9.479
REMARK  7 active torsions:
REMARK  status: ('A' for Active; 'I' for Inactive)
REMARK    1  A    between atoms: C_5  and  S_6 
REMARK    2  A    between atoms: S_6  and  C_7 
REMARK    3  A    between atoms: C_7  and  C_8 
REMARK       I    between atoms: C_8  and  N_9 
REMARK    4  A    between atoms: N_9  and  C_10 
REMARK    5  A    between atoms: C_10  and  C_11 
REMARK    6  A    between atoms: C_11  and  C_12 
REMARK    7  A    between atoms: C_26  and  O_27 
ROOT
HETATM    1  C   UNL     1      41.402 -12.863   1.225  1.00  0.00     0.052 C 
HETATM    2  C   UNL     1      41.993 -13.239   2.562  1.00  0.00    -0.013 A 
HETATM    3  C   UNL     1      42.434 -12.258   3.501  1.00  0.00     0.165 A 
HETATM    4  N   UNL     1      43.000 -12.636   4.721  1.00  0.00    -0.271 N 
HETATM    5  C   UNL     1      43.297 -11.426   5.326  1.00  0.00     0.197 A 
HETATM    6  N   UNL     1      42.927 -10.428   4.553  1.00  0.00    -0.122 NA
HETATM    7  N   UNL     1      42.393 -10.945   3.412  1.00  0.00    -0.128 NA
HETATM    8  C   UNL     1      43.137 -14.000   5.108  1.00  0.00     0.053 A 
HETATM    9  C   UNL     1      42.677 -14.956   4.186  1.00  0.00    -0.005 A 
HETATM   10  C   UNL     1      42.113 -14.538   2.897  1.00  0.00     0.024 A 
HETATM   11  C   UNL     1      43.673 -14.428   6.324  1.00  0.00     0.034 A 
HETATM   12  C   UNL     1      43.739 -15.798   6.625  1.00  0.00     0.039 A 
HETATM   13  C   UNL     1      43.275 -16.747   5.718  1.00  0.00     0.069 A 
HETATM   14  C   UNL     1      42.751 -16.320   4.497  1.00  0.00     0.050 A 
ENDROOT
BRANCH   5  15
HETATM   15  S   UNL     1      44.050 -11.169   6.863  1.00  0.00    -0.080 SA
BRANCH  15  16
HETATM   16  C   UNL     1      42.903  -9.996   7.636  1.00  0.00     0.185 C 
BRANCH  16  17
HETATM   17  C   UNL     1      43.369  -9.599   9.026  1.00  0.00     0.227 C 
HETATM   18  N   UNL     1      43.242 -10.591   9.976  1.00  0.00    -0.360 N 
HETATM   19  H   UNL     1      42.532 -11.301   9.791  1.00  0.00     0.162 HD
HETATM   20  O   UNL     1      43.850  -8.494   9.265  1.00  0.00    -0.273 OA
BRANCH  18  21
HETATM   21  C   UNL     1      43.605 -10.350  11.359  1.00  0.00     0.127 C 
BRANCH  21  22
HETATM   22  C   UNL     1      42.371 -10.274  12.257  1.00  0.00     0.058 C 
BRANCH  22  23
HETATM   23  C   UNL     1      42.438  -9.119  13.224  1.00  0.00    -0.057 A 
HETATM   24  C   UNL     1      41.572  -9.056  14.324  1.00  0.00     0.007 A 
HETATM   25  C   UNL     1      41.629  -7.976  15.207  1.00  0.00     0.001 A 
HETATM   26  C   UNL     1      42.551  -6.951  14.999  1.00  0.00     0.000 A 
HETATM   27  C   UNL     1      43.414  -7.002  13.906  1.00  0.00     0.001 A 
HETATM   28  C   UNL     1      43.356  -8.080  13.021  1.00  0.00     0.007 A 
ENDBRANCH  22  23
ENDBRANCH  21  22
ENDBRANCH  18  21
ENDBRANCH  16  17
ENDBRANCH  15  16
ENDBRANCH   5  15
BRANCH  13  29
HETATM   29  O   UNL     1      43.277 -18.102   5.898  1.00  0.00    -0.356 OA
HETATM   30  C   UNL     1      44.037 -18.874   4.976  1.00  0.00     0.210 C 
ENDBRANCH  13  29
TORSDOF 7
ENDMDL
MODEL 10
REMARK VINA RESULT:      -7.2      4.137      9.245
REMARK  7 active torsions:
REMARK  status: ('A' for Active; 'I' for Inactive)
REMARK    1  A    between atoms: C_5  and  S_6 
REMARK    2  A    between atoms: S_6  and  C_7 
REMARK    3  A    between atoms: C_7  and  C_8 
REMARK       I    between atoms: C_8  and  N_9 
REMARK    4  A    between atoms: N_9  and  C_10 
REMARK    5  A    between atoms: C_10  and  C_11 
REMARK    6  A    between atoms: C_11  and  C_12 
REMARK    7  A    between atoms: C_26  and  O_27 
ROOT
HETATM    1  C   UNL     1      44.367 -17.066   5.979  1.00  0.00     0.052 C 
HETATM    2  C   UNL     1      43.474 -16.042   5.322  1.00  0.00    -0.013 A 
HETATM    3  C   UNL     1      43.340 -14.714   5.830  1.00  0.00     0.165 A 
HETATM    4  N   UNL     1      42.487 -13.794   5.216  1.00  0.00    -0.271 N 
HETATM    5  C   UNL     1      42.630 -12.656   5.993  1.00  0.00     0.197 A 
HETATM    6  N   UNL     1      43.496 -12.871   6.959  1.00  0.00    -0.122 NA
HETATM    7  N   UNL     1      43.937 -14.155   6.863  1.00  0.00    -0.128 NA
HETATM    8  C   UNL     1      41.737 -14.111   4.048  1.00  0.00     0.053 A 
HETATM    9  C   UNL     1      41.896 -15.414   3.543  1.00  0.00    -0.005 A 
HETATM   10  C   UNL     1      42.775 -16.374   4.221  1.00  0.00     0.024 A 
HETATM   11  C   UNL     1      40.890 -13.221   3.384  1.00  0.00     0.034 A 
HETATM   12  C   UNL     1      40.215 -13.622   2.220  1.00  0.00     0.039 A 
HETATM   13  C   UNL     1      40.377 -14.908   1.712  1.00  0.00     0.069 A 
HETATM   14  C   UNL     1      41.214 -15.802   2.382  1.00  0.00     0.050 A 
ENDROOT
BRANCH   5  15
HETATM   15  S   UNL     1      41.823 -11.136   5.801  1.00  0.00    -0.080 SA
BRANCH  15  16
HETATM   16  C   UNL     1      42.843 -10.052   6.837  1.00  0.00     0.185 C 
BRANCH  16  17
HETATM   17  C   UNL     1      42.189  -9.797   8.183  1.00  0.00     0.227 C 
HETATM   18  N   UNL     1      43.030  -9.953   9.265  1.00  0.00    -0.360 N 
HETATM   19  H   UNL     1      43.831 -10.571   9.125  1.00  0.00     0.162 HD
HETATM   20  O   UNL     1      41.016  -9.446   8.286  1.00  0.00    -0.273 OA
BRANCH  18  21
HETATM   21  C   UNL     1      42.543  -9.785  10.620  1.00  0.00     0.127 C 
BRANCH  21  22
HETATM   22  C   UNL     1      43.516  -8.970  11.470  1.00  0.00     0.058 C 
BRANCH  22  23
HETATM   23  C   UNL     1      42.911  -8.544  12.784  1.00  0.00    -0.057 A 
HETATM   24  C   UNL     1      43.412  -7.434  13.475  1.00  0.00     0.007 A 
HETATM   25  C   UNL     1      42.856  -7.054  14.699  1.00  0.00     0.001 A 
HETATM   26  C   UNL     1      41.797  -7.779  15.241  1.00  0.00     0.000 A 
HETATM   27  C   UNL     1      41.293  -8.887  14.563  1.00  0.00     0.001 A 
HETATM   28  C   UNL     1      41.849  -9.270  13.341  1.00  0.00     0.007 A 
ENDBRANCH  22  23
ENDBRANCH  21  22
ENDBRANCH  18  21
ENDBRANCH  16  17
ENDBRANCH  15  16
ENDBRANCH   5  15
BRANCH  13  29
HETATM   29  O   UNL     1      39.785 -15.411   0.588  1.00  0.00    -0.356 OA
HETATM   30  C   UNL     1      39.792 -14.585  -0.570  1.00  0.00     0.210 C 
ENDBRANCH  13  29
TORSDOF 7
ENDMDL
