MODEL 1
REMARK VINA RESULT:      -8.9      0.000      0.000
REMARK  7 active torsions:
REMARK  status: ('A' for Active; 'I' for Inactive)
REMARK    1  A    between atoms: C_2  and  C_3 
REMARK    2  A    between atoms: C_2  and  C_9 
REMARK    3  A    between atoms: C_9  and  C_10 
REMARK       I    between atoms: C_10  and  N_11 
REMARK    4  A    between atoms: N_11  and  N_12 
REMARK       I    between atoms: N_12  and  C_13 
REMARK    5  A    between atoms: C_13  and  C_14 
REMARK    6  A    between atoms: C_18  and  C_19 
REMARK    7  A    between atoms: C_22  and  O_23 
ROOT
HETATM    1  N   UNL     1      43.347 -11.845   7.535  1.00  0.00    -0.262 N 
HETATM    2  C   UNL     1      42.933 -11.613   6.242  1.00  0.00     0.288 C 
HETATM    3  O   UNL     1      42.600 -10.494   5.854  1.00  0.00    -0.264 OA
HETATM    4  H   UNL     1      43.589 -12.764   7.898  1.00  0.00     0.190 HD
ENDROOT
BRANCH   2   5
HETATM    5  C   UNL     1      42.932 -12.769   5.388  1.00  0.00     0.121 A 
HETATM    6  N   UNL     1      42.611 -12.697   4.063  1.00  0.00    -0.272 N 
HETATM    7  H   UNL     1      42.336 -11.867   3.544  1.00  0.00     0.189 HD
HETATM    8  N   UNL     1      42.704 -13.866   3.410  1.00  0.00    -0.174 NA
HETATM    9  C   UNL     1      43.071 -14.752   4.349  1.00  0.00     0.089 A 
HETATM   10  C   UNL     1      43.223 -14.101   5.605  1.00  0.00     0.071 A 
BRANCH   9  11
HETATM   11  C   UNL     1      43.291 -16.167   4.045  1.00  0.00    -0.005 A 
HETATM   12  C   UNL     1      42.897 -16.703   2.813  1.00  0.00     0.016 A 
HETATM   13  C   UNL     1      43.147 -18.046   2.509  1.00  0.00     0.037 A 
HETATM   14  C   UNL     1      43.789 -18.878   3.428  1.00  0.00     0.068 A 
HETATM   15  C   UNL     1      44.164 -18.359   4.665  1.00  0.00     0.037 A 
HETATM   16  C   UNL     1      43.918 -17.014   4.971  1.00  0.00     0.016 A 
BRANCH  14  17
HETATM   17  O   UNL     1      43.984 -20.163   3.003  1.00  0.00    -0.356 OA
HETATM   18  C   UNL     1      43.558 -20.473   1.682  1.00  0.00     0.210 C 
ENDBRANCH  14  17
ENDBRANCH   9  11
ENDBRANCH   2   5
BRANCH   1  19
HETATM   19  N   UNL     1      43.382 -10.794   8.456  1.00  0.00    -0.267 N 
HETATM   20  C   UNL     1      44.607 -10.483   9.004  1.00  0.00     0.236 C 
HETATM   21  O   UNL     1      45.652 -10.998   8.600  1.00  0.00    -0.272 OA
HETATM   22  H   UNL     1      42.491 -10.516   8.858  1.00  0.00     0.190 HD
BRANCH  20  23
HETATM   23  C   UNL     1      44.604  -9.388  10.051  1.00  0.00     0.113 C 
BRANCH  23  24
HETATM   24  C   UNL     1      43.253  -8.685  10.259  1.00  0.00     0.023 C 
HETATM   25  C   UNL     1      43.331  -7.239   9.757  1.00  0.00     0.015 C 
BRANCH  24  26
HETATM   26  C   UNL     1      42.769  -8.716  11.698  1.00  0.00    -0.054 A 
HETATM   27  C   UNL     1      41.803  -9.637  12.134  1.00  0.00     0.007 A 
HETATM   28  C   UNL     1      41.372  -9.641  13.463  1.00  0.00     0.001 A 
HETATM   29  C   UNL     1      41.902  -8.730  14.373  1.00  0.00     0.000 A 
HETATM   30  C   UNL     1      42.865  -7.815  13.957  1.00  0.00     0.001 A 
HETATM   31  C   UNL     1      43.297  -7.808  12.629  1.00  0.00     0.007 A 
ENDBRANCH  24  26
ENDBRANCH  23  24
ENDBRANCH  20  23
ENDBRANCH   1  19
TORSDOF 7
ENDMDL
MODEL 2
REMARK VINA RESULT:      -8.9      2.163     11.174
REMARK  7 active torsions:
REMARK  status: ('A' for Active; 'I' for Inactive)
REMARK    1  A    between atoms: C_2  and  C_3 
REMARK    2  A    between atoms: C_2  and  C_9 
REMARK    3  A    between atoms: C_9  and  C_10 
REMARK       I    between atoms: C_10  and  N_11 
REMARK    4  A    between atoms: N_11  and  N_12 
REMARK       I    between atoms: N_12  and  C_13 
REMARK    5  A    between atoms: C_13  and  C_14 
REMARK    6  A    between atoms: C_18  and  C_19 
REMARK    7  A    between atoms: C_22  and  O_23 
ROOT
HETATM    1  N   UNL     1      43.655 -12.121   7.534  1.00  0.00    -0.262 N 
HETATM    2  C   UNL     1      44.616 -11.207   7.906  1.00  0.00     0.288 C 
HETATM    3  O   UNL     1      45.724 -11.174   7.375  1.00  0.00    -0.264 OA
HETATM    4  H   UNL     1      42.744 -12.202   7.981  1.00  0.00     0.190 HD
ENDROOT
BRANCH   2   5
HETATM    5  C   UNL     1      44.220 -10.299   8.947  1.00  0.00     0.121 A 
HETATM    6  N   UNL     1      44.244  -8.944   8.782  1.00  0.00    -0.272 N 
HETATM    7  H   UNL     1      44.540  -8.434   7.955  1.00  0.00     0.189 HD
HETATM    8  N   UNL     1      43.800  -8.252   9.844  1.00  0.00    -0.174 NA
HETATM    9  C   UNL     1      43.500  -9.188  10.758  1.00  0.00     0.089 A 
HETATM   10  C   UNL     1      43.750 -10.486  10.232  1.00  0.00     0.071 A 
BRANCH   9  11
HETATM   11  C   UNL     1      42.967  -8.847  12.079  1.00  0.00    -0.005 A 
HETATM   12  C   UNL     1      41.971  -9.633  12.672  1.00  0.00     0.016 A 
HETATM   13  C   UNL     1      41.494  -9.330  13.952  1.00  0.00     0.037 A 
HETATM   14  C   UNL     1      41.998  -8.237  14.660  1.00  0.00     0.068 A 
HETATM   15  C   UNL     1      42.973  -7.437  14.069  1.00  0.00     0.037 A 
HETATM   16  C   UNL     1      43.455  -7.740  12.788  1.00  0.00     0.016 A 
BRANCH  14  17
HETATM   17  O   UNL     1      41.457  -8.059  15.903  1.00  0.00    -0.356 OA
HETATM   18  C   UNL     1      41.977  -6.987  16.681  1.00  0.00     0.210 C 
ENDBRANCH  14  17
ENDBRANCH   9  11
ENDBRANCH   2   5
BRANCH   1  19
HETATM   19  N   UNL     1      43.932 -13.058   6.534  1.00  0.00    -0.267 N 
HETATM   20  C   UNL     1      42.891 -13.859   6.121  1.00  0.00     0.236 C 
HETATM   21  O   UNL     1      41.732 -13.669   6.498  1.00  0.00    -0.272 OA
HETATM   22  H   UNL     1      44.913 -13.272   6.377  1.00  0.00     0.190 HD
BRANCH  20  23
HETATM   23  C   UNL     1      43.236 -14.913   5.088  1.00  0.00     0.113 C 
BRANCH  23  24
HETATM   24  C   UNL     1      43.370 -16.344   5.634  1.00  0.00     0.023 C 
HETATM   25  C   UNL     1      44.598 -16.444   6.547  1.00  0.00     0.015 C 
BRANCH  24  26
HETATM   26  C   UNL     1      43.435 -17.403   4.548  1.00  0.00    -0.054 A 
HETATM   27  C   UNL     1      43.985 -18.673   4.785  1.00  0.00     0.007 A 
HETATM   28  C   UNL     1      44.035 -19.628   3.767  1.00  0.00     0.001 A 
HETATM   29  C   UNL     1      43.534 -19.330   2.503  1.00  0.00     0.000 A 
HETATM   30  C   UNL     1      42.980 -18.077   2.254  1.00  0.00     0.001 A 
HETATM   31  C   UNL     1      42.929 -17.120   3.270  1.00  0.00     0.007 A 
ENDBRANCH  24  26
ENDBRANCH  23  24
ENDBRANCH  20  23
ENDBRANCH   1  19
TORSDOF 7
ENDMDL
MODEL 3
REMARK VINA RESULT:      -8.8      2.073     11.000
REMARK  7 active torsions:
REMARK  status: ('A' for Active; 'I' for Inactive)
REMARK    1  A    between atoms: C_2  and  C_3 
REMARK    2  A    between atoms: C_2  and  C_9 
REMARK    3  A    between atoms: C_9  and  C_10 
REMARK       I    between atoms: C_10  and  N_11 
REMARK    4  A    between atoms: N_11  and  N_12 
REMARK       I    between atoms: N_12  and  C_13 
REMARK    5  A    between atoms: C_13  and  C_14 
REMARK    6  A    between atoms: C_18  and  C_19 
REMARK    7  A    between atoms: C_22  and  O_23 
ROOT
HETATM    1  N   UNL     1      43.170 -13.172   5.915  1.00  0.00    -0.262 N 
HETATM    2  C   UNL     1      43.967 -12.053   5.819  1.00  0.00     0.288 C 
HETATM    3  O   UNL     1      44.474 -11.702   4.755  1.00  0.00    -0.264 OA
HETATM    4  H   UNL     1      42.770 -13.511   6.787  1.00  0.00     0.190 HD
ENDROOT
BRANCH   2   5
HETATM    5  C   UNL     1      44.148 -11.328   7.047  1.00  0.00     0.121 A 
HETATM    6  N   UNL     1      45.335 -11.320   7.721  1.00  0.00    -0.272 N 
HETATM    7  H   UNL     1      46.189 -11.806   7.462  1.00  0.00     0.189 HD
HETATM    8  N   UNL     1      45.336 -10.556   8.825  1.00  0.00    -0.174 NA
HETATM    9  C   UNL     1      44.088 -10.067   8.900  1.00  0.00     0.089 A 
HETATM   10  C   UNL     1      43.313 -10.529   7.802  1.00  0.00     0.071 A 
BRANCH   9  11
HETATM   11  C   UNL     1      43.666  -9.166   9.975  1.00  0.00    -0.005 A 
HETATM   12  C   UNL     1      43.725  -9.574  11.314  1.00  0.00     0.016 A 
HETATM   13  C   UNL     1      43.360  -8.697  12.341  1.00  0.00     0.037 A 
HETATM   14  C   UNL     1      42.927  -7.402  12.053  1.00  0.00     0.068 A 
HETATM   15  C   UNL     1      42.844  -6.995  10.723  1.00  0.00     0.037 A 
HETATM   16  C   UNL     1      43.211  -7.870   9.692  1.00  0.00     0.016 A 
BRANCH  14  17
HETATM   17  O   UNL     1      42.614  -6.643  13.147  1.00  0.00    -0.356 OA
HETATM   18  C   UNL     1      42.641  -7.297  14.410  1.00  0.00     0.210 C 
ENDBRANCH  14  17
ENDBRANCH   9  11
ENDBRANCH   2   5
BRANCH   1  19
HETATM   19  N   UNL     1      42.929 -13.957   4.784  1.00  0.00    -0.267 N 
HETATM   20  C   UNL     1      42.204 -15.113   4.967  1.00  0.00     0.236 C 
HETATM   21  O   UNL     1      41.661 -15.379   6.042  1.00  0.00    -0.272 OA
HETATM   22  H   UNL     1      43.519 -13.776   3.976  1.00  0.00     0.190 HD
BRANCH  20  23
HETATM   23  C   UNL     1      42.019 -15.980   3.739  1.00  0.00     0.113 C 
BRANCH  23  24
HETATM   24  C   UNL     1      43.319 -16.494   3.100  1.00  0.00     0.023 C 
HETATM   25  C   UNL     1      43.371 -16.093   1.620  1.00  0.00     0.015 C 
BRANCH  24  26
HETATM   26  C   UNL     1      43.515 -17.993   3.244  1.00  0.00    -0.054 A 
HETATM   27  C   UNL     1      44.051 -18.560   4.411  1.00  0.00     0.007 A 
HETATM   28  C   UNL     1      44.225 -19.942   4.517  1.00  0.00     0.001 A 
HETATM   29  C   UNL     1      43.862 -20.775   3.461  1.00  0.00     0.000 A 
HETATM   30  C   UNL     1      43.324 -20.228   2.300  1.00  0.00     0.001 A 
HETATM   31  C   UNL     1      43.150 -18.846   2.191  1.00  0.00     0.007 A 
ENDBRANCH  24  26
ENDBRANCH  23  24
ENDBRANCH  20  23
ENDBRANCH   1  19
TORSDOF 7
ENDMDL
MODEL 4
REMARK VINA RESULT:      -8.0      2.410     10.809
REMARK  7 active torsions:
REMARK  status: ('A' for Active; 'I' for Inactive)
REMARK    1  A    between atoms: C_2  and  C_3 
REMARK    2  A    between atoms: C_2  and  C_9 
REMARK    3  A    between atoms: C_9  and  C_10 
REMARK       I    between atoms: C_10  and  N_11 
REMARK    4  A    between atoms: N_11  and  N_12 
REMARK       I    between atoms: N_12  and  C_13 
REMARK    5  A    between atoms: C_13  and  C_14 
REMARK    6  A    between atoms: C_18  and  C_19 
REMARK    7  A    between atoms: C_22  and  O_23 
ROOT
HETATM    1  N   UNL     1      43.590 -12.851   7.361  1.00  0.00    -0.262 N 
HETATM    2  C   UNL     1      44.377 -11.732   7.521  1.00  0.00     0.288 C 
HETATM    3  O   UNL     1      45.486 -11.634   7.000  1.00  0.00    -0.264 OA
HETATM    4  H   UNL     1      42.687 -12.980   7.811  1.00  0.00     0.190 HD
ENDROOT
BRANCH   2   5
HETATM    5  C   UNL     1      43.798 -10.694   8.329  1.00  0.00     0.121 A 
HETATM    6  N   UNL     1      43.290  -9.546   7.790  1.00  0.00    -0.272 N 
HETATM    7  H   UNL     1      43.268  -9.290   6.807  1.00  0.00     0.189 HD
HETATM    8  N   UNL     1      42.751  -8.707   8.689  1.00  0.00    -0.174 NA
HETATM    9  C   UNL     1      42.940  -9.311   9.873  1.00  0.00     0.089 A 
HETATM   10  C   UNL     1      43.595 -10.560   9.688  1.00  0.00     0.071 A 
BRANCH   9  11
HETATM   11  C   UNL     1      42.485  -8.720  11.133  1.00  0.00    -0.005 A 
HETATM   12  C   UNL     1      43.356  -8.603  12.223  1.00  0.00     0.016 A 
HETATM   13  C   UNL     1      42.930  -8.000  13.412  1.00  0.00     0.037 A 
HETATM   14  C   UNL     1      41.630  -7.506  13.536  1.00  0.00     0.068 A 
HETATM   15  C   UNL     1      40.750  -7.638  12.464  1.00  0.00     0.037 A 
HETATM   16  C   UNL     1      41.174  -8.240  11.271  1.00  0.00     0.016 A 
BRANCH  14  17
HETATM   17  O   UNL     1      41.346  -6.929  14.743  1.00  0.00    -0.356 OA
HETATM   18  C   UNL     1      42.445  -6.692  15.614  1.00  0.00     0.210 C 
ENDBRANCH  14  17
ENDBRANCH   9  11
ENDBRANCH   2   5
BRANCH   1  19
HETATM   19  N   UNL     1      44.054 -13.927   6.599  1.00  0.00    -0.267 N 
HETATM   20  C   UNL     1      43.675 -15.188   7.001  1.00  0.00     0.236 C 
HETATM   21  O   UNL     1      42.845 -15.366   7.896  1.00  0.00    -0.272 OA
HETATM   22  H   UNL     1      44.841 -13.738   5.984  1.00  0.00     0.190 HD
BRANCH  20  23
HETATM   23  C   UNL     1      44.250 -16.339   6.201  1.00  0.00     0.113 C 
BRANCH  23  24
HETATM   24  C   UNL     1      43.212 -17.307   5.609  1.00  0.00     0.023 C 
HETATM   25  C   UNL     1      43.856 -18.674   5.352  1.00  0.00     0.015 C 
BRANCH  24  26
HETATM   26  C   UNL     1      42.553 -16.790   4.342  1.00  0.00    -0.054 A 
HETATM   27  C   UNL     1      41.250 -16.269   4.345  1.00  0.00     0.007 A 
HETATM   28  C   UNL     1      40.666 -15.804   3.164  1.00  0.00     0.001 A 
HETATM   29  C   UNL     1      41.378 -15.848   1.968  1.00  0.00     0.000 A 
HETATM   30  C   UNL     1      42.674 -16.356   1.950  1.00  0.00     0.001 A 
HETATM   31  C   UNL     1      43.259 -16.823   3.129  1.00  0.00     0.007 A 
ENDBRANCH  24  26
ENDBRANCH  23  24
ENDBRANCH  20  23
ENDBRANCH   1  19
TORSDOF 7
ENDMDL
MODEL 5
REMARK VINA RESULT:      -7.8      7.012     11.347
REMARK  7 active torsions:
REMARK  status: ('A' for Active; 'I' for Inactive)
REMARK    1  A    between atoms: C_2  and  C_3 
REMARK    2  A    between atoms: C_2  and  C_9 
REMARK    3  A    between atoms: C_9  and  C_10 
REMARK       I    between atoms: C_10  and  N_11 
REMARK    4  A    between atoms: N_11  and  N_12 
REMARK       I    between atoms: N_12  and  C_13 
REMARK    5  A    between atoms: C_13  and  C_14 
REMARK    6  A    between atoms: C_18  and  C_19 
REMARK    7  A    between atoms: C_22  and  O_23 
ROOT
HETATM    1  N   UNL     1      41.667 -14.054   0.434  1.00  0.00    -0.262 N 
HETATM    2  C   UNL     1      40.381 -14.319   0.017  1.00  0.00     0.288 C 
HETATM    3  O   UNL     1      39.779 -15.334   0.362  1.00  0.00    -0.264 OA
HETATM    4  H   UNL     1      42.207 -13.246   0.135  1.00  0.00     0.190 HD
ENDROOT
BRANCH   2   5
HETATM    5  C   UNL     1      39.802 -13.318  -0.837  1.00  0.00     0.121 A 
HETATM    6  N   UNL     1      38.454 -13.120  -0.918  1.00  0.00    -0.272 N 
HETATM    7  H   UNL     1      37.729 -13.633  -0.423  1.00  0.00     0.189 HD
HETATM    8  N   UNL     1      38.093 -12.115  -1.732  1.00  0.00    -0.174 NA
HETATM    9  C   UNL     1      39.249 -11.652  -2.233  1.00  0.00     0.089 A 
HETATM   10  C   UNL     1      40.345 -12.383  -1.695  1.00  0.00     0.071 A 
BRANCH   9  11
HETATM   11  C   UNL     1      39.300 -10.532  -3.174  1.00  0.00    -0.005 A 
HETATM   12  C   UNL     1      40.528 -10.004  -3.591  1.00  0.00     0.016 A 
HETATM   13  C   UNL     1      40.575  -8.961  -4.523  1.00  0.00     0.037 A 
HETATM   14  C   UNL     1      39.399  -8.425  -5.053  1.00  0.00     0.068 A 
HETATM   15  C   UNL     1      38.172  -8.929  -4.627  1.00  0.00     0.037 A 
HETATM   16  C   UNL     1      38.123  -9.975  -3.696  1.00  0.00     0.016 A 
BRANCH  14  17
HETATM   17  O   UNL     1      39.584  -7.421  -5.962  1.00  0.00    -0.356 OA
HETATM   18  C   UNL     1      40.315  -7.747  -7.138  1.00  0.00     0.210 C 
ENDBRANCH  14  17
ENDBRANCH   9  11
ENDBRANCH   2   5
BRANCH   1  19
HETATM   19  N   UNL     1      42.332 -14.962   1.263  1.00  0.00    -0.267 N 
HETATM   20  C   UNL     1      42.636 -14.539   2.538  1.00  0.00     0.236 C 
HETATM   21  O   UNL     1      42.216 -13.471   2.988  1.00  0.00    -0.272 OA
HETATM   22  H   UNL     1      42.781 -15.749   0.802  1.00  0.00     0.190 HD
BRANCH  20  23
HETATM   23  C   UNL     1      43.420 -15.516   3.391  1.00  0.00     0.113 C 
BRANCH  23  24
HETATM   24  C   UNL     1      42.588 -16.644   4.024  1.00  0.00     0.023 C 
HETATM   25  C   UNL     1      42.572 -16.490   5.549  1.00  0.00     0.015 C 
BRANCH  24  26
HETATM   26  C   UNL     1      43.061 -18.035   3.641  1.00  0.00    -0.054 A 
HETATM   27  C   UNL     1      42.837 -18.567   2.361  1.00  0.00     0.007 A 
HETATM   28  C   UNL     1      43.279 -19.851   2.037  1.00  0.00     0.001 A 
HETATM   29  C   UNL     1      43.954 -20.618   2.983  1.00  0.00     0.000 A 
HETATM   30  C   UNL     1      44.190 -20.102   4.254  1.00  0.00     0.001 A 
HETATM   31  C   UNL     1      43.748 -18.819   4.582  1.00  0.00     0.007 A 
ENDBRANCH  24  26
ENDBRANCH  23  24
ENDBRANCH  20  23
ENDBRANCH   1  19
TORSDOF 7
ENDMDL
MODEL 6
REMARK VINA RESULT:      -7.8      6.441     10.681
REMARK  7 active torsions:
REMARK  status: ('A' for Active; 'I' for Inactive)
REMARK    1  A    between atoms: C_2  and  C_3 
REMARK    2  A    between atoms: C_2  and  C_9 
REMARK    3  A    between atoms: C_9  and  C_10 
REMARK       I    between atoms: C_10  and  N_11 
REMARK    4  A    between atoms: N_11  and  N_12 
REMARK       I    between atoms: N_12  and  C_13 
REMARK    5  A    between atoms: C_13  and  C_14 
REMARK    6  A    between atoms: C_18  and  C_19 
REMARK    7  A    between atoms: C_22  and  O_23 
ROOT
HETATM    1  N   UNL     1      41.387 -13.903   0.300  1.00  0.00    -0.262 N 
HETATM    2  C   UNL     1      40.460 -13.561  -0.659  1.00  0.00     0.288 C 
HETATM    3  O   UNL     1      39.494 -14.277  -0.918  1.00  0.00    -0.264 OA
HETATM    4  H   UNL     1      42.218 -13.354   0.509  1.00  0.00     0.190 HD
ENDROOT
BRANCH   2   5
HETATM    5  C   UNL     1      40.703 -12.308  -1.319  1.00  0.00     0.121 A 
HETATM    6  N   UNL     1      40.306 -12.070  -2.604  1.00  0.00    -0.272 N 
HETATM    7  H   UNL     1      39.827 -12.715  -3.225  1.00  0.00     0.189 HD
HETATM    8  N   UNL     1      40.578 -10.831  -3.044  1.00  0.00    -0.174 NA
HETATM    9  C   UNL     1      41.209 -10.237  -2.018  1.00  0.00     0.089 A 
HETATM   10  C   UNL     1      41.307 -11.133  -0.917  1.00  0.00     0.071 A 
BRANCH   9  11
HETATM   11  C   UNL     1      41.677  -8.852  -2.085  1.00  0.00    -0.005 A 
HETATM   12  C   UNL     1      42.536  -8.339  -1.106  1.00  0.00     0.016 A 
HETATM   13  C   UNL     1      43.015  -7.027  -1.195  1.00  0.00     0.037 A 
HETATM   14  C   UNL     1      42.644  -6.204  -2.260  1.00  0.00     0.068 A 
HETATM   15  C   UNL     1      41.771  -6.698  -3.227  1.00  0.00     0.037 A 
HETATM   16  C   UNL     1      41.292  -8.012  -3.141  1.00  0.00     0.016 A 
BRANCH  14  17
HETATM   17  O   UNL     1      43.191  -4.951  -2.236  1.00  0.00    -0.356 OA
HETATM   18  C   UNL     1      44.123  -4.678  -1.196  1.00  0.00     0.210 C 
ENDBRANCH  14  17
ENDBRANCH   9  11
ENDBRANCH   2   5
BRANCH   1  19
HETATM   19  N   UNL     1      41.254 -15.105   1.002  1.00  0.00    -0.267 N 
HETATM   20  C   UNL     1      42.385 -15.604   1.608  1.00  0.00     0.236 C 
HETATM   21  O   UNL     1      43.435 -14.959   1.663  1.00  0.00    -0.272 OA
HETATM   22  H   UNL     1      40.426 -15.658   0.797  1.00  0.00     0.190 HD
BRANCH  20  23
HETATM   23  C   UNL     1      42.229 -16.943   2.301  1.00  0.00     0.113 C 
BRANCH  23  24
HETATM   24  C   UNL     1      43.425 -17.375   3.164  1.00  0.00     0.023 C 
HETATM   25  C   UNL     1      43.648 -18.887   3.032  1.00  0.00     0.015 C 
BRANCH  24  26
HETATM   26  C   UNL     1      43.290 -16.990   4.627  1.00  0.00    -0.054 A 
HETATM   27  C   UNL     1      42.052 -16.641   5.188  1.00  0.00     0.007 A 
HETATM   28  C   UNL     1      41.956 -16.286   6.535  1.00  0.00     0.001 A 
HETATM   29  C   UNL     1      43.093 -16.280   7.340  1.00  0.00     0.000 A 
HETATM   30  C   UNL     1      44.327 -16.629   6.798  1.00  0.00     0.001 A 
HETATM   31  C   UNL     1      44.426 -16.983   5.451  1.00  0.00     0.007 A 
ENDBRANCH  24  26
ENDBRANCH  23  24
ENDBRANCH  20  23
ENDBRANCH   1  19
TORSDOF 7
ENDMDL
MODEL 7
REMARK VINA RESULT:      -7.7      6.976     10.806
REMARK  7 active torsions:
REMARK  status: ('A' for Active; 'I' for Inactive)
REMARK    1  A    between atoms: C_2  and  C_3 
REMARK    2  A    between atoms: C_2  and  C_9 
REMARK    3  A    between atoms: C_9  and  C_10 
REMARK       I    between atoms: C_10  and  N_11 
REMARK    4  A    between atoms: N_11  and  N_12 
REMARK       I    between atoms: N_12  and  C_13 
REMARK    5  A    between atoms: C_13  and  C_14 
REMARK    6  A    between atoms: C_18  and  C_19 
REMARK    7  A    between atoms: C_22  and  O_23 
ROOT
HETATM    1  N   UNL     1      41.664 -13.469   0.605  1.00  0.00    -0.262 N 
HETATM    2  C   UNL     1      40.691 -12.894  -0.182  1.00  0.00     0.288 C 
HETATM    3  O   UNL     1      39.658 -13.491  -0.482  1.00  0.00    -0.264 OA
HETATM    4  H   UNL     1      42.546 -13.018   0.838  1.00  0.00     0.190 HD
ENDROOT
BRANCH   2   5
HETATM    5  C   UNL     1      40.971 -11.552  -0.611  1.00  0.00     0.121 A 
HETATM    6  N   UNL     1      41.009 -10.500   0.259  1.00  0.00    -0.272 N 
HETATM    7  H   UNL     1      40.841 -10.529   1.261  1.00  0.00     0.189 HD
HETATM    8  N   UNL     1      41.327  -9.326  -0.309  1.00  0.00    -0.174 NA
HETATM    9  C   UNL     1      41.474  -9.609  -1.613  1.00  0.00     0.089 A 
HETATM   10  C   UNL     1      41.258 -10.996  -1.842  1.00  0.00     0.071 A 
BRANCH   9  11
HETATM   11  C   UNL     1      41.835  -8.588  -2.598  1.00  0.00    -0.005 A 
HETATM   12  C   UNL     1      41.196  -8.539  -3.843  1.00  0.00     0.016 A 
HETATM   13  C   UNL     1      41.512  -7.536  -4.767  1.00  0.00     0.037 A 
HETATM   14  C   UNL     1      42.473  -6.568  -4.466  1.00  0.00     0.068 A 
HETATM   15  C   UNL     1      43.130  -6.622  -3.239  1.00  0.00     0.037 A 
HETATM   16  C   UNL     1      42.812  -7.624  -2.311  1.00  0.00     0.016 A 
BRANCH  14  17
HETATM   17  O   UNL     1      42.679  -5.638  -5.448  1.00  0.00    -0.356 OA
HETATM   18  C   UNL     1      43.448  -6.051  -6.571  1.00  0.00     0.210 C 
ENDBRANCH  14  17
ENDBRANCH   9  11
ENDBRANCH   2   5
BRANCH   1  19
HETATM   19  N   UNL     1      41.501 -14.775   1.075  1.00  0.00    -0.267 N 
HETATM   20  C   UNL     1      42.607 -15.385   1.624  1.00  0.00     0.236 C 
HETATM   21  O   UNL     1      43.654 -14.770   1.834  1.00  0.00    -0.272 OA
HETATM   22  H   UNL     1      40.680 -15.275   0.743  1.00  0.00     0.190 HD
BRANCH  20  23
HETATM   23  C   UNL     1      42.420 -16.825   2.060  1.00  0.00     0.113 C 
BRANCH  23  24
HETATM   24  C   UNL     1      43.520 -17.376   2.982  1.00  0.00     0.023 C 
HETATM   25  C   UNL     1      43.633 -18.896   2.812  1.00  0.00     0.015 C 
BRANCH  24  26
HETATM   26  C   UNL     1      43.319 -17.024   4.445  1.00  0.00    -0.054 A 
HETATM   27  C   UNL     1      44.384 -17.023   5.359  1.00  0.00     0.007 A 
HETATM   28  C   UNL     1      44.171 -16.699   6.700  1.00  0.00     0.001 A 
HETATM   29  C   UNL     1      42.894 -16.367   7.145  1.00  0.00     0.000 A 
HETATM   30  C   UNL     1      41.828 -16.358   6.249  1.00  0.00     0.001 A 
HETATM   31  C   UNL     1      42.038 -16.683   4.908  1.00  0.00     0.007 A 
ENDBRANCH  24  26
ENDBRANCH  23  24
ENDBRANCH  20  23
ENDBRANCH   1  19
TORSDOF 7
ENDMDL
MODEL 8
REMARK VINA RESULT:      -7.7      3.856     11.208
REMARK  7 active torsions:
REMARK  status: ('A' for Active; 'I' for Inactive)
REMARK    1  A    between atoms: C_2  and  C_3 
REMARK    2  A    between atoms: C_2  and  C_9 
REMARK    3  A    between atoms: C_9  and  C_10 
REMARK       I    between atoms: C_10  and  N_11 
REMARK    4  A    between atoms: N_11  and  N_12 
REMARK       I    between atoms: N_12  and  C_13 
REMARK    5  A    between atoms: C_13  and  C_14 
REMARK    6  A    between atoms: C_18  and  C_19 
REMARK    7  A    between atoms: C_22  and  O_23 
ROOT
HETATM    1  N   UNL     1      40.045 -12.955   4.475  1.00  0.00    -0.262 N 
HETATM    2  C   UNL     1      39.708 -12.708   5.787  1.00  0.00     0.288 C 
HETATM    3  O   UNL     1      39.553 -13.615   6.603  1.00  0.00    -0.264 OA
HETATM    4  H   UNL     1      40.140 -12.232   3.766  1.00  0.00     0.190 HD
ENDROOT
BRANCH   2   5
HETATM    5  C   UNL     1      39.563 -11.319   6.126  1.00  0.00     0.121 A 
HETATM    6  N   UNL     1      38.494 -10.575   5.717  1.00  0.00    -0.272 N 
HETATM    7  H   UNL     1      37.715 -10.888   5.144  1.00  0.00     0.189 HD
HETATM    8  N   UNL     1      38.501  -9.308   6.161  1.00  0.00    -0.174 NA
HETATM    9  C   UNL     1      39.639  -9.203   6.866  1.00  0.00     0.089 A 
HETATM   10  C   UNL     1      40.333 -10.444   6.866  1.00  0.00     0.071 A 
BRANCH   9  11
HETATM   11  C   UNL     1      40.031  -7.961   7.535  1.00  0.00    -0.005 A 
HETATM   12  C   UNL     1      39.109  -7.245   8.309  1.00  0.00     0.016 A 
HETATM   13  C   UNL     1      39.497  -6.080   8.982  1.00  0.00     0.037 A 
HETATM   14  C   UNL     1      40.809  -5.609   8.892  1.00  0.00     0.068 A 
HETATM   15  C   UNL     1      41.727  -6.303   8.107  1.00  0.00     0.037 A 
HETATM   16  C   UNL     1      41.341  -7.471   7.435  1.00  0.00     0.016 A 
BRANCH  14  17
HETATM   17  O   UNL     1      41.061  -4.471   9.607  1.00  0.00    -0.356 OA
HETATM   18  C   UNL     1      42.319  -4.393  10.266  1.00  0.00     0.210 C 
ENDBRANCH  14  17
ENDBRANCH   9  11
ENDBRANCH   2   5
BRANCH   1  19
HETATM   19  N   UNL     1      40.206 -14.271   4.032  1.00  0.00    -0.267 N 
HETATM   20  C   UNL     1      41.492 -14.758   3.970  1.00  0.00     0.236 C 
HETATM   21  O   UNL     1      42.451 -14.127   4.422  1.00  0.00    -0.272 OA
HETATM   22  H   UNL     1      39.418 -14.680   3.536  1.00  0.00     0.190 HD
BRANCH  20  23
HETATM   23  C   UNL     1      41.644 -16.162   3.420  1.00  0.00     0.113 C 
BRANCH  23  24
HETATM   24  C   UNL     1      43.073 -16.553   3.013  1.00  0.00     0.023 C 
HETATM   25  C   UNL     1      43.355 -16.093   1.577  1.00  0.00     0.015 C 
BRANCH  24  26
HETATM   26  C   UNL     1      43.359 -18.038   3.154  1.00  0.00    -0.054 A 
HETATM   27  C   UNL     1      43.076 -18.948   2.123  1.00  0.00     0.007 A 
HETATM   28  C   UNL     1      43.345 -20.309   2.281  1.00  0.00     0.001 A 
HETATM   29  C   UNL     1      43.904 -20.778   3.467  1.00  0.00     0.000 A 
HETATM   30  C   UNL     1      44.196 -19.888   4.497  1.00  0.00     0.001 A 
HETATM   31  C   UNL     1      43.926 -18.526   4.342  1.00  0.00     0.007 A 
ENDBRANCH  24  26
ENDBRANCH  23  24
ENDBRANCH  20  23
ENDBRANCH   1  19
TORSDOF 7
ENDMDL
MODEL 9
REMARK VINA RESULT:      -7.7      7.777     11.805
REMARK  7 active torsions:
REMARK  status: ('A' for Active; 'I' for Inactive)
REMARK    1  A    between atoms: C_2  and  C_3 
REMARK    2  A    between atoms: C_2  and  C_9 
REMARK    3  A    between atoms: C_9  and  C_10 
REMARK       I    between atoms: C_10  and  N_11 
REMARK    4  A    between atoms: N_11  and  N_12 
REMARK       I    between atoms: N_12  and  C_13 
REMARK    5  A    between atoms: C_13  and  C_14 
REMARK    6  A    between atoms: C_18  and  C_19 
REMARK    7  A    between atoms: C_22  and  O_23 
ROOT
HETATM    1  N   UNL     1      39.417 -13.558   1.040  1.00  0.00    -0.262 N 
HETATM    2  C   UNL     1      40.056 -12.787   0.094  1.00  0.00     0.288 C 
HETATM    3  O   UNL     1      41.258 -12.535   0.161  1.00  0.00    -0.264 OA
HETATM    4  H   UNL     1      38.418 -13.750   1.036  1.00  0.00     0.190 HD
ENDROOT
BRANCH   2   5
HETATM    5  C   UNL     1      39.216 -12.314  -0.972  1.00  0.00     0.121 A 
HETATM    6  N   UNL     1      39.718 -11.936  -2.184  1.00  0.00    -0.272 N 
HETATM    7  H   UNL     1      40.694 -11.930  -2.466  1.00  0.00     0.189 HD
HETATM    8  N   UNL     1      38.785 -11.563  -3.074  1.00  0.00    -0.174 NA
HETATM    9  C   UNL     1      37.623 -11.668  -2.412  1.00  0.00     0.089 A 
HETATM   10  C   UNL     1      37.852 -12.136  -1.089  1.00  0.00     0.071 A 
BRANCH   9  11
HETATM   11  C   UNL     1      36.336 -11.355  -3.037  1.00  0.00    -0.005 A 
HETATM   12  C   UNL     1      35.480 -12.378  -3.464  1.00  0.00     0.016 A 
HETATM   13  C   UNL     1      34.234 -12.076  -4.023  1.00  0.00     0.037 A 
HETATM   14  C   UNL     1      33.820 -10.751  -4.169  1.00  0.00     0.068 A 
HETATM   15  C   UNL     1      34.674  -9.725  -3.769  1.00  0.00     0.037 A 
HETATM   16  C   UNL     1      35.923 -10.025  -3.206  1.00  0.00     0.016 A 
BRANCH  14  17
HETATM   17  O   UNL     1      32.577 -10.593  -4.717  1.00  0.00    -0.356 OA
HETATM   18  C   UNL     1      31.574 -10.031  -3.879  1.00  0.00     0.210 C 
ENDBRANCH  14  17
ENDBRANCH   9  11
ENDBRANCH   2   5
BRANCH   1  19
HETATM   19  N   UNL     1      40.135 -14.067   2.126  1.00  0.00    -0.267 N 
HETATM   20  C   UNL     1      40.347 -15.427   2.154  1.00  0.00     0.236 C 
HETATM   21  O   UNL     1      40.055 -16.152   1.201  1.00  0.00    -0.272 OA
HETATM   22  H   UNL     1      40.212 -13.461   2.940  1.00  0.00     0.190 HD
BRANCH  20  23
HETATM   23  C   UNL     1      41.065 -15.960   3.377  1.00  0.00     0.113 C 
BRANCH  23  24
HETATM   24  C   UNL     1      42.587 -16.114   3.226  1.00  0.00     0.023 C 
HETATM   25  C   UNL     1      43.059 -15.426   1.940  1.00  0.00     0.015 C 
BRANCH  24  26
HETATM   26  C   UNL     1      43.057 -17.558   3.253  1.00  0.00    -0.054 A 
HETATM   27  C   UNL     1      43.719 -18.100   4.365  1.00  0.00     0.007 A 
HETATM   28  C   UNL     1      44.145 -19.430   4.361  1.00  0.00     0.001 A 
HETATM   29  C   UNL     1      43.910 -20.236   3.250  1.00  0.00     0.000 A 
HETATM   30  C   UNL     1      43.250 -19.714   2.141  1.00  0.00     0.001 A 
HETATM   31  C   UNL     1      42.825 -18.384   2.142  1.00  0.00     0.007 A 
ENDBRANCH  24  26
ENDBRANCH  23  24
ENDBRANCH  20  23
ENDBRANCH   1  19
TORSDOF 7
ENDMDL
MODEL 10
REMARK VINA RESULT:      -7.7      1.830      2.495
REMARK  7 active torsions:
REMARK  status: ('A' for Active; 'I' for Inactive)
REMARK    1  A    between atoms: C_2  and  C_3 
REMARK    2  A    between atoms: C_2  and  C_9 
REMARK    3  A    between atoms: C_9  and  C_10 
REMARK       I    between atoms: C_10  and  N_11 
REMARK    4  A    between atoms: N_11  and  N_12 
REMARK       I    between atoms: N_12  and  C_13 
REMARK    5  A    between atoms: C_13  and  C_14 
REMARK    6  A    between atoms: C_18  and  C_19 
REMARK    7  A    between atoms: C_22  and  O_23 
ROOT
HETATM    1  N   UNL     1      41.462 -11.153   6.639  1.00  0.00    -0.262 N 
HETATM    2  C   UNL     1      42.697 -11.669   6.311  1.00  0.00     0.288 C 
HETATM    3  O   UNL     1      43.743 -11.158   6.707  1.00  0.00    -0.264 OA
HETATM    4  H   UNL     1      40.581 -11.527   6.295  1.00  0.00     0.190 HD
ENDROOT
BRANCH   2   5
HETATM    5  C   UNL     1      42.664 -12.845   5.487  1.00  0.00     0.121 A 
HETATM    6  N   UNL     1      42.084 -12.855   4.251  1.00  0.00    -0.272 N 
HETATM    7  H   UNL     1      41.617 -12.080   3.789  1.00  0.00     0.189 HD
HETATM    8  N   UNL     1      42.184 -14.027   3.605  1.00  0.00    -0.174 NA
HETATM    9  C   UNL     1      42.830 -14.834   4.462  1.00  0.00     0.089 A 
HETATM   10  C   UNL     1      43.147 -14.128   5.656  1.00  0.00     0.071 A 
BRANCH   9  11
HETATM   11  C   UNL     1      43.151 -16.224   4.136  1.00  0.00    -0.005 A 
HETATM   12  C   UNL     1      42.666 -16.813   2.961  1.00  0.00     0.016 A 
HETATM   13  C   UNL     1      43.009 -18.129   2.631  1.00  0.00     0.037 A 
HETATM   14  C   UNL     1      43.838 -18.880   3.466  1.00  0.00     0.068 A 
HETATM   15  C   UNL     1      44.307 -18.311   4.647  1.00  0.00     0.037 A 
HETATM   16  C   UNL     1      43.967 -16.992   4.979  1.00  0.00     0.016 A 
BRANCH  14  17
HETATM   17  O   UNL     1      44.107 -20.146   3.022  1.00  0.00    -0.356 OA
HETATM   18  C   UNL     1      43.609 -20.493   1.735  1.00  0.00     0.210 C 
ENDBRANCH  14  17
ENDBRANCH   9  11
ENDBRANCH   2   5
BRANCH   1  19
HETATM   19  N   UNL     1      41.373 -10.006   7.432  1.00  0.00    -0.267 N 
HETATM   20  C   UNL     1      40.120  -9.645   7.873  1.00  0.00     0.236 C 
HETATM   21  O   UNL     1      39.137 -10.371   7.708  1.00  0.00    -0.272 OA
HETATM   22  H   UNL     1      42.171  -9.376   7.406  1.00  0.00     0.190 HD
BRANCH  20  23
HETATM   23  C   UNL     1      40.043  -8.359   8.671  1.00  0.00     0.113 C 
BRANCH  23  24
HETATM   24  C   UNL     1      39.771  -8.537  10.173  1.00  0.00     0.023 C 
HETATM   25  C   UNL     1      38.693  -7.547  10.632  1.00  0.00     0.015 C 
BRANCH  24  26
HETATM   26  C   UNL     1      41.013  -8.398  11.035  1.00  0.00    -0.054 A 
HETATM   27  C   UNL     1      41.171  -7.337  11.940  1.00  0.00     0.007 A 
HETATM   28  C   UNL     1      42.325  -7.231  12.719  1.00  0.00     0.001 A 
HETATM   29  C   UNL     1      43.334  -8.184  12.606  1.00  0.00     0.000 A 
HETATM   30  C   UNL     1      43.190  -9.245  11.717  1.00  0.00     0.001 A 
HETATM   31  C   UNL     1      42.037  -9.353  10.937  1.00  0.00     0.007 A 
ENDBRANCH  24  26
ENDBRANCH  23  24
ENDBRANCH  20  23
ENDBRANCH   1  19
TORSDOF 7
ENDMDL
