MODEL 1
REMARK VINA RESULT:      -9.3      0.000      0.000
REMARK  3 active torsions:
REMARK  status: ('A' for Active; 'I' for Inactive)
REMARK    1  A    between atoms: O_2  and  C_3 
REMARK    2  A    between atoms: C_4  and  N_5 
REMARK       I    between atoms: N_5  and  C_6 
REMARK       I    between atoms: C_6  and  N_7 
REMARK    3  A    between atoms: C_10  and  C_11 
ROOT
HETATM    1  N   UNL     1      38.934 -12.826   0.472  1.00  0.00    -0.306 N 
HETATM    2  C   UNL     1      40.308 -12.775   0.539  1.00  0.00     0.323 C 
HETATM    3  N   UNL     1      40.869 -13.711   1.419  1.00  0.00    -0.330 N 
HETATM    4  C   UNL     1      42.303 -13.549   1.599  1.00  0.00     0.155 C 
HETATM    5  C   UNL     1      42.915 -14.604   2.461  1.00  0.00     0.001 C 
HETATM    6  C   UNL     1      42.303 -15.715   2.912  1.00  0.00    -0.046 C 
HETATM    7  C   UNL     1      40.848 -15.928   2.583  1.00  0.00     0.059 C 
HETATM    8  C   UNL     1      40.374 -15.087   1.393  1.00  0.00     0.132 C 
HETATM    9  O   UNL     1      40.987 -11.962  -0.081  1.00  0.00    -0.247 OA
HETATM   10  H   UNL     1      38.477 -12.916   1.373  1.00  0.00     0.171 HD
ENDROOT
BRANCH   1  11
HETATM   11  C   UNL     1      38.182 -12.177  -0.531  1.00  0.00     0.071 A 
HETATM   12  C   UNL     1      37.966 -12.829  -1.752  1.00  0.00     0.095 A 
HETATM   13  C   UNL     1      37.293 -12.186  -2.794  1.00  0.00     0.041 A 
HETATM   14  C   UNL     1      36.813 -10.889  -2.608  1.00  0.00     0.026 A 
HETATM   15  C   UNL     1      37.010 -10.245  -1.386  1.00  0.00     0.036 A 
HETATM   16  C   UNL     1      37.690 -10.882  -0.347  1.00  0.00     0.056 A 
HETATM   17 CL   UNL     1      36.433  -8.637  -1.170  1.00  0.00    -0.084 Cl
BRANCH  12  18
HETATM   18  O   UNL     1      38.424 -14.115  -1.902  1.00  0.00    -0.354 OA
HETATM   19  C   UNL     1      38.467 -14.469  -3.288  1.00  0.00     0.210 C 
ENDBRANCH  12  18
ENDBRANCH   1  11
BRANCH   6  20
HETATM   20  C   UNL     1      42.981 -16.768   3.631  1.00  0.00    -0.002 A 
HETATM   21  C   UNL     1      43.215 -18.148   3.283  1.00  0.00     0.003 A 
HETATM   22  C   UNL     1      43.980 -18.710   4.311  1.00  0.00     0.043 A 
HETATM   23  C   UNL     1      42.868 -18.994   2.203  1.00  0.00     0.014 A 
HETATM   24  C   UNL     1      44.426 -20.037   4.305  1.00  0.00     0.030 A 
HETATM   25  N   UNL     1      44.180 -17.732   5.254  1.00  0.00    -0.364 N 
HETATM   26  C   UNL     1      44.083 -20.835   3.214  1.00  0.00     0.002 A 
HETATM   27  C   UNL     1      43.311 -20.324   2.177  1.00  0.00     0.001 A 
HETATM   28  H   UNL     1      44.700 -17.860   6.111  1.00  0.00     0.165 HD
HETATM   29  C   UNL     1      43.595 -16.565   4.854  1.00  0.00     0.101 A 
ENDBRANCH   6  20
TORSDOF 3
ENDMDL
MODEL 2
REMARK VINA RESULT:      -8.9      1.999      2.982
REMARK  3 active torsions:
REMARK  status: ('A' for Active; 'I' for Inactive)
REMARK    1  A    between atoms: O_2  and  C_3 
REMARK    2  A    between atoms: C_4  and  N_5 
REMARK       I    between atoms: N_5  and  C_6 
REMARK       I    between atoms: C_6  and  N_7 
REMARK    3  A    between atoms: C_10  and  C_11 
ROOT
HETATM    1  N   UNL     1      41.301 -12.322  -0.587  1.00  0.00    -0.306 N 
HETATM    2  C   UNL     1      40.476 -13.094   0.197  1.00  0.00     0.323 C 
HETATM    3  N   UNL     1      41.138 -14.132   0.869  1.00  0.00    -0.330 N 
HETATM    4  C   UNL     1      40.239 -15.032   1.572  1.00  0.00     0.155 C 
HETATM    5  C   UNL     1      40.950 -16.080   2.365  1.00  0.00     0.001 C 
HETATM    6  C   UNL     1      42.276 -16.138   2.596  1.00  0.00    -0.046 C 
HETATM    7  C   UNL     1      43.169 -15.098   1.970  1.00  0.00     0.059 C 
HETATM    8  C   UNL     1      42.409 -13.841   1.533  1.00  0.00     0.132 C 
HETATM    9  O   UNL     1      39.263 -12.925   0.278  1.00  0.00    -0.247 OA
HETATM   10  H   UNL     1      41.967 -12.852  -1.138  1.00  0.00     0.171 HD
ENDROOT
BRANCH   1  11
HETATM   11  C   UNL     1      40.912 -11.079  -1.132  1.00  0.00     0.071 A 
HETATM   12  C   UNL     1      41.240  -9.901  -0.447  1.00  0.00     0.095 A 
HETATM   13  C   UNL     1      40.804  -8.659  -0.916  1.00  0.00     0.041 A 
HETATM   14  C   UNL     1      40.054  -8.591  -2.091  1.00  0.00     0.026 A 
HETATM   15  C   UNL     1      39.743  -9.761  -2.784  1.00  0.00     0.036 A 
HETATM   16  C   UNL     1      40.169 -11.002  -2.313  1.00  0.00     0.056 A 
HETATM   17 CL   UNL     1      38.799  -9.671  -4.222  1.00  0.00    -0.084 Cl
BRANCH  12  18
HETATM   18  O   UNL     1      42.002  -9.991   0.692  1.00  0.00    -0.354 OA
HETATM   19  C   UNL     1      41.181  -9.834   1.853  1.00  0.00     0.210 C 
ENDBRANCH  12  18
ENDBRANCH   1  11
BRANCH   6  20
HETATM   20  C   UNL     1      42.894 -17.097   3.482  1.00  0.00    -0.002 A 
HETATM   21  C   UNL     1      43.263 -18.474   3.270  1.00  0.00     0.003 A 
HETATM   22  C   UNL     1      43.888 -18.920   4.441  1.00  0.00     0.043 A 
HETATM   23  C   UNL     1      43.146 -19.404   2.210  1.00  0.00     0.014 A 
HETATM   24  C   UNL     1      44.409 -20.210   4.595  1.00  0.00     0.030 A 
HETATM   25  N   UNL     1      43.874 -17.877   5.334  1.00  0.00    -0.364 N 
HETATM   26  C   UNL     1      44.294 -21.093   3.521  1.00  0.00     0.002 A 
HETATM   27  C   UNL     1      43.668 -20.698   2.344  1.00  0.00     0.001 A 
HETATM   28  H   UNL     1      44.258 -17.918   6.268  1.00  0.00     0.165 HD
HETATM   29  C   UNL     1      43.291 -16.780   4.768  1.00  0.00     0.101 A 
ENDBRANCH   6  20
TORSDOF 3
ENDMDL
MODEL 3
REMARK VINA RESULT:      -8.8      2.166      2.495
REMARK  3 active torsions:
REMARK  status: ('A' for Active; 'I' for Inactive)
REMARK    1  A    between atoms: O_2  and  C_3 
REMARK    2  A    between atoms: C_4  and  N_5 
REMARK       I    between atoms: N_5  and  C_6 
REMARK       I    between atoms: C_6  and  N_7 
REMARK    3  A    between atoms: C_10  and  C_11 
ROOT
HETATM    1  N   UNL     1      41.468 -12.210  -0.537  1.00  0.00    -0.306 N 
HETATM    2  C   UNL     1      40.627 -12.952   0.261  1.00  0.00     0.323 C 
HETATM    3  N   UNL     1      41.263 -14.008   0.929  1.00  0.00    -0.330 N 
HETATM    4  C   UNL     1      40.344 -14.876   1.647  1.00  0.00     0.155 C 
HETATM    5  C   UNL     1      41.030 -15.944   2.435  1.00  0.00     0.001 C 
HETATM    6  C   UNL     1      42.356 -16.045   2.650  1.00  0.00    -0.046 C 
HETATM    7  C   UNL     1      43.275 -15.037   2.009  1.00  0.00     0.059 C 
HETATM    8  C   UNL     1      42.551 -13.757   1.575  1.00  0.00     0.132 C 
HETATM    9  O   UNL     1      39.421 -12.742   0.357  1.00  0.00    -0.247 OA
HETATM   10  H   UNL     1      42.108 -12.763  -1.094  1.00  0.00     0.171 HD
ENDROOT
BRANCH   1  11
HETATM   11  C   UNL     1      41.112 -10.957  -1.081  1.00  0.00     0.071 A 
HETATM   12  C   UNL     1      40.622 -10.897  -2.393  1.00  0.00     0.095 A 
HETATM   13  C   UNL     1      40.335  -9.667  -2.990  1.00  0.00     0.041 A 
HETATM   14  C   UNL     1      40.516  -8.489  -2.265  1.00  0.00     0.026 A 
HETATM   15  C   UNL     1      40.985  -8.548  -0.952  1.00  0.00     0.036 A 
HETATM   16  C   UNL     1      41.283  -9.774  -0.357  1.00  0.00     0.056 A 
HETATM   17 CL   UNL     1      41.227  -7.089  -0.070  1.00  0.00    -0.084 Cl
BRANCH  12  18
HETATM   18  O   UNL     1      40.426 -12.072  -3.078  1.00  0.00    -0.354 OA
HETATM   19  C   UNL     1      39.037 -12.414  -3.089  1.00  0.00     0.210 C 
ENDBRANCH  12  18
ENDBRANCH   1  11
BRANCH   6  20
HETATM   20  C   UNL     1      42.953 -17.020   3.531  1.00  0.00    -0.002 A 
HETATM   21  C   UNL     1      43.289 -18.405   3.315  1.00  0.00     0.003 A 
HETATM   22  C   UNL     1      43.906 -18.868   4.484  1.00  0.00     0.043 A 
HETATM   23  C   UNL     1      43.148 -19.329   2.253  1.00  0.00     0.014 A 
HETATM   24  C   UNL     1      44.397 -20.171   4.634  1.00  0.00     0.030 A 
HETATM   25  N   UNL     1      43.919 -17.828   5.380  1.00  0.00    -0.364 N 
HETATM   26  C   UNL     1      44.259 -21.048   3.557  1.00  0.00     0.002 A 
HETATM   27  C   UNL     1      43.640 -20.636   2.383  1.00  0.00     0.001 A 
HETATM   28  H   UNL     1      44.303 -17.880   6.313  1.00  0.00     0.165 HD
HETATM   29  C   UNL     1      43.360 -16.716   4.818  1.00  0.00     0.101 A 
ENDBRANCH   6  20
TORSDOF 3
ENDMDL
MODEL 4
REMARK VINA RESULT:      -8.3      5.706      7.708
REMARK  3 active torsions:
REMARK  status: ('A' for Active; 'I' for Inactive)
REMARK    1  A    between atoms: O_2  and  C_3 
REMARK    2  A    between atoms: C_4  and  N_5 
REMARK       I    between atoms: N_5  and  C_6 
REMARK       I    between atoms: C_6  and  N_7 
REMARK    3  A    between atoms: C_10  and  C_11 
ROOT
HETATM    1  N   UNL     1      43.547 -11.432   7.247  1.00  0.00    -0.306 N 
HETATM    2  C   UNL     1      42.916 -11.995   6.161  1.00  0.00     0.323 C 
HETATM    3  N   UNL     1      43.221 -13.350   5.966  1.00  0.00    -0.330 N 
HETATM    4  C   UNL     1      42.673 -13.895   4.734  1.00  0.00     0.155 C 
HETATM    5  C   UNL     1      42.917 -15.360   4.575  1.00  0.00     0.001 C 
HETATM    6  C   UNL     1      43.423 -16.187   5.509  1.00  0.00    -0.046 C 
HETATM    7  C   UNL     1      43.845 -15.613   6.837  1.00  0.00     0.059 C 
HETATM    8  C   UNL     1      43.219 -14.244   7.124  1.00  0.00     0.132 C 
HETATM    9  O   UNL     1      42.183 -11.368   5.401  1.00  0.00    -0.247 OA
HETATM   10  H   UNL     1      44.525 -11.683   7.336  1.00  0.00     0.171 HD
ENDROOT
BRANCH   1  11
HETATM   11  C   UNL     1      43.188 -10.178   7.787  1.00  0.00     0.071 A 
HETATM   12  C   UNL     1      44.118  -9.480   8.568  1.00  0.00     0.095 A 
HETATM   13  C   UNL     1      43.771  -8.274   9.182  1.00  0.00     0.041 A 
HETATM   14  C   UNL     1      42.491  -7.750   8.997  1.00  0.00     0.026 A 
HETATM   15  C   UNL     1      41.569  -8.434   8.204  1.00  0.00     0.036 A 
HETATM   16  C   UNL     1      41.911  -9.643   7.598  1.00  0.00     0.056 A 
HETATM   17 CL   UNL     1      39.985  -7.792   7.997  1.00  0.00    -0.084 Cl
BRANCH  12  18
HETATM   18  O   UNL     1      45.381 -10.002   8.713  1.00  0.00    -0.354 OA
HETATM   19  C   UNL     1      46.338  -9.182   8.036  1.00  0.00     0.210 C 
ENDBRANCH  12  18
ENDBRANCH   1  11
BRANCH   6  20
HETATM   20  C   UNL     1      43.511 -17.620   5.348  1.00  0.00    -0.002 A 
HETATM   21  C   UNL     1      43.567 -18.433   4.159  1.00  0.00     0.003 A 
HETATM   22  C   UNL     1      43.711 -19.763   4.574  1.00  0.00     0.043 A 
HETATM   23  C   UNL     1      43.518 -18.196   2.766  1.00  0.00     0.014 A 
HETATM   24  C   UNL     1      43.828 -20.840   3.687  1.00  0.00     0.030 A 
HETATM   25  N   UNL     1      43.713 -19.765   5.947  1.00  0.00    -0.364 N 
HETATM   26  C   UNL     1      43.797 -20.565   2.319  1.00  0.00     0.002 A 
HETATM   27  C   UNL     1      43.640 -19.261   1.862  1.00  0.00     0.001 A 
HETATM   28  H   UNL     1      43.801 -20.594   6.518  1.00  0.00     0.165 HD
HETATM   29  C   UNL     1      43.603 -18.490   6.420  1.00  0.00     0.101 A 
ENDBRANCH   6  20
TORSDOF 3
ENDMDL
MODEL 5
REMARK VINA RESULT:      -8.3      6.912      8.864
REMARK  3 active torsions:
REMARK  status: ('A' for Active; 'I' for Inactive)
REMARK    1  A    between atoms: O_2  and  C_3 
REMARK    2  A    between atoms: C_4  and  N_5 
REMARK       I    between atoms: N_5  and  C_6 
REMARK       I    between atoms: C_6  and  N_7 
REMARK    3  A    between atoms: C_10  and  C_11 
ROOT
HETATM    1  N   UNL     1      42.935  -9.513   7.700  1.00  0.00    -0.306 N 
HETATM    2  C   UNL     1      41.842 -10.062   7.069  1.00  0.00     0.323 C 
HETATM    3  N   UNL     1      42.169 -10.984   6.064  1.00  0.00    -0.330 N 
HETATM    4  C   UNL     1      41.019 -11.442   5.303  1.00  0.00     0.155 C 
HETATM    5  C   UNL     1      41.355 -12.495   4.298  1.00  0.00     0.001 C 
HETATM    6  C   UNL     1      42.537 -13.128   4.176  1.00  0.00    -0.046 C 
HETATM    7  C   UNL     1      43.672 -12.730   5.084  1.00  0.00     0.059 C 
HETATM    8  C   UNL     1      43.202 -11.983   6.337  1.00  0.00     0.132 C 
HETATM    9  O   UNL     1      40.683  -9.750   7.326  1.00  0.00    -0.247 OA
HETATM   10  H   UNL     1      43.682  -9.237   7.072  1.00  0.00     0.171 HD
ENDROOT
BRANCH   1  11
HETATM   11  C   UNL     1      42.848  -8.779   8.903  1.00  0.00     0.071 A 
HETATM   12  C   UNL     1      42.895  -7.380   8.854  1.00  0.00     0.095 A 
HETATM   13  C   UNL     1      42.890  -6.625  10.030  1.00  0.00     0.041 A 
HETATM   14  C   UNL     1      42.813  -7.272  11.263  1.00  0.00     0.026 A 
HETATM   15  C   UNL     1      42.746  -8.665  11.314  1.00  0.00     0.036 A 
HETATM   16  C   UNL     1      42.762  -9.421  10.141  1.00  0.00     0.056 A 
HETATM   17 CL   UNL     1      42.673  -9.458  12.840  1.00  0.00    -0.084 Cl
BRANCH  12  18
HETATM   18  O   UNL     1      42.943  -6.764   7.627  1.00  0.00    -0.354 OA
HETATM   19  C   UNL     1      41.740  -6.024   7.396  1.00  0.00     0.210 C 
ENDBRANCH  12  18
ENDBRANCH   1  11
BRANCH   6  20
HETATM   20  C   UNL     1      42.766 -14.233   3.274  1.00  0.00    -0.002 A 
HETATM   21  C   UNL     1      43.103 -15.610   3.537  1.00  0.00     0.003 A 
HETATM   22  C   UNL     1      43.145 -16.269   2.303  1.00  0.00     0.043 A 
HETATM   23  C   UNL     1      43.375 -16.385   4.689  1.00  0.00     0.014 A 
HETATM   24  C   UNL     1      43.417 -17.636   2.165  1.00  0.00     0.030 A 
HETATM   25  N   UNL     1      42.877 -15.336   1.332  1.00  0.00    -0.364 N 
HETATM   26  C   UNL     1      43.659 -18.372   3.325  1.00  0.00     0.002 A 
HETATM   27  C   UNL     1      43.642 -17.757   4.571  1.00  0.00     0.001 A 
HETATM   28  H   UNL     1      42.844 -15.533   0.341  1.00  0.00     0.165 HD
HETATM   29  C   UNL     1      42.639 -14.118   1.902  1.00  0.00     0.101 A 
ENDBRANCH   6  20
TORSDOF 3
ENDMDL
MODEL 6
REMARK VINA RESULT:      -8.2     15.825     18.322
REMARK  3 active torsions:
REMARK  status: ('A' for Active; 'I' for Inactive)
REMARK    1  A    between atoms: O_2  and  C_3 
REMARK    2  A    between atoms: C_4  and  N_5 
REMARK       I    between atoms: N_5  and  C_6 
REMARK       I    between atoms: C_6  and  N_7 
REMARK    3  A    between atoms: C_10  and  C_11 
ROOT
HETATM    1  N   UNL     1      39.339 -32.344   3.713  1.00  0.00    -0.306 N 
HETATM    2  C   UNL     1      40.307 -32.964   2.955  1.00  0.00     0.323 C 
HETATM    3  N   UNL     1      41.089 -32.080   2.199  1.00  0.00    -0.330 N 
HETATM    4  C   UNL     1      42.004 -32.751   1.289  1.00  0.00     0.155 C 
HETATM    5  C   UNL     1      42.903 -31.811   0.554  1.00  0.00     0.001 C 
HETATM    6  C   UNL     1      43.033 -30.491   0.786  1.00  0.00    -0.046 C 
HETATM    7  C   UNL     1      42.172 -29.851   1.843  1.00  0.00     0.059 C 
HETATM    8  C   UNL     1      41.590 -30.863   2.836  1.00  0.00     0.132 C 
HETATM    9  O   UNL     1      40.455 -34.182   2.908  1.00  0.00    -0.247 OA
HETATM   10  H   UNL     1      38.835 -31.613   3.225  1.00  0.00     0.171 HD
ENDROOT
BRANCH   1  11
HETATM   11  C   UNL     1      38.625 -32.996   4.742  1.00  0.00     0.071 A 
HETATM   12  C   UNL     1      37.297 -33.379   4.514  1.00  0.00     0.095 A 
HETATM   13  C   UNL     1      36.537 -33.956   5.535  1.00  0.00     0.041 A 
HETATM   14  C   UNL     1      37.114 -34.172   6.786  1.00  0.00     0.026 A 
HETATM   15  C   UNL     1      38.443 -33.809   7.010  1.00  0.00     0.036 A 
HETATM   16  C   UNL     1      39.201 -33.224   5.995  1.00  0.00     0.056 A 
HETATM   17 CL   UNL     1      39.142 -34.059   8.563  1.00  0.00    -0.084 Cl
BRANCH  12  18
HETATM   18  O   UNL     1      36.759 -33.181   3.266  1.00  0.00    -0.354 OA
HETATM   19  C   UNL     1      35.728 -34.141   3.011  1.00  0.00     0.210 C 
ENDBRANCH  12  18
ENDBRANCH   1  11
BRANCH   6  20
HETATM   20  C   UNL     1      44.016 -29.656   0.136  1.00  0.00    -0.002 A 
HETATM   21  C   UNL     1      44.228 -29.362  -1.259  1.00  0.00     0.003 A 
HETATM   22  C   UNL     1      45.280 -28.441  -1.333  1.00  0.00     0.043 A 
HETATM   23  C   UNL     1      43.641 -29.767  -2.481  1.00  0.00     0.014 A 
HETATM   24  C   UNL     1      45.750 -27.900  -2.536  1.00  0.00     0.030 A 
HETATM   25  N   UNL     1      45.710 -28.208  -0.050  1.00  0.00    -0.364 N 
HETATM   26  C   UNL     1      45.133 -28.307  -3.719  1.00  0.00     0.002 A 
HETATM   27  C   UNL     1      44.095 -29.231  -3.695  1.00  0.00     0.001 A 
HETATM   28  H   UNL     1      46.465 -27.583   0.196  1.00  0.00     0.165 HD
HETATM   29  C   UNL     1      44.956 -28.921   0.836  1.00  0.00     0.101 A 
ENDBRANCH   6  20
TORSDOF 3
ENDMDL
MODEL 7
REMARK VINA RESULT:      -8.1      4.836      6.582
REMARK  3 active torsions:
REMARK  status: ('A' for Active; 'I' for Inactive)
REMARK    1  A    between atoms: O_2  and  C_3 
REMARK    2  A    between atoms: C_4  and  N_5 
REMARK       I    between atoms: N_5  and  C_6 
REMARK       I    between atoms: C_6  and  N_7 
REMARK    3  A    between atoms: C_10  and  C_11 
ROOT
HETATM    1  N   UNL     1      40.944 -12.858   0.974  1.00  0.00    -0.306 N 
HETATM    2  C   UNL     1      40.734 -13.201   2.290  1.00  0.00     0.323 C 
HETATM    3  N   UNL     1      41.762 -12.795   3.154  1.00  0.00    -0.330 N 
HETATM    4  C   UNL     1      41.607 -13.292   4.511  1.00  0.00     0.155 C 
HETATM    5  C   UNL     1      42.649 -12.781   5.452  1.00  0.00     0.001 C 
HETATM    6  C   UNL     1      43.557 -11.822   5.187  1.00  0.00    -0.046 C 
HETATM    7  C   UNL     1      43.594 -11.218   3.807  1.00  0.00     0.059 C 
HETATM    8  C   UNL     1      42.297 -11.440   3.020  1.00  0.00     0.132 C 
HETATM    9  O   UNL     1      39.760 -13.840   2.679  1.00  0.00    -0.247 OA
HETATM   10  H   UNL     1      41.888 -13.023   0.647  1.00  0.00     0.171 HD
ENDROOT
BRANCH   1  11
HETATM   11  C   UNL     1      39.936 -12.922  -0.013  1.00  0.00     0.071 A 
HETATM   12  C   UNL     1      38.989 -11.891  -0.090  1.00  0.00     0.095 A 
HETATM   13  C   UNL     1      37.934 -11.960  -1.002  1.00  0.00     0.041 A 
HETATM   14  C   UNL     1      37.835 -13.056  -1.861  1.00  0.00     0.026 A 
HETATM   15  C   UNL     1      38.788 -14.074  -1.799  1.00  0.00     0.036 A 
HETATM   16  C   UNL     1      39.837 -14.012  -0.882  1.00  0.00     0.056 A 
HETATM   17 CL   UNL     1      38.648 -15.433  -2.847  1.00  0.00    -0.084 Cl
BRANCH  12  18
HETATM   18  O   UNL     1      39.123 -10.810   0.747  1.00  0.00    -0.354 OA
HETATM   19  C   UNL     1      37.999 -10.722   1.628  1.00  0.00     0.210 C 
ENDBRANCH  12  18
ENDBRANCH   1  11
BRANCH   6  20
HETATM   20  C   UNL     1      44.453 -11.271   6.176  1.00  0.00    -0.002 A 
HETATM   21  C   UNL     1      44.184 -10.537   7.387  1.00  0.00     0.003 A 
HETATM   22  C   UNL     1      45.415 -10.297   8.008  1.00  0.00     0.043 A 
HETATM   23  C   UNL     1      43.028 -10.047   8.040  1.00  0.00     0.014 A 
HETATM   24  C   UNL     1      45.547  -9.628   9.231  1.00  0.00     0.030 A 
HETATM   25  N   UNL     1      46.391 -10.831   7.203  1.00  0.00    -0.364 N 
HETATM   26  C   UNL     1      44.383  -9.178   9.856  1.00  0.00     0.002 A 
HETATM   27  C   UNL     1      43.140  -9.380   9.269  1.00  0.00     0.001 A 
HETATM   28  H   UNL     1      47.380 -10.801   7.405  1.00  0.00     0.165 HD
HETATM   29  C   UNL     1      45.826 -11.424   6.110  1.00  0.00     0.101 A 
ENDBRANCH   6  20
TORSDOF 3
ENDMDL
MODEL 8
REMARK VINA RESULT:      -8.0      7.745      9.777
REMARK  3 active torsions:
REMARK  status: ('A' for Active; 'I' for Inactive)
REMARK    1  A    between atoms: O_2  and  C_3 
REMARK    2  A    between atoms: C_4  and  N_5 
REMARK       I    between atoms: N_5  and  C_6 
REMARK       I    between atoms: C_6  and  N_7 
REMARK    3  A    between atoms: C_10  and  C_11 
ROOT
HETATM    1  N   UNL     1      42.303  -9.669   9.347  1.00  0.00    -0.306 N 
HETATM    2  C   UNL     1      43.457 -10.216   8.834  1.00  0.00     0.323 C 
HETATM    3  N   UNL     1      43.245 -11.071   7.743  1.00  0.00    -0.330 N 
HETATM    4  C   UNL     1      44.448 -11.760   7.306  1.00  0.00     0.155 C 
HETATM    5  C   UNL     1      44.242 -12.597   6.086  1.00  0.00     0.001 C 
HETATM    6  C   UNL     1      43.137 -12.619   5.316  1.00  0.00    -0.046 C 
HETATM    7  C   UNL     1      41.954 -11.776   5.717  1.00  0.00     0.059 C 
HETATM    8  C   UNL     1      42.323 -10.650   6.689  1.00  0.00     0.132 C 
HETATM    9  O   UNL     1      44.572 -10.011   9.305  1.00  0.00    -0.247 OA
HETATM   10  H   UNL     1      41.538 -10.328   9.443  1.00  0.00     0.171 HD
ENDROOT
BRANCH   1  11
HETATM   11  C   UNL     1      42.294  -8.588  10.255  1.00  0.00     0.071 A 
HETATM   12  C   UNL     1      41.920  -8.818  11.586  1.00  0.00     0.095 A 
HETATM   13  C   UNL     1      41.826  -7.759  12.492  1.00  0.00     0.041 A 
HETATM   14  C   UNL     1      42.129  -6.464  12.073  1.00  0.00     0.026 A 
HETATM   15  C   UNL     1      42.520  -6.235  10.753  1.00  0.00     0.036 A 
HETATM   16  C   UNL     1      42.606  -7.290   9.844  1.00  0.00     0.056 A 
HETATM   17 CL   UNL     1      42.872  -4.631  10.236  1.00  0.00    -0.084 Cl
BRANCH  12  18
HETATM   18  O   UNL     1      41.653 -10.106  11.983  1.00  0.00    -0.354 OA
HETATM   19  C   UNL     1      40.689 -10.110  13.040  1.00  0.00     0.210 C 
ENDBRANCH  12  18
ENDBRANCH   1  11
BRANCH   6  20
HETATM   20  C   UNL     1      43.041 -13.346   4.072  1.00  0.00    -0.002 A 
HETATM   21  C   UNL     1      43.084 -14.762   3.801  1.00  0.00     0.003 A 
HETATM   22  C   UNL     1      42.881 -14.926   2.426  1.00  0.00     0.043 A 
HETATM   23  C   UNL     1      43.265 -15.936   4.569  1.00  0.00     0.014 A 
HETATM   24  C   UNL     1      42.830 -16.176   1.797  1.00  0.00     0.030 A 
HETATM   25  N   UNL     1      42.751 -13.674   1.879  1.00  0.00    -0.364 N 
HETATM   26  C   UNL     1      42.992 -17.312   2.590  1.00  0.00     0.002 A 
HETATM   27  C   UNL     1      43.211 -17.196   3.957  1.00  0.00     0.001 A 
HETATM   28  H   UNL     1      42.598 -13.491   0.897  1.00  0.00     0.165 HD
HETATM   29  C   UNL     1      42.836 -12.722   2.854  1.00  0.00     0.101 A 
ENDBRANCH   6  20
TORSDOF 3
ENDMDL
MODEL 9
REMARK VINA RESULT:      -8.0      6.919      9.090
REMARK  3 active torsions:
REMARK  status: ('A' for Active; 'I' for Inactive)
REMARK    1  A    between atoms: O_2  and  C_3 
REMARK    2  A    between atoms: C_4  and  N_5 
REMARK       I    between atoms: N_5  and  C_6 
REMARK       I    between atoms: C_6  and  N_7 
REMARK    3  A    between atoms: C_10  and  C_11 
ROOT
HETATM    1  N   UNL     1      43.223  -9.365   7.888  1.00  0.00    -0.306 N 
HETATM    2  C   UNL     1      42.111  -9.816   7.216  1.00  0.00     0.323 C 
HETATM    3  N   UNL     1      42.394 -10.753   6.212  1.00  0.00    -0.330 N 
HETATM    4  C   UNL     1      41.236 -11.108   5.408  1.00  0.00     0.155 C 
HETATM    5  C   UNL     1      41.517 -12.177   4.403  1.00  0.00     0.001 C 
HETATM    6  C   UNL     1      42.646 -12.905   4.313  1.00  0.00    -0.046 C 
HETATM    7  C   UNL     1      43.779 -12.610   5.262  1.00  0.00     0.059 C 
HETATM    8  C   UNL     1      43.331 -11.837   6.507  1.00  0.00     0.132 C 
HETATM    9  O   UNL     1      40.973  -9.411   7.438  1.00  0.00    -0.247 OA
HETATM   10  H   UNL     1      44.011  -9.147   7.289  1.00  0.00     0.171 HD
ENDROOT
BRANCH   1  11
HETATM   11  C   UNL     1      43.157  -8.637   9.096  1.00  0.00     0.071 A 
HETATM   12  C   UNL     1      43.262  -9.324  10.313  1.00  0.00     0.095 A 
HETATM   13  C   UNL     1      43.123  -8.647  11.527  1.00  0.00     0.041 A 
HETATM   14  C   UNL     1      42.900  -7.269  11.527  1.00  0.00     0.026 A 
HETATM   15  C   UNL     1      42.814  -6.581  10.316  1.00  0.00     0.036 A 
HETATM   16  C   UNL     1      42.943  -7.256   9.103  1.00  0.00     0.056 A 
HETATM   17 CL   UNL     1      42.518  -4.885  10.323  1.00  0.00    -0.084 Cl
BRANCH  12  18
HETATM   18  O   UNL     1      43.509 -10.675  10.289  1.00  0.00    -0.354 OA
HETATM   19  C   UNL     1      43.808 -11.149  11.605  1.00  0.00     0.210 C 
ENDBRANCH  12  18
ENDBRANCH   1  11
BRANCH   6  20
HETATM   20  C   UNL     1      42.812 -14.017   3.407  1.00  0.00    -0.002 A 
HETATM   21  C   UNL     1      43.133 -15.400   3.661  1.00  0.00     0.003 A 
HETATM   22  C   UNL     1      43.108 -16.063   2.428  1.00  0.00     0.043 A 
HETATM   23  C   UNL     1      43.440 -16.176   4.803  1.00  0.00     0.014 A 
HETATM   24  C   UNL     1      43.346 -17.436   2.285  1.00  0.00     0.030 A 
HETATM   25  N   UNL     1      42.815 -15.129   1.466  1.00  0.00    -0.364 N 
HETATM   26  C   UNL     1      43.624 -18.173   3.436  1.00  0.00     0.002 A 
HETATM   27  C   UNL     1      43.674 -17.553   4.679  1.00  0.00     0.001 A 
HETATM   28  H   UNL     1      42.735 -15.328   0.479  1.00  0.00     0.165 HD
HETATM   29  C   UNL     1      42.628 -13.904   2.041  1.00  0.00     0.101 A 
ENDBRANCH   6  20
TORSDOF 3
ENDMDL
MODEL 10
REMARK VINA RESULT:      -8.0      3.580      9.530
REMARK  3 active torsions:
REMARK  status: ('A' for Active; 'I' for Inactive)
REMARK    1  A    between atoms: O_2  and  C_3 
REMARK    2  A    between atoms: C_4  and  N_5 
REMARK       I    between atoms: N_5  and  C_6 
REMARK       I    between atoms: C_6  and  N_7 
REMARK    3  A    between atoms: C_10  and  C_11 
ROOT
HETATM    1  N   UNL     1      42.569 -15.643   2.886  1.00  0.00    -0.306 N 
HETATM    2  C   UNL     1      41.274 -15.258   3.153  1.00  0.00     0.323 C 
HETATM    3  N   UNL     1      40.873 -14.102   2.469  1.00  0.00    -0.330 N 
HETATM    4  C   UNL     1      39.562 -13.618   2.872  1.00  0.00     0.155 C 
HETATM    5  C   UNL     1      39.094 -12.444   2.076  1.00  0.00     0.001 C 
HETATM    6  C   UNL     1      39.686 -11.944   0.975  1.00  0.00    -0.046 C 
HETATM    7  C   UNL     1      40.973 -12.565   0.496  1.00  0.00     0.059 C 
HETATM    8  C   UNL     1      41.199 -13.976   1.049  1.00  0.00     0.132 C 
HETATM    9  O   UNL     1      40.542 -15.844   3.946  1.00  0.00    -0.247 OA
HETATM   10  H   UNL     1      43.235 -14.879   2.878  1.00  0.00     0.171 HD
ENDROOT
BRANCH   1  11
HETATM   11  C   UNL     1      43.091 -16.905   3.243  1.00  0.00     0.071 A 
HETATM   12  C   UNL     1      43.726 -17.055   4.483  1.00  0.00     0.095 A 
HETATM   13  C   UNL     1      44.322 -18.268   4.836  1.00  0.00     0.041 A 
HETATM   14  C   UNL     1      44.265 -19.347   3.953  1.00  0.00     0.026 A 
HETATM   15  C   UNL     1      43.617 -19.205   2.725  1.00  0.00     0.036 A 
HETATM   16  C   UNL     1      43.029 -17.992   2.367  1.00  0.00     0.056 A 
HETATM   17 CL   UNL     1      43.568 -20.534   1.631  1.00  0.00    -0.084 Cl
BRANCH  12  18
HETATM   18  O   UNL     1      43.746 -15.987   5.347  1.00  0.00    -0.354 OA
HETATM   19  C   UNL     1      44.420 -16.341   6.559  1.00  0.00     0.210 C 
ENDBRANCH  12  18
ENDBRANCH   1  11
BRANCH   6  20
HETATM   20  C   UNL     1      39.117 -10.890   0.167  1.00  0.00    -0.002 A 
HETATM   21  C   UNL     1      38.237 -10.947  -0.972  1.00  0.00     0.003 A 
HETATM   22  C   UNL     1      37.942  -9.627  -1.334  1.00  0.00     0.043 A 
HETATM   23  C   UNL     1      37.643 -11.973  -1.744  1.00  0.00     0.014 A 
HETATM   24  C   UNL     1      37.087  -9.288  -2.390  1.00  0.00     0.030 A 
HETATM   25  N   UNL     1      38.632  -8.805  -0.478  1.00  0.00    -0.364 N 
HETATM   26  C   UNL     1      36.503 -10.327  -3.115  1.00  0.00     0.002 A 
HETATM   27  C   UNL     1      36.778 -11.652  -2.801  1.00  0.00     0.001 A 
HETATM   28  H   UNL     1      38.608  -7.795  -0.510  1.00  0.00     0.165 HD
HETATM   29  C   UNL     1      39.330  -9.548   0.429  1.00  0.00     0.101 A 
ENDBRANCH   6  20
TORSDOF 3
ENDMDL
