MODEL 1
REMARK VINA RESULT:      -8.4      0.000      0.000
REMARK  6 active torsions:
REMARK  status: ('A' for Active; 'I' for Inactive)
REMARK    1  A    between atoms: C_2  and  O_3 
REMARK    2  A    between atoms: O_3  and  C_4 
REMARK    3  A    between atoms: C_5  and  O_6 
REMARK    4  A    between atoms: C_10  and  C_11 
REMARK    5  A    between atoms: C_20  and  C_21 
REMARK       I    between atoms: C_21  and  N_22 
REMARK    6  A    between atoms: N_22  and  C_23 
ROOT
HETATM    1  C   UNL     1      43.045 -13.547   4.880  1.00  0.00     0.202 A 
HETATM    2  N   UNL     1      43.328 -12.338   5.662  1.00  0.00    -0.084 N 
HETATM    3  C   UNL     1      43.499 -12.325   7.017  1.00  0.00     0.725 A 
HETATM    4  N   UNL     1      43.803 -11.115   7.407  1.00  0.00    -0.054 NA
HETATM    5  C   UNL     1      43.862 -10.421   6.226  1.00  0.00     0.275 A 
HETATM    6  N   UNL     1      43.620 -11.136   5.120  1.00  0.00    -0.149 NA
HETATM    7  N   UNL     1      43.377 -13.475   7.705  1.00  0.00    -0.192 N 
HETATM    8  C   UNL     1      43.140 -14.707   7.107  1.00  0.00     0.037 A 
HETATM    9  C   UNL     1      43.101 -15.887   8.049  1.00  0.00     0.070 C 
HETATM   10  C   UNL     1      42.983 -14.792   5.760  1.00  0.00     0.062 A 
HETATM   11  H   UNL     1      43.518 -13.455   8.712  1.00  0.00     0.184 HD
ENDROOT
BRANCH   1  12
HETATM   12  C   UNL     1      41.810 -13.329   4.008  1.00  0.00    -0.024 A 
HETATM   13  C   UNL     1      41.725 -13.977   2.761  1.00  0.00     0.031 A 
HETATM   14  C   UNL     1      40.610 -13.800   1.940  1.00  0.00     0.047 A 
HETATM   15  C   UNL     1      39.571 -12.972   2.358  1.00  0.00     0.116 A 
HETATM   16 BR   UNL     1      40.557 -14.703   0.275  1.00  0.00    -0.048 Br
HETATM   17  C   UNL     1      39.634 -12.310   3.591  1.00  0.00     0.103 A 
HETATM   18  C   UNL     1      40.759 -12.477   4.404  1.00  0.00     0.049 A 
BRANCH  15  19
HETATM   19  O   UNL     1      38.463 -12.792   1.568  1.00  0.00    -0.357 OA
HETATM   20  H   UNL     1      38.109 -11.916   1.817  1.00  0.00     0.218 HD
ENDBRANCH  15  19
BRANCH  17  21
HETATM   21  O   UNL     1      38.544 -11.530   3.882  1.00  0.00    -0.349 OA
BRANCH  21  22
HETATM   22  C   UNL     1      38.737 -10.115   3.864  1.00  0.00     0.171 C 
HETATM   23  C   UNL     1      38.257  -9.563   5.193  1.00  0.00     0.034 C 
ENDBRANCH  21  22
ENDBRANCH  17  21
ENDBRANCH   1  12
BRANCH  10  24
HETATM   24  C   UNL     1      42.622 -16.097   5.122  1.00  0.00     0.256 C 
HETATM   25  N   UNL     1      43.685 -16.768   4.556  1.00  0.00    -0.323 N 
HETATM   26  H   UNL     1      44.599 -16.343   4.578  1.00  0.00     0.169 HD
HETATM   27  O   UNL     1      41.447 -16.444   5.102  1.00  0.00    -0.267 OA
BRANCH  25  28
HETATM   28  C   UNL     1      43.640 -18.015   3.892  1.00  0.00     0.035 A 
HETATM   29  C   UNL     1      43.197 -18.186   2.579  1.00  0.00     0.029 A 
HETATM   30  C   UNL     1      43.168 -19.459   2.000  1.00  0.00     0.002 A 
HETATM   31  C   UNL     1      43.590 -20.570   2.726  1.00  0.00     0.000 A 
HETATM   32  C   UNL     1      44.035 -20.411   4.035  1.00  0.00     0.002 A 
HETATM   33  C   UNL     1      44.052 -19.141   4.618  1.00  0.00     0.029 A 
ENDBRANCH  25  28
ENDBRANCH  10  24
TORSDOF 6
ENDMDL
MODEL 2
REMARK VINA RESULT:      -8.3      1.465      2.519
REMARK  6 active torsions:
REMARK  status: ('A' for Active; 'I' for Inactive)
REMARK    1  A    between atoms: C_2  and  O_3 
REMARK    2  A    between atoms: O_3  and  C_4 
REMARK    3  A    between atoms: C_5  and  O_6 
REMARK    4  A    between atoms: C_10  and  C_11 
REMARK    5  A    between atoms: C_20  and  C_21 
REMARK       I    between atoms: C_21  and  N_22 
REMARK    6  A    between atoms: N_22  and  C_23 
ROOT
HETATM    1  C   UNL     1      43.397 -13.452   4.880  1.00  0.00     0.202 A 
HETATM    2  N   UNL     1      43.712 -12.301   5.734  1.00  0.00    -0.084 N 
HETATM    3  C   UNL     1      43.741 -12.343   7.098  1.00  0.00     0.725 A 
HETATM    4  N   UNL     1      44.120 -11.181   7.563  1.00  0.00    -0.054 NA
HETATM    5  C   UNL     1      44.367 -10.463   6.422  1.00  0.00     0.275 A 
HETATM    6  N   UNL     1      44.173 -11.118   5.271  1.00  0.00    -0.149 NA
HETATM    7  N   UNL     1      43.439 -13.494   7.725  1.00  0.00    -0.192 N 
HETATM    8  C   UNL     1      43.147 -14.679   7.060  1.00  0.00     0.037 A 
HETATM    9  C   UNL     1      42.897 -15.876   7.947  1.00  0.00     0.070 C 
HETATM   10  C   UNL     1      43.124 -14.709   5.702  1.00  0.00     0.062 A 
HETATM   11  H   UNL     1      43.476 -13.517   8.742  1.00  0.00     0.184 HD
ENDROOT
BRANCH   1  12
HETATM   12  C   UNL     1      42.285 -13.087   3.898  1.00  0.00    -0.024 A 
HETATM   13  C   UNL     1      41.252 -12.227   4.317  1.00  0.00     0.031 A 
HETATM   14  C   UNL     1      40.222 -11.873   3.445  1.00  0.00     0.047 A 
HETATM   15  C   UNL     1      40.215 -12.374   2.146  1.00  0.00     0.116 A 
HETATM   16 BR   UNL     1      38.863 -10.710   4.071  1.00  0.00    -0.048 Br
HETATM   17  C   UNL     1      41.228 -13.237   1.707  1.00  0.00     0.103 A 
HETATM   18  C   UNL     1      42.249 -13.604   2.587  1.00  0.00     0.049 A 
BRANCH  15  19
HETATM   19  O   UNL     1      39.215 -12.030   1.272  1.00  0.00    -0.357 OA
HETATM   20  H   UNL     1      39.660 -11.546   0.548  1.00  0.00     0.218 HD
ENDBRANCH  15  19
BRANCH  17  21
HETATM   21  O   UNL     1      41.102 -13.655   0.406  1.00  0.00    -0.349 OA
BRANCH  21  22
HETATM   22  C   UNL     1      40.277 -14.796   0.169  1.00  0.00     0.171 C 
HETATM   23  C   UNL     1      39.521 -14.563  -1.127  1.00  0.00     0.034 C 
ENDBRANCH  21  22
ENDBRANCH  17  21
ENDBRANCH   1  12
BRANCH  10  24
HETATM   24  C   UNL     1      42.707 -15.952   4.981  1.00  0.00     0.256 C 
HETATM   25  N   UNL     1      43.753 -16.737   4.544  1.00  0.00    -0.323 N 
HETATM   26  H   UNL     1      44.698 -16.423   4.702  1.00  0.00     0.169 HD
HETATM   27  O   UNL     1      41.513 -16.158   4.790  1.00  0.00    -0.267 OA
BRANCH  25  28
HETATM   28  C   UNL     1      43.656 -17.959   3.841  1.00  0.00     0.035 A 
HETATM   29  C   UNL     1      43.163 -18.077   2.541  1.00  0.00     0.029 A 
HETATM   30  C   UNL     1      43.085 -19.330   1.922  1.00  0.00     0.002 A 
HETATM   31  C   UNL     1      43.509 -20.473   2.595  1.00  0.00     0.000 A 
HETATM   32  C   UNL     1      44.004 -20.366   3.892  1.00  0.00     0.002 A 
HETATM   33  C   UNL     1      44.070 -19.117   4.515  1.00  0.00     0.029 A 
ENDBRANCH  25  28
ENDBRANCH  10  24
TORSDOF 6
ENDMDL
MODEL 3
REMARK VINA RESULT:      -8.0      3.032      7.352
REMARK  6 active torsions:
REMARK  status: ('A' for Active; 'I' for Inactive)
REMARK    1  A    between atoms: C_2  and  O_3 
REMARK    2  A    between atoms: O_3  and  C_4 
REMARK    3  A    between atoms: C_5  and  O_6 
REMARK    4  A    between atoms: C_10  and  C_11 
REMARK    5  A    between atoms: C_20  and  C_21 
REMARK       I    between atoms: C_21  and  N_22 
REMARK    6  A    between atoms: N_22  and  C_23 
ROOT
HETATM    1  C   UNL     1      42.392 -13.549   2.261  1.00  0.00     0.202 A 
HETATM    2  N   UNL     1      41.269 -13.817   1.355  1.00  0.00    -0.084 N 
HETATM    3  C   UNL     1      40.317 -12.896   1.022  1.00  0.00     0.725 A 
HETATM    4  N   UNL     1      39.495 -13.416   0.147  1.00  0.00    -0.054 NA
HETATM    5  C   UNL     1      40.027 -14.661  -0.068  1.00  0.00     0.275 A 
HETATM    6  N   UNL     1      41.142 -14.942   0.618  1.00  0.00    -0.149 NA
HETATM    7  N   UNL     1      40.374 -11.668   1.565  1.00  0.00    -0.192 N 
HETATM    8  C   UNL     1      41.389 -11.249   2.418  1.00  0.00     0.037 A 
HETATM    9  C   UNL     1      41.305  -9.811   2.870  1.00  0.00     0.070 C 
HETATM   10  C   UNL     1      42.379 -12.111   2.771  1.00  0.00     0.062 A 
HETATM   11  H   UNL     1      39.666 -10.986   1.301  1.00  0.00     0.184 HD
ENDROOT
BRANCH   1  12
HETATM   12  C   UNL     1      42.442 -14.608   3.361  1.00  0.00    -0.024 A 
HETATM   13  C   UNL     1      41.454 -14.604   4.364  1.00  0.00     0.031 A 
HETATM   14  C   UNL     1      41.469 -15.557   5.383  1.00  0.00     0.047 A 
HETATM   15  C   UNL     1      42.472 -16.523   5.408  1.00  0.00     0.116 A 
HETATM   16 BR   UNL     1      40.110 -15.498   6.701  1.00  0.00    -0.048 Br
HETATM   17  C   UNL     1      43.470 -16.545   4.425  1.00  0.00     0.103 A 
HETATM   18  C   UNL     1      43.462 -15.579   3.416  1.00  0.00     0.049 A 
BRANCH  15  19
HETATM   19  O   UNL     1      42.499 -17.474   6.397  1.00  0.00    -0.357 OA
HETATM   20  H   UNL     1      42.922 -17.039   7.163  1.00  0.00     0.218 HD
ENDBRANCH  15  19
BRANCH  17  21
HETATM   21  O   UNL     1      44.394 -17.550   4.566  1.00  0.00    -0.349 OA
BRANCH  21  22
HETATM   22  C   UNL     1      44.231 -18.701   3.736  1.00  0.00     0.171 C 
HETATM   23  C   UNL     1      44.264 -19.927   4.629  1.00  0.00     0.034 C 
ENDBRANCH  21  22
ENDBRANCH  17  21
ENDBRANCH   1  12
BRANCH  10  24
HETATM   24  C   UNL     1      43.415 -11.702   3.770  1.00  0.00     0.256 C 
HETATM   25  N   UNL     1      42.941 -11.556   5.057  1.00  0.00    -0.323 N 
HETATM   26  H   UNL     1      41.958 -11.697   5.234  1.00  0.00     0.169 HD
HETATM   27  O   UNL     1      44.559 -11.484   3.387  1.00  0.00    -0.267 OA
BRANCH  25  28
HETATM   28  C   UNL     1      43.689 -11.182   6.196  1.00  0.00     0.035 A 
HETATM   29  C   UNL     1      45.023 -11.537   6.406  1.00  0.00     0.029 A 
HETATM   30  C   UNL     1      45.687 -11.140   7.572  1.00  0.00     0.002 A 
HETATM   31  C   UNL     1      45.027 -10.378   8.532  1.00  0.00     0.000 A 
HETATM   32  C   UNL     1      43.697 -10.017   8.331  1.00  0.00     0.002 A 
HETATM   33  C   UNL     1      43.030 -10.424   7.173  1.00  0.00     0.029 A 
ENDBRANCH  25  28
ENDBRANCH  10  24
TORSDOF 6
ENDMDL
MODEL 4
REMARK VINA RESULT:      -7.6      3.032      4.913
REMARK  6 active torsions:
REMARK  status: ('A' for Active; 'I' for Inactive)
REMARK    1  A    between atoms: C_2  and  O_3 
REMARK    2  A    between atoms: O_3  and  C_4 
REMARK    3  A    between atoms: C_5  and  O_6 
REMARK    4  A    between atoms: C_10  and  C_11 
REMARK    5  A    between atoms: C_20  and  C_21 
REMARK       I    between atoms: C_21  and  N_22 
REMARK    6  A    between atoms: N_22  and  C_23 
ROOT
HETATM    1  C   UNL     1      39.860 -13.245   3.898  1.00  0.00     0.202 A 
HETATM    2  N   UNL     1      39.432 -11.933   3.398  1.00  0.00    -0.084 N 
HETATM    3  C   UNL     1      39.353 -11.607   2.074  1.00  0.00     0.725 A 
HETATM    4  N   UNL     1      38.877 -10.395   1.951  1.00  0.00    -0.054 NA
HETATM    5  C   UNL     1      38.625 -10.034   3.249  1.00  0.00     0.275 A 
HETATM    6  N   UNL     1      38.908 -10.960   4.174  1.00  0.00    -0.149 NA
HETATM    7  N   UNL     1      39.710 -12.518   1.151  1.00  0.00    -0.192 N 
HETATM    8  C   UNL     1      40.109 -13.813   1.462  1.00  0.00     0.037 A 
HETATM    9  C   UNL     1      40.407 -14.701   0.278  1.00  0.00     0.070 C 
HETATM   10  C   UNL     1      40.187 -14.207   2.760  1.00  0.00     0.062 A 
HETATM   11  H   UNL     1      39.635 -12.268   0.168  1.00  0.00     0.184 HD
ENDROOT
BRANCH   1  12
HETATM   12  C   UNL     1      40.980 -13.074   4.923  1.00  0.00    -0.024 A 
HETATM   13  C   UNL     1      41.354 -14.171   5.722  1.00  0.00     0.031 A 
HETATM   14  C   UNL     1      42.374 -14.049   6.667  1.00  0.00     0.047 A 
HETATM   15  C   UNL     1      43.029 -12.830   6.821  1.00  0.00     0.116 A 
HETATM   16 BR   UNL     1      42.831 -15.564   7.709  1.00  0.00    -0.048 Br
HETATM   17  C   UNL     1      42.671 -11.721   6.043  1.00  0.00     0.103 A 
HETATM   18  C   UNL     1      41.638 -11.841   5.109  1.00  0.00     0.049 A 
BRANCH  15  19
HETATM   19  O   UNL     1      44.040 -12.693   7.739  1.00  0.00    -0.357 OA
HETATM   20  H   UNL     1      43.699 -13.097   8.561  1.00  0.00     0.218 HD
ENDBRANCH  15  19
BRANCH  17  21
HETATM   21  O   UNL     1      43.396 -10.584   6.294  1.00  0.00    -0.349 OA
BRANCH  21  22
HETATM   22  C   UNL     1      42.788  -9.599   7.132  1.00  0.00     0.171 C 
HETATM   23  C   UNL     1      43.817  -9.163   8.158  1.00  0.00     0.034 C 
ENDBRANCH  21  22
ENDBRANCH  17  21
ENDBRANCH   1  12
BRANCH  10  24
HETATM   24  C   UNL     1      40.717 -15.563   3.107  1.00  0.00     0.256 C 
HETATM   25  N   UNL     1      42.070 -15.719   2.891  1.00  0.00    -0.323 N 
HETATM   26  H   UNL     1      42.594 -14.952   2.499  1.00  0.00     0.169 HD
HETATM   27  O   UNL     1      39.938 -16.426   3.496  1.00  0.00    -0.267 OA
BRANCH  25  28
HETATM   28  C   UNL     1      42.835 -16.883   3.129  1.00  0.00     0.035 A 
HETATM   29  C   UNL     1      42.870 -17.986   2.272  1.00  0.00     0.029 A 
HETATM   30  C   UNL     1      43.642 -19.108   2.591  1.00  0.00     0.002 A 
HETATM   31  C   UNL     1      44.392 -19.134   3.764  1.00  0.00     0.000 A 
HETATM   32  C   UNL     1      44.366 -18.040   4.624  1.00  0.00     0.002 A 
HETATM   33  C   UNL     1      43.585 -16.924   4.313  1.00  0.00     0.029 A 
ENDBRANCH  25  28
ENDBRANCH  10  24
TORSDOF 6
ENDMDL
MODEL 5
REMARK VINA RESULT:      -7.5      2.913      5.268
REMARK  6 active torsions:
REMARK  status: ('A' for Active; 'I' for Inactive)
REMARK    1  A    between atoms: C_2  and  O_3 
REMARK    2  A    between atoms: O_3  and  C_4 
REMARK    3  A    between atoms: C_5  and  O_6 
REMARK    4  A    between atoms: C_10  and  C_11 
REMARK    5  A    between atoms: C_20  and  C_21 
REMARK       I    between atoms: C_21  and  N_22 
REMARK    6  A    between atoms: N_22  and  C_23 
ROOT
HETATM    1  C   UNL     1      39.865 -13.329   3.504  1.00  0.00     0.202 A 
HETATM    2  N   UNL     1      39.521 -11.938   3.185  1.00  0.00    -0.084 N 
HETATM    3  C   UNL     1      39.441 -11.442   1.915  1.00  0.00     0.725 A 
HETATM    4  N   UNL     1      39.050 -10.195   1.959  1.00  0.00    -0.054 NA
HETATM    5  C   UNL     1      38.847  -9.986   3.298  1.00  0.00     0.275 A 
HETATM    6  N   UNL     1      39.081 -11.039   4.092  1.00  0.00    -0.149 NA
HETATM    7  N   UNL     1      39.716 -12.249   0.876  1.00  0.00    -0.192 N 
HETATM    8  C   UNL     1      40.029 -13.597   1.010  1.00  0.00     0.037 A 
HETATM    9  C   UNL     1      40.242 -14.345  -0.284  1.00  0.00     0.070 C 
HETATM   10  C   UNL     1      40.103 -14.158   2.246  1.00  0.00     0.062 A 
HETATM   11  H   UNL     1      39.642 -11.871  -0.066  1.00  0.00     0.184 HD
ENDROOT
BRANCH   1  12
HETATM   12  C   UNL     1      41.013 -13.367   4.512  1.00  0.00    -0.024 A 
HETATM   13  C   UNL     1      42.082 -12.463   4.368  1.00  0.00     0.031 A 
HETATM   14  C   UNL     1      43.147 -12.469   5.271  1.00  0.00     0.047 A 
HETATM   15  C   UNL     1      43.151 -13.380   6.324  1.00  0.00     0.116 A 
HETATM   16 BR   UNL     1      44.554 -11.225   5.023  1.00  0.00    -0.048 Br
HETATM   17  C   UNL     1      42.103 -14.295   6.485  1.00  0.00     0.103 A 
HETATM   18  C   UNL     1      41.046 -14.297   5.570  1.00  0.00     0.049 A 
BRANCH  15  19
HETATM   19  O   UNL     1      44.185 -13.396   7.227  1.00  0.00    -0.357 OA
HETATM   20  H   UNL     1      43.915 -14.033   7.918  1.00  0.00     0.218 HD
ENDBRANCH  15  19
BRANCH  17  21
HETATM   21  O   UNL     1      42.230 -15.132   7.564  1.00  0.00    -0.349 OA
BRANCH  21  22
HETATM   22  C   UNL     1      42.469 -16.513   7.288  1.00  0.00     0.171 C 
HETATM   23  C   UNL     1      43.926 -16.803   7.597  1.00  0.00     0.034 C 
ENDBRANCH  21  22
ENDBRANCH  17  21
ENDBRANCH   1  12
BRANCH  10  24
HETATM   24  C   UNL     1      40.543 -15.580   2.404  1.00  0.00     0.256 C 
HETATM   25  N   UNL     1      41.900 -15.741   2.582  1.00  0.00    -0.323 N 
HETATM   26  H   UNL     1      42.495 -14.928   2.564  1.00  0.00     0.169 HD
HETATM   27  O   UNL     1      39.708 -16.474   2.319  1.00  0.00    -0.267 OA
BRANCH  25  28
HETATM   28  C   UNL     1      42.590 -16.962   2.758  1.00  0.00     0.035 A 
HETATM   29  C   UNL     1      42.506 -18.042   1.878  1.00  0.00     0.029 A 
HETATM   30  C   UNL     1      43.211 -19.223   2.135  1.00  0.00     0.002 A 
HETATM   31  C   UNL     1      44.011 -19.331   3.269  1.00  0.00     0.000 A 
HETATM   32  C   UNL     1      44.103 -18.260   4.153  1.00  0.00     0.002 A 
HETATM   33  C   UNL     1      43.390 -17.084   3.903  1.00  0.00     0.029 A 
ENDBRANCH  25  28
ENDBRANCH  10  24
TORSDOF 6
ENDMDL
MODEL 6
REMARK VINA RESULT:      -7.4      2.749      5.083
REMARK  6 active torsions:
REMARK  status: ('A' for Active; 'I' for Inactive)
REMARK    1  A    between atoms: C_2  and  O_3 
REMARK    2  A    between atoms: O_3  and  C_4 
REMARK    3  A    between atoms: C_5  and  O_6 
REMARK    4  A    between atoms: C_10  and  C_11 
REMARK    5  A    between atoms: C_20  and  C_21 
REMARK       I    between atoms: C_21  and  N_22 
REMARK    6  A    between atoms: N_22  and  C_23 
ROOT
HETATM    1  C   UNL     1      41.785 -12.412   3.954  1.00  0.00     0.202 A 
HETATM    2  N   UNL     1      42.786 -12.415   5.028  1.00  0.00    -0.084 N 
HETATM    3  C   UNL     1      43.316 -13.546   5.578  1.00  0.00     0.725 A 
HETATM    4  N   UNL     1      44.226 -13.219   6.458  1.00  0.00    -0.054 NA
HETATM    5  C   UNL     1      44.256 -11.851   6.369  1.00  0.00     0.275 A 
HETATM    6  N   UNL     1      43.421 -11.309   5.474  1.00  0.00    -0.149 NA
HETATM    7  N   UNL     1      42.890 -14.747   5.147  1.00  0.00    -0.192 N 
HETATM    8  C   UNL     1      41.969 -14.913   4.119  1.00  0.00     0.037 A 
HETATM    9  C   UNL     1      41.671 -16.344   3.741  1.00  0.00     0.070 C 
HETATM   10  C   UNL     1      41.421 -13.827   3.514  1.00  0.00     0.062 A 
HETATM   11  H   UNL     1      43.300 -15.583   5.556  1.00  0.00     0.184 HD
ENDROOT
BRANCH   1  12
HETATM   12  C   UNL     1      40.590 -11.549   4.356  1.00  0.00    -0.024 A 
HETATM   13  C   UNL     1      40.037 -10.660   3.415  1.00  0.00     0.031 A 
HETATM   14  C   UNL     1      38.945  -9.857   3.748  1.00  0.00     0.047 A 
HETATM   15  C   UNL     1      38.397  -9.936   5.026  1.00  0.00     0.116 A 
HETATM   16 BR   UNL     1      38.247  -8.683   2.435  1.00  0.00    -0.048 Br
HETATM   17  C   UNL     1      38.933 -10.808   5.983  1.00  0.00     0.103 A 
HETATM   18  C   UNL     1      40.036 -11.598   5.651  1.00  0.00     0.049 A 
BRANCH  15  19
HETATM   19  O   UNL     1      37.317  -9.161   5.370  1.00  0.00    -0.357 OA
HETATM   20  H   UNL     1      37.538  -8.260   5.063  1.00  0.00     0.218 HD
ENDBRANCH  15  19
BRANCH  17  21
HETATM   21  O   UNL     1      38.296 -10.790   7.198  1.00  0.00    -0.349 OA
BRANCH  21  22
HETATM   22  C   UNL     1      39.103 -10.530   8.348  1.00  0.00     0.171 C 
HETATM   23  C   UNL     1      39.432  -9.048   8.360  1.00  0.00     0.034 C 
ENDBRANCH  21  22
ENDBRANCH  17  21
ENDBRANCH   1  12
BRANCH  10  24
HETATM   24  C   UNL     1      40.351 -13.997   2.481  1.00  0.00     0.256 C 
HETATM   25  N   UNL     1      40.695 -13.547   1.224  1.00  0.00    -0.323 N 
HETATM   26  H   UNL     1      41.598 -13.120   1.088  1.00  0.00     0.169 HD
HETATM   27  O   UNL     1      39.267 -14.460   2.818  1.00  0.00    -0.267 OA
BRANCH  25  28
HETATM   28  C   UNL     1      39.888 -13.583   0.065  1.00  0.00     0.035 A 
HETATM   29  C   UNL     1      39.837 -14.662  -0.820  1.00  0.00     0.029 A 
HETATM   30  C   UNL     1      39.023 -14.610  -1.956  1.00  0.00     0.002 A 
HETATM   31  C   UNL     1      38.247 -13.482  -2.213  1.00  0.00     0.000 A 
HETATM   32  C   UNL     1      38.290 -12.401  -1.338  1.00  0.00     0.002 A 
HETATM   33  C   UNL     1      39.112 -12.448  -0.209  1.00  0.00     0.029 A 
ENDBRANCH  25  28
ENDBRANCH  10  24
TORSDOF 6
ENDMDL
MODEL 7
REMARK VINA RESULT:      -7.2      5.938      8.121
REMARK  6 active torsions:
REMARK  status: ('A' for Active; 'I' for Inactive)
REMARK    1  A    between atoms: C_2  and  O_3 
REMARK    2  A    between atoms: O_3  and  C_4 
REMARK    3  A    between atoms: C_5  and  O_6 
REMARK    4  A    between atoms: C_10  and  C_11 
REMARK    5  A    between atoms: C_20  and  C_21 
REMARK       I    between atoms: C_21  and  N_22 
REMARK    6  A    between atoms: N_22  and  C_23 
ROOT
HETATM    1  C   UNL     1      38.216 -11.519  -0.689  1.00  0.00     0.202 A 
HETATM    2  N   UNL     1      37.199 -11.074  -1.649  1.00  0.00    -0.084 N 
HETATM    3  C   UNL     1      36.802 -11.800  -2.736  1.00  0.00     0.725 A 
HETATM    4  N   UNL     1      35.838 -11.169  -3.354  1.00  0.00    -0.054 NA
HETATM    5  C   UNL     1      35.640 -10.067  -2.563  1.00  0.00     0.275 A 
HETATM    6  N   UNL     1      36.421  -9.983  -1.479  1.00  0.00    -0.149 NA
HETATM    7  N   UNL     1      37.384 -12.988  -2.979  1.00  0.00    -0.192 N 
HETATM    8  C   UNL     1      38.342 -13.560  -2.150  1.00  0.00     0.037 A 
HETATM    9  C   UNL     1      38.825 -14.929  -2.565  1.00  0.00     0.070 C 
HETATM   10  C   UNL     1      38.764 -12.899  -1.040  1.00  0.00     0.062 A 
HETATM   11  H   UNL     1      37.072 -13.525  -3.785  1.00  0.00     0.184 HD
ENDROOT
BRANCH   1  12
HETATM   12  C   UNL     1      39.285 -10.439  -0.521  1.00  0.00    -0.024 A 
HETATM   13  C   UNL     1      39.410  -9.782   0.717  1.00  0.00     0.031 A 
HETATM   14  C   UNL     1      40.375  -8.792   0.904  1.00  0.00     0.047 A 
HETATM   15  C   UNL     1      41.224  -8.450  -0.146  1.00  0.00     0.116 A 
HETATM   16 BR   UNL     1      40.493  -7.947   2.596  1.00  0.00    -0.048 Br
HETATM   17  C   UNL     1      41.115  -9.084  -1.390  1.00  0.00     0.103 A 
HETATM   18  C   UNL     1      40.136 -10.064  -1.580  1.00  0.00     0.049 A 
BRANCH  15  19
HETATM   19  O   UNL     1      42.185  -7.485   0.021  1.00  0.00    -0.357 OA
HETATM   20  H   UNL     1      42.733  -7.792   0.770  1.00  0.00     0.218 HD
ENDBRANCH  15  19
BRANCH  17  21
HETATM   21  O   UNL     1      42.013  -8.656  -2.335  1.00  0.00    -0.349 OA
BRANCH  21  22
HETATM   22  C   UNL     1      41.485  -7.943  -3.455  1.00  0.00     0.171 C 
HETATM   23  C   UNL     1      42.621  -7.158  -4.084  1.00  0.00     0.034 C 
ENDBRANCH  21  22
ENDBRANCH  17  21
ENDBRANCH   1  12
BRANCH  10  24
HETATM   24  C   UNL     1      39.869 -13.459  -0.201  1.00  0.00     0.256 C 
HETATM   25  N   UNL     1      39.449 -14.088   0.951  1.00  0.00    -0.323 N 
HETATM   26  H   UNL     1      38.464 -14.105   1.167  1.00  0.00     0.169 HD
HETATM   27  O   UNL     1      41.031 -13.286  -0.554  1.00  0.00    -0.267 OA
BRANCH  25  28
HETATM   28  C   UNL     1      40.267 -14.706   1.923  1.00  0.00     0.035 A 
HETATM   29  C   UNL     1      40.694 -14.083   3.098  1.00  0.00     0.029 A 
HETATM   30  C   UNL     1      41.518 -14.761   4.002  1.00  0.00     0.002 A 
HETATM   31  C   UNL     1      41.916 -16.070   3.743  1.00  0.00     0.000 A 
HETATM   32  C   UNL     1      41.496 -16.702   2.576  1.00  0.00     0.002 A 
HETATM   33  C   UNL     1      40.682 -16.020   1.667  1.00  0.00     0.029 A 
ENDBRANCH  25  28
ENDBRANCH  10  24
TORSDOF 6
ENDMDL
MODEL 8
REMARK VINA RESULT:      -7.2      5.350      7.594
REMARK  6 active torsions:
REMARK  status: ('A' for Active; 'I' for Inactive)
REMARK    1  A    between atoms: C_2  and  O_3 
REMARK    2  A    between atoms: O_3  and  C_4 
REMARK    3  A    between atoms: C_5  and  O_6 
REMARK    4  A    between atoms: C_10  and  C_11 
REMARK    5  A    between atoms: C_20  and  C_21 
REMARK       I    between atoms: C_21  and  N_22 
REMARK    6  A    between atoms: N_22  and  C_23 
ROOT
HETATM    1  C   UNL     1      38.097 -11.501  -0.502  1.00  0.00     0.202 A 
HETATM    2  N   UNL     1      37.134 -11.033  -1.506  1.00  0.00    -0.084 N 
HETATM    3  C   UNL     1      36.870 -11.686  -2.676  1.00  0.00     0.725 A 
HETATM    4  N   UNL     1      35.921 -11.059  -3.321  1.00  0.00    -0.054 NA
HETATM    5  C   UNL     1      35.593 -10.040  -2.464  1.00  0.00     0.275 A 
HETATM    6  N   UNL     1      36.280 -10.004  -1.315  1.00  0.00    -0.149 NA
HETATM    7  N   UNL     1      37.540 -12.816  -2.963  1.00  0.00    -0.192 N 
HETATM    8  C   UNL     1      38.463 -13.402  -2.104  1.00  0.00     0.037 A 
HETATM    9  C   UNL     1      39.060 -14.703  -2.585  1.00  0.00     0.070 C 
HETATM   10  C   UNL     1      38.754 -12.814  -0.914  1.00  0.00     0.062 A 
HETATM   11  H   UNL     1      37.327 -13.300  -3.832  1.00  0.00     0.184 HD
ENDROOT
BRANCH   1  12
HETATM   12  C   UNL     1      39.081 -10.382  -0.161  1.00  0.00    -0.024 A 
HETATM   13  C   UNL     1      39.894  -9.848  -1.178  1.00  0.00     0.031 A 
HETATM   14  C   UNL     1      40.803  -8.826  -0.901  1.00  0.00     0.047 A 
HETATM   15  C   UNL     1      40.907  -8.329   0.396  1.00  0.00     0.116 A 
HETATM   16 BR   UNL     1      41.866  -8.149  -2.315  1.00  0.00    -0.048 Br
HETATM   17  C   UNL     1      40.114  -8.849   1.428  1.00  0.00     0.103 A 
HETATM   18  C   UNL     1      39.217  -9.884   1.151  1.00  0.00     0.049 A 
BRANCH  15  19
HETATM   19  O   UNL     1      41.789  -7.319   0.686  1.00  0.00    -0.357 OA
HETATM   20  H   UNL     1      41.724  -7.189   1.653  1.00  0.00     0.218 HD
ENDBRANCH  15  19
BRANCH  17  21
HETATM   21  O   UNL     1      40.314  -8.268   2.655  1.00  0.00    -0.349 OA
BRANCH  21  22
HETATM   22  C   UNL     1      40.277  -9.131   3.793  1.00  0.00     0.171 C 
HETATM   23  C   UNL     1      41.679  -9.666   4.017  1.00  0.00     0.034 C 
ENDBRANCH  21  22
ENDBRANCH  17  21
ENDBRANCH   1  12
BRANCH  10  24
HETATM   24  C   UNL     1      39.822 -13.382  -0.033  1.00  0.00     0.256 C 
HETATM   25  N   UNL     1      39.352 -14.122   1.030  1.00  0.00    -0.323 N 
HETATM   26  H   UNL     1      38.356 -14.208   1.163  1.00  0.00     0.169 HD
HETATM   27  O   UNL     1      40.996 -13.121  -0.276  1.00  0.00    -0.267 OA
BRANCH  25  28
HETATM   28  C   UNL     1      40.127 -14.773   2.016  1.00  0.00     0.035 A 
HETATM   29  C   UNL     1      40.746 -16.012   1.834  1.00  0.00     0.029 A 
HETATM   30  C   UNL     1      41.483 -16.595   2.869  1.00  0.00     0.002 A 
HETATM   31  C   UNL     1      41.616 -15.942   4.092  1.00  0.00     0.000 A 
HETATM   32  C   UNL     1      41.005 -14.707   4.284  1.00  0.00     0.002 A 
HETATM   33  C   UNL     1      40.258 -14.129   3.254  1.00  0.00     0.029 A 
ENDBRANCH  25  28
ENDBRANCH  10  24
TORSDOF 6
ENDMDL
MODEL 9
REMARK VINA RESULT:      -7.2     16.048     17.730
REMARK  6 active torsions:
REMARK  status: ('A' for Active; 'I' for Inactive)
REMARK    1  A    between atoms: C_2  and  O_3 
REMARK    2  A    between atoms: O_3  and  C_4 
REMARK    3  A    between atoms: C_5  and  O_6 
REMARK    4  A    between atoms: C_10  and  C_11 
REMARK    5  A    between atoms: C_20  and  C_21 
REMARK       I    between atoms: C_21  and  N_22 
REMARK    6  A    between atoms: N_22  and  C_23 
ROOT
HETATM    1  C   UNL     1      44.454 -29.419   1.139  1.00  0.00     0.202 A 
HETATM    2  N   UNL     1      43.238 -29.828   1.852  1.00  0.00    -0.084 N 
HETATM    3  C   UNL     1      43.237 -30.492   3.045  1.00  0.00     0.725 A 
HETATM    4  N   UNL     1      42.005 -30.653   3.453  1.00  0.00    -0.054 NA
HETATM    5  C   UNL     1      41.278 -30.011   2.485  1.00  0.00     0.275 A 
HETATM    6  N   UNL     1      41.990 -29.449   1.500  1.00  0.00    -0.149 NA
HETATM    7  N   UNL     1      44.410 -30.829   3.610  1.00  0.00    -0.192 N 
HETATM    8  C   UNL     1      45.648 -30.489   3.074  1.00  0.00     0.037 A 
HETATM    9  C   UNL     1      46.845 -30.906   3.895  1.00  0.00     0.070 C 
HETATM   10  C   UNL     1      45.718 -29.808   1.901  1.00  0.00     0.062 A 
HETATM   11  H   UNL     1      44.397 -31.314   4.504  1.00  0.00     0.184 HD
ENDROOT
BRANCH   1  12
HETATM   12  C   UNL     1      44.408 -29.919  -0.304  1.00  0.00    -0.024 A 
HETATM   13  C   UNL     1      44.671 -29.017  -1.353  1.00  0.00     0.031 A 
HETATM   14  C   UNL     1      44.637 -29.441  -2.683  1.00  0.00     0.047 A 
HETATM   15  C   UNL     1      44.340 -30.770  -2.974  1.00  0.00     0.116 A 
HETATM   16 BR   UNL     1      45.002 -28.179  -4.047  1.00  0.00    -0.048 Br
HETATM   17  C   UNL     1      44.068 -31.686  -1.949  1.00  0.00     0.103 A 
HETATM   18  C   UNL     1      44.086 -31.254  -0.620  1.00  0.00     0.049 A 
BRANCH  15  19
HETATM   19  O   UNL     1      44.311 -31.208  -4.275  1.00  0.00    -0.357 OA
HETATM   20  H   UNL     1      44.977 -31.922  -4.323  1.00  0.00     0.218 HD
ENDBRANCH  15  19
BRANCH  17  21
HETATM   21  O   UNL     1      43.795 -32.961  -2.375  1.00  0.00    -0.349 OA
BRANCH  21  22
HETATM   22  C   UNL     1      43.695 -33.971  -1.369  1.00  0.00     0.171 C 
HETATM   23  C   UNL     1      42.278 -34.516  -1.397  1.00  0.00     0.034 C 
ENDBRANCH  21  22
ENDBRANCH  17  21
ENDBRANCH   1  12
BRANCH  10  24
HETATM   24  C   UNL     1      47.044 -29.533   1.266  1.00  0.00     0.256 C 
HETATM   25  N   UNL     1      47.582 -30.601   0.580  1.00  0.00    -0.323 N 
HETATM   26  H   UNL     1      47.084 -31.478   0.574  1.00  0.00     0.169 HD
HETATM   27  O   UNL     1      47.567 -28.436   1.431  1.00  0.00    -0.267 OA
BRANCH  25  28
HETATM   28  C   UNL     1      48.813 -30.627  -0.114  1.00  0.00     0.035 A 
HETATM   29  C   UNL     1      48.990 -30.142  -1.411  1.00  0.00     0.029 A 
HETATM   30  C   UNL     1      50.240 -30.221  -2.033  1.00  0.00     0.002 A 
HETATM   31  C   UNL     1      51.326 -30.777  -1.361  1.00  0.00     0.000 A 
HETATM   32  C   UNL     1      51.161 -31.261  -0.067  1.00  0.00     0.002 A 
HETATM   33  C   UNL     1      49.909 -31.194   0.551  1.00  0.00     0.029 A 
ENDBRANCH  25  28
ENDBRANCH  10  24
TORSDOF 6
ENDMDL
MODEL 10
REMARK VINA RESULT:      -7.0      4.443      6.903
REMARK  6 active torsions:
REMARK  status: ('A' for Active; 'I' for Inactive)
REMARK    1  A    between atoms: C_2  and  O_3 
REMARK    2  A    between atoms: O_3  and  C_4 
REMARK    3  A    between atoms: C_5  and  O_6 
REMARK    4  A    between atoms: C_10  and  C_11 
REMARK    5  A    between atoms: C_20  and  C_21 
REMARK       I    between atoms: C_21  and  N_22 
REMARK    6  A    between atoms: N_22  and  C_23 
ROOT
HETATM    1  C   UNL     1      39.333 -12.567   1.122  1.00  0.00     0.202 A 
HETATM    2  N   UNL     1      38.970 -12.942  -0.250  1.00  0.00    -0.084 N 
HETATM    3  C   UNL     1      39.406 -14.075  -0.876  1.00  0.00     0.725 A 
HETATM    4  N   UNL     1      38.856 -14.158  -2.060  1.00  0.00    -0.054 NA
HETATM    5  C   UNL     1      38.035 -13.061  -2.092  1.00  0.00     0.275 A 
HETATM    6  N   UNL     1      38.036 -12.303  -0.988  1.00  0.00    -0.149 NA
HETATM    7  N   UNL     1      40.243 -14.903  -0.226  1.00  0.00    -0.192 N 
HETATM    8  C   UNL     1      40.657 -14.704   1.086  1.00  0.00     0.037 A 
HETATM    9  C   UNL     1      41.547 -15.783   1.656  1.00  0.00     0.070 C 
HETATM   10  C   UNL     1      40.241 -13.607   1.772  1.00  0.00     0.062 A 
HETATM   11  H   UNL     1      40.551 -15.750  -0.697  1.00  0.00     0.184 HD
ENDROOT
BRANCH   1  12
HETATM   12  C   UNL     1      39.885 -11.143   1.147  1.00  0.00    -0.024 A 
HETATM   13  C   UNL     1      39.288 -10.189   1.993  1.00  0.00     0.031 A 
HETATM   14  C   UNL     1      39.768  -8.879   2.040  1.00  0.00     0.047 A 
HETATM   15  C   UNL     1      40.848  -8.512   1.242  1.00  0.00     0.116 A 
HETATM   16 BR   UNL     1      38.922  -7.645   3.202  1.00  0.00    -0.048 Br
HETATM   17  C   UNL     1      41.455  -9.440   0.386  1.00  0.00     0.103 A 
HETATM   18  C   UNL     1      40.962 -10.747   0.329  1.00  0.00     0.049 A 
BRANCH  15  19
HETATM   19  O   UNL     1      41.339  -7.231   1.281  1.00  0.00    -0.357 OA
HETATM   20  H   UNL     1      42.234  -7.285   0.890  1.00  0.00     0.218 HD
ENDBRANCH  15  19
BRANCH  17  21
HETATM   21  O   UNL     1      42.510  -8.949  -0.341  1.00  0.00    -0.349 OA
BRANCH  21  22
HETATM   22  C   UNL     1      42.262  -8.641  -1.714  1.00  0.00     0.171 C 
HETATM   23  C   UNL     1      43.140  -7.462  -2.092  1.00  0.00     0.034 C 
ENDBRANCH  21  22
ENDBRANCH  17  21
ENDBRANCH   1  12
BRANCH  10  24
HETATM   24  C   UNL     1      40.766 -13.331   3.146  1.00  0.00     0.256 C 
HETATM   25  N   UNL     1      42.137 -13.199   3.217  1.00  0.00    -0.323 N 
HETATM   26  H   UNL     1      42.684 -13.322   2.379  1.00  0.00     0.169 HD
HETATM   27  O   UNL     1      39.981 -13.292   4.087  1.00  0.00    -0.267 OA
BRANCH  25  28
HETATM   28  C   UNL     1      42.901 -12.936   4.376  1.00  0.00     0.035 A 
HETATM   29  C   UNL     1      43.053 -13.835   5.434  1.00  0.00     0.029 A 
HETATM   30  C   UNL     1      43.815 -13.489   6.555  1.00  0.00     0.002 A 
HETATM   31  C   UNL     1      44.439 -12.246   6.624  1.00  0.00     0.000 A 
HETATM   32  C   UNL     1      44.296 -11.344   5.574  1.00  0.00     0.002 A 
HETATM   33  C   UNL     1      43.525 -11.683   4.460  1.00  0.00     0.029 A 
ENDBRANCH  25  28
ENDBRANCH  10  24
TORSDOF 6
ENDMDL
