MODEL 1
REMARK VINA RESULT:      -9.1      0.000      0.000
REMARK  10 active torsions:
REMARK  status: ('A' for Active; 'I' for Inactive)
REMARK    1  A    between atoms: C_2  and  N_3 
REMARK    2  A    between atoms: N_3  and  C_4 
REMARK    3  A    between atoms: N_3  and  C_37 
REMARK    4  A    between atoms: C_7  and  C_8 
REMARK    5  A    between atoms: N_9  and  C_11 
REMARK    6  A    between atoms: C_11  and  C_12 
REMARK       I    between atoms: C_12  and  N_13 
REMARK    7  A    between atoms: N_13  and  C_14 
REMARK    8  A    between atoms: C_20  and  C_21 
REMARK    9  A    between atoms: C_21  and  O_22 
REMARK   10  A    between atoms: C_28  and  O_29 
ROOT
HETATM    1  C   UNL     1      42.906 -16.750   3.651  1.00  0.00     0.228 C 
HETATM    2  N   UNL     1      42.575 -16.275   5.068  1.00  0.00    -0.054 N 
HETATM    3  H   UNL     1      42.923 -15.311   5.047  1.00  0.00     0.281 HD
HETATM    4  C   UNL     1      43.422 -16.923   6.132  1.00  0.00     0.239 C 
HETATM    5  C   UNL     1      43.537 -18.435   6.015  1.00  0.00     0.066 C 
HETATM    6  C   UNL     1      43.871 -18.893   4.597  1.00  0.00     0.065 C 
HETATM    7  C   UNL     1      42.909 -18.291   3.547  1.00  0.00     0.055 C 
HETATM    8  C   UNL     1      43.871 -20.431   4.509  1.00  0.00     0.038 C 
HETATM    9  C   UNL     1      44.216 -20.931   3.106  1.00  0.00     0.003 C 
HETATM   10  C   UNL     1      43.319 -20.301   2.048  1.00  0.00     0.001 C 
HETATM   11  C   UNL     1      43.317 -18.776   2.134  1.00  0.00     0.010 C 
ENDROOT
BRANCH   2  12
HETATM   12  C   UNL     1      41.098 -16.054   5.443  1.00  0.00     0.338 C 
BRANCH  12  13
HETATM   13  C   UNL     1      40.684 -14.684   5.982  1.00  0.00     0.248 C 
HETATM   14  N   UNL     1      41.468 -13.651   5.500  1.00  0.00    -0.319 N 
HETATM   15  H   UNL     1      42.314 -13.867   4.969  1.00  0.00     0.169 HD
HETATM   16  O   UNL     1      39.772 -14.586   6.794  1.00  0.00    -0.271 OA
BRANCH  14  17
HETATM   17  C   UNL     1      41.332 -12.298   5.802  1.00  0.00     0.094 A 
HETATM   18  S   UNL     1      39.905 -11.460   5.454  1.00  0.00    -0.076 SA
HETATM   19  C   UNL     1      40.508  -9.998   6.082  1.00  0.00    -0.012 A 
HETATM   20  C   UNL     1      39.630  -8.786   6.075  1.00  0.00     0.057 C 
HETATM   21  C   UNL     1      41.805 -10.127   6.561  1.00  0.00    -0.030 A 
HETATM   22  C   UNL     1      42.572  -9.007   7.199  1.00  0.00     0.050 C 
HETATM   23  C   UNL     1      42.309 -11.482   6.361  1.00  0.00     0.080 A 
BRANCH  23  24
HETATM   24  C   UNL     1      43.636 -12.019   6.697  1.00  0.00     0.296 C 
HETATM   25  O   UNL     1      43.786 -12.886   7.557  1.00  0.00    -0.259 OA
BRANCH  24  26
HETATM   26  O   UNL     1      44.650 -11.479   5.971  1.00  0.00    -0.322 OA
HETATM   27  C   UNL     1      45.826 -11.171   6.720  1.00  0.00     0.213 C 
ENDBRANCH  24  26
ENDBRANCH  23  24
ENDBRANCH  14  17
ENDBRANCH  12  13
ENDBRANCH   2  12
BRANCH   1  28
HETATM   28  C   UNL     1      42.118 -15.982   2.603  1.00  0.00    -0.027 A 
HETATM   29  C   UNL     1      40.882 -16.488   2.174  1.00  0.00     0.011 A 
HETATM   30  C   UNL     1      40.099 -15.788   1.248  1.00  0.00     0.030 A 
HETATM   31  C   UNL     1      40.516 -14.571   0.699  1.00  0.00     0.030 A 
HETATM   32  C   UNL     1      41.773 -14.097   1.105  1.00  0.00     0.030 A 
HETATM   33  C   UNL     1      42.564 -14.782   2.039  1.00  0.00     0.011 A 
BRANCH  31  34
HETATM   34  N   UNL     1      39.722 -13.819  -0.163  1.00  0.00    -0.382 N 
BRANCH  34  35
HETATM   35  C   UNL     1      39.298 -14.356  -1.467  1.00  0.00     0.118 C 
HETATM   36  C   UNL     1      40.195 -13.855  -2.592  1.00  0.00     0.026 C 
ENDBRANCH  34  35
BRANCH  34  37
HETATM   37  C   UNL     1      39.795 -12.352  -0.063  1.00  0.00     0.118 C 
HETATM   38  C   UNL     1      38.738 -11.807   0.888  1.00  0.00     0.026 C 
ENDBRANCH  34  37
ENDBRANCH  31  34
ENDBRANCH   1  28
BRANCH   6  39
HETATM   39  O   UNL     1      45.192 -18.399   4.323  1.00  0.00    -0.389 OA
HETATM   40  H   UNL     1      45.773 -19.153   4.105  1.00  0.00     0.210 HD
ENDBRANCH   6  39
TORSDOF 10
ENDMDL
MODEL 2
REMARK VINA RESULT:      -8.7      2.116      6.206
REMARK  10 active torsions:
REMARK  status: ('A' for Active; 'I' for Inactive)
REMARK    1  A    between atoms: C_2  and  N_3 
REMARK    2  A    between atoms: N_3  and  C_4 
REMARK    3  A    between atoms: N_3  and  C_37 
REMARK    4  A    between atoms: C_7  and  C_8 
REMARK    5  A    between atoms: N_9  and  C_11 
REMARK    6  A    between atoms: C_11  and  C_12 
REMARK       I    between atoms: C_12  and  N_13 
REMARK    7  A    between atoms: N_13  and  C_14 
REMARK    8  A    between atoms: C_20  and  C_21 
REMARK    9  A    between atoms: C_21  and  O_22 
REMARK   10  A    between atoms: C_28  and  O_29 
ROOT
HETATM    1  C   UNL     1      39.860 -13.490   1.285  1.00  0.00     0.228 C 
HETATM    2  N   UNL     1      39.871 -12.251   2.184  1.00  0.00    -0.054 N 
HETATM    3  H   UNL     1      39.397 -12.602   3.022  1.00  0.00     0.281 HD
HETATM    4  C   UNL     1      38.957 -11.153   1.706  1.00  0.00     0.239 C 
HETATM    5  C   UNL     1      39.082 -10.825   0.227  1.00  0.00     0.066 C 
HETATM    6  C   UNL     1      39.065 -12.070  -0.658  1.00  0.00     0.065 C 
HETATM    7  C   UNL     1      40.096 -13.127  -0.198  1.00  0.00     0.055 C 
HETATM    8  C   UNL     1      39.302 -11.692  -2.132  1.00  0.00     0.038 C 
HETATM    9  C   UNL     1      39.278 -12.912  -3.053  1.00  0.00     0.003 C 
HETATM   10  C   UNL     1      40.242 -13.992  -2.582  1.00  0.00     0.001 C 
HETATM   11  C   UNL     1      40.009 -14.368  -1.120  1.00  0.00     0.010 C 
ENDROOT
BRANCH   2  12
HETATM   12  C   UNL     1      41.215 -11.782   2.773  1.00  0.00     0.338 C 
BRANCH  12  13
HETATM   13  C   UNL     1      41.345 -11.680   4.293  1.00  0.00     0.248 C 
HETATM   14  N   UNL     1      42.138 -10.621   4.699  1.00  0.00    -0.319 N 
HETATM   15  H   UNL     1      42.676 -10.099   4.004  1.00  0.00     0.169 HD
HETATM   16  O   UNL     1      40.816 -12.512   5.019  1.00  0.00    -0.271 OA
BRANCH  14  17
HETATM   17  C   UNL     1      42.438 -10.268   6.013  1.00  0.00     0.094 A 
HETATM   18  S   UNL     1      41.429  -9.239   6.897  1.00  0.00    -0.076 SA
HETATM   19  C   UNL     1      42.419  -9.313   8.279  1.00  0.00    -0.012 A 
HETATM   20  C   UNL     1      42.012  -8.560   9.507  1.00  0.00     0.057 C 
HETATM   21  C   UNL     1      43.533 -10.117   8.084  1.00  0.00    -0.030 A 
HETATM   22  C   UNL     1      44.559 -10.389   9.143  1.00  0.00     0.050 C 
HETATM   23  C   UNL     1      43.566 -10.656   6.728  1.00  0.00     0.080 A 
BRANCH  23  24
HETATM   24  C   UNL     1      44.585 -11.519   6.114  1.00  0.00     0.296 C 
HETATM   25  O   UNL     1      45.197 -11.182   5.101  1.00  0.00    -0.259 OA
BRANCH  24  26
HETATM   26  O   UNL     1      44.781 -12.694   6.770  1.00  0.00    -0.322 OA
HETATM   27  C   UNL     1      43.775 -13.682   6.543  1.00  0.00     0.213 C 
ENDBRANCH  24  26
ENDBRANCH  23  24
ENDBRANCH  14  17
ENDBRANCH  12  13
ENDBRANCH   2  12
BRANCH   1  28
HETATM   28  C   UNL     1      40.697 -14.616   1.869  1.00  0.00    -0.027 A 
HETATM   29  C   UNL     1      41.955 -14.888   1.313  1.00  0.00     0.011 A 
HETATM   30  C   UNL     1      42.781 -15.882   1.851  1.00  0.00     0.030 A 
HETATM   31  C   UNL     1      42.387 -16.655   2.949  1.00  0.00     0.030 A 
HETATM   32  C   UNL     1      41.108 -16.400   3.468  1.00  0.00     0.030 A 
HETATM   33  C   UNL     1      40.275 -15.401   2.946  1.00  0.00     0.011 A 
BRANCH  31  34
HETATM   34  N   UNL     1      43.221 -17.595   3.549  1.00  0.00    -0.382 N 
BRANCH  34  35
HETATM   35  C   UNL     1      43.793 -17.359   4.885  1.00  0.00     0.118 C 
HETATM   36  C   UNL     1      43.705 -18.606   5.755  1.00  0.00     0.026 C 
ENDBRANCH  34  35
BRANCH  34  37
HETATM   37  C   UNL     1      43.983 -18.498   2.671  1.00  0.00     0.118 C 
HETATM   38  C   UNL     1      43.111 -19.630   2.146  1.00  0.00     0.026 C 
ENDBRANCH  34  37
ENDBRANCH  31  34
ENDBRANCH   1  28
BRANCH   6  39
HETATM   39  O   UNL     1      37.754 -12.638  -0.514  1.00  0.00    -0.389 OA
HETATM   40  H   UNL     1      37.220 -12.060   0.064  1.00  0.00     0.210 HD
ENDBRANCH   6  39
TORSDOF 10
ENDMDL
MODEL 3
REMARK VINA RESULT:      -8.6      1.502      2.088
REMARK  10 active torsions:
REMARK  status: ('A' for Active; 'I' for Inactive)
REMARK    1  A    between atoms: C_2  and  N_3 
REMARK    2  A    between atoms: N_3  and  C_4 
REMARK    3  A    between atoms: N_3  and  C_37 
REMARK    4  A    between atoms: C_7  and  C_8 
REMARK    5  A    between atoms: N_9  and  C_11 
REMARK    6  A    between atoms: C_11  and  C_12 
REMARK       I    between atoms: C_12  and  N_13 
REMARK    7  A    between atoms: N_13  and  C_14 
REMARK    8  A    between atoms: C_20  and  C_21 
REMARK    9  A    between atoms: C_21  and  O_22 
REMARK   10  A    between atoms: C_28  and  O_29 
ROOT
HETATM    1  C   UNL     1      43.020 -16.553   3.543  1.00  0.00     0.228 C 
HETATM    2  N   UNL     1      42.835 -15.947   4.936  1.00  0.00    -0.054 N 
HETATM    3  H   UNL     1      43.244 -15.015   4.810  1.00  0.00     0.281 HD
HETATM    4  C   UNL     1      43.718 -16.571   5.985  1.00  0.00     0.239 C 
HETATM    5  C   UNL     1      43.722 -18.091   5.986  1.00  0.00     0.066 C 
HETATM    6  C   UNL     1      43.912 -18.681   4.591  1.00  0.00     0.065 C 
HETATM    7  C   UNL     1      42.912 -18.094   3.567  1.00  0.00     0.055 C 
HETATM    8  C   UNL     1      43.802 -20.218   4.631  1.00  0.00     0.038 C 
HETATM    9  C   UNL     1      44.000 -20.848   3.253  1.00  0.00     0.003 C 
HETATM   10  C   UNL     1      43.068 -20.239   2.215  1.00  0.00     0.001 C 
HETATM   11  C   UNL     1      43.175 -18.716   2.174  1.00  0.00     0.010 C 
ENDROOT
BRANCH   2  12
HETATM   12  C   UNL     1      41.410 -15.590   5.399  1.00  0.00     0.338 C 
BRANCH  12  13
HETATM   13  C   UNL     1      41.152 -14.179   5.929  1.00  0.00     0.248 C 
HETATM   14  N   UNL     1      42.189 -13.302   5.665  1.00  0.00    -0.319 N 
HETATM   15  H   UNL     1      43.070 -13.661   5.292  1.00  0.00     0.169 HD
HETATM   16  O   UNL     1      40.131 -13.929   6.558  1.00  0.00    -0.271 OA
BRANCH  14  17
HETATM   17  C   UNL     1      42.243 -11.954   6.016  1.00  0.00     0.094 A 
HETATM   18  S   UNL     1      43.239 -11.413   7.270  1.00  0.00    -0.076 SA
HETATM   19  C   UNL     1      42.761  -9.793   7.067  1.00  0.00    -0.012 A 
HETATM   20  C   UNL     1      43.361  -8.741   7.947  1.00  0.00     0.057 C 
HETATM   21  C   UNL     1      41.833  -9.643   6.046  1.00  0.00    -0.030 A 
HETATM   22  C   UNL     1      41.263  -8.321   5.626  1.00  0.00     0.050 C 
HETATM   23  C   UNL     1      41.496 -10.929   5.445  1.00  0.00     0.080 A 
BRANCH  23  24
HETATM   24  C   UNL     1      40.540 -11.208   4.364  1.00  0.00     0.296 C 
HETATM   25  O   UNL     1      39.329 -11.040   4.508  1.00  0.00    -0.259 OA
BRANCH  24  26
HETATM   26  O   UNL     1      41.118 -11.652   3.216  1.00  0.00    -0.322 OA
HETATM   27  C   UNL     1      41.684 -10.629   2.396  1.00  0.00     0.213 C 
ENDBRANCH  24  26
ENDBRANCH  23  24
ENDBRANCH  14  17
ENDBRANCH  12  13
ENDBRANCH   2  12
BRANCH   1  28
HETATM   28  C   UNL     1      42.205 -15.814   2.495  1.00  0.00    -0.027 A 
HETATM   29  C   UNL     1      40.940 -16.305   2.145  1.00  0.00     0.011 A 
HETATM   30  C   UNL     1      40.133 -15.628   1.222  1.00  0.00     0.030 A 
HETATM   31  C   UNL     1      40.556 -14.449   0.598  1.00  0.00     0.030 A 
HETATM   32  C   UNL     1      41.841 -13.992   0.926  1.00  0.00     0.030 A 
HETATM   33  C   UNL     1      42.655 -14.654   1.856  1.00  0.00     0.011 A 
BRANCH  31  34
HETATM   34  N   UNL     1      39.742 -13.717  -0.263  1.00  0.00    -0.382 N 
BRANCH  34  35
HETATM   35  C   UNL     1      39.860 -13.860  -1.724  1.00  0.00     0.118 C 
HETATM   36  C   UNL     1      38.842 -14.852  -2.269  1.00  0.00     0.026 C 
ENDBRANCH  34  35
BRANCH  34  37
HETATM   37  C   UNL     1      39.213 -12.430   0.219  1.00  0.00     0.118 C 
HETATM   38  C   UNL     1      39.643 -11.281  -0.683  1.00  0.00     0.026 C 
ENDBRANCH  34  37
ENDBRANCH  31  34
ENDBRANCH   1  28
BRANCH   6  39
HETATM   39  O   UNL     1      45.237 -18.308   4.180  1.00  0.00    -0.389 OA
HETATM   40  H   UNL     1      45.351 -18.531   3.236  1.00  0.00     0.210 HD
ENDBRANCH   6  39
TORSDOF 10
ENDMDL
MODEL 4
REMARK VINA RESULT:      -8.6      2.371      6.354
REMARK  10 active torsions:
REMARK  status: ('A' for Active; 'I' for Inactive)
REMARK    1  A    between atoms: C_2  and  N_3 
REMARK    2  A    between atoms: N_3  and  C_4 
REMARK    3  A    between atoms: N_3  and  C_37 
REMARK    4  A    between atoms: C_7  and  C_8 
REMARK    5  A    between atoms: N_9  and  C_11 
REMARK    6  A    between atoms: C_11  and  C_12 
REMARK       I    between atoms: C_12  and  N_13 
REMARK    7  A    between atoms: N_13  and  C_14 
REMARK    8  A    between atoms: C_20  and  C_21 
REMARK    9  A    between atoms: C_21  and  O_22 
REMARK   10  A    between atoms: C_28  and  O_29 
ROOT
HETATM    1  C   UNL     1      40.925 -13.785   2.313  1.00  0.00     0.228 C 
HETATM    2  N   UNL     1      41.542 -12.546   2.965  1.00  0.00    -0.054 N 
HETATM    3  H   UNL     1      41.391 -12.742   3.960  1.00  0.00     0.281 HD
HETATM    4  C   UNL     1      40.746 -11.287   2.737  1.00  0.00     0.239 C 
HETATM    5  C   UNL     1      40.321 -11.061   1.295  1.00  0.00     0.066 C 
HETATM    6  C   UNL     1      39.703 -12.304   0.659  1.00  0.00     0.065 C 
HETATM    7  C   UNL     1      40.604 -13.551   0.820  1.00  0.00     0.055 C 
HETATM    8  C   UNL     1      39.389 -12.054  -0.828  1.00  0.00     0.038 C 
HETATM    9  C   UNL     1      38.755 -13.273  -1.498  1.00  0.00     0.003 C 
HETATM   10  C   UNL     1      39.596 -14.527  -1.298  1.00  0.00     0.001 C 
HETATM   11  C   UNL     1      39.910 -14.776   0.177  1.00  0.00     0.010 C 
ENDROOT
BRANCH   2  12
HETATM   12  C   UNL     1      43.072 -12.377   2.921  1.00  0.00     0.338 C 
BRANCH  12  13
HETATM   13  C   UNL     1      43.755 -11.642   4.075  1.00  0.00     0.248 C 
HETATM   14  N   UNL     1      42.934 -11.484   5.179  1.00  0.00    -0.319 N 
HETATM   15  H   UNL     1      41.942 -11.717   5.106  1.00  0.00     0.169 HD
HETATM   16  O   UNL     1      44.897 -11.219   3.953  1.00  0.00    -0.271 OA
BRANCH  14  17
HETATM   17  C   UNL     1      43.273 -10.864   6.379  1.00  0.00     0.094 A 
HETATM   18  S   UNL     1      44.510 -11.468   7.360  1.00  0.00    -0.076 SA
HETATM   19  C   UNL     1      44.303 -10.244   8.524  1.00  0.00    -0.012 A 
HETATM   20  C   UNL     1      45.194 -10.225   9.727  1.00  0.00     0.057 C 
HETATM   21  C   UNL     1      43.286  -9.363   8.184  1.00  0.00    -0.030 A 
HETATM   22  C   UNL     1      42.907  -8.170   9.010  1.00  0.00     0.050 C 
HETATM   23  C   UNL     1      42.648  -9.750   6.930  1.00  0.00     0.080 A 
BRANCH  23  24
HETATM   24  C   UNL     1      41.520  -9.105   6.243  1.00  0.00     0.296 C 
HETATM   25  O   UNL     1      41.595  -7.957   5.808  1.00  0.00    -0.259 OA
BRANCH  24  26
HETATM   26  O   UNL     1      40.416  -9.892   6.135  1.00  0.00    -0.322 OA
HETATM   27  C   UNL     1      39.544  -9.861   7.266  1.00  0.00     0.213 C 
ENDBRANCH  24  26
ENDBRANCH  23  24
ENDBRANCH  14  17
ENDBRANCH  12  13
ENDBRANCH   2  12
BRANCH   1  28
HETATM   28  C   UNL     1      41.689 -15.049   2.671  1.00  0.00    -0.027 A 
HETATM   29  C   UNL     1      41.472 -15.644   3.922  1.00  0.00     0.011 A 
HETATM   30  C   UNL     1      42.116 -16.837   4.275  1.00  0.00     0.030 A 
HETATM   31  C   UNL     1      43.011 -17.476   3.409  1.00  0.00     0.030 A 
HETATM   32  C   UNL     1      43.250 -16.847   2.178  1.00  0.00     0.030 A 
HETATM   33  C   UNL     1      42.605 -15.658   1.808  1.00  0.00     0.011 A 
BRANCH  31  34
HETATM   34  N   UNL     1      43.603 -18.701   3.705  1.00  0.00    -0.382 N 
BRANCH  34  35
HETATM   35  C   UNL     1      44.094 -18.999   5.061  1.00  0.00     0.118 C 
HETATM   36  C   UNL     1      44.239 -20.499   5.282  1.00  0.00     0.026 C 
ENDBRANCH  34  35
BRANCH  34  37
HETATM   37  C   UNL     1      44.257 -19.432   2.607  1.00  0.00     0.118 C 
HETATM   38  C   UNL     1      43.269 -20.323   1.867  1.00  0.00     0.026 C 
ENDBRANCH  34  37
ENDBRANCH  31  34
ENDBRANCH   1  28
BRANCH   6  39
HETATM   39  O   UNL     1      38.480 -12.546   1.372  1.00  0.00    -0.389 OA
HETATM   40  H   UNL     1      37.962 -13.221   0.892  1.00  0.00     0.210 HD
ENDBRANCH   6  39
TORSDOF 10
ENDMDL
MODEL 5
REMARK VINA RESULT:      -8.0      1.852      2.894
REMARK  10 active torsions:
REMARK  status: ('A' for Active; 'I' for Inactive)
REMARK    1  A    between atoms: C_2  and  N_3 
REMARK    2  A    between atoms: N_3  and  C_4 
REMARK    3  A    between atoms: N_3  and  C_37 
REMARK    4  A    between atoms: C_7  and  C_8 
REMARK    5  A    between atoms: N_9  and  C_11 
REMARK    6  A    between atoms: C_11  and  C_12 
REMARK       I    between atoms: C_12  and  N_13 
REMARK    7  A    between atoms: N_13  and  C_14 
REMARK    8  A    between atoms: C_20  and  C_21 
REMARK    9  A    between atoms: C_21  and  O_22 
REMARK   10  A    between atoms: C_28  and  O_29 
ROOT
HETATM    1  C   UNL     1      42.783 -15.706   3.719  1.00  0.00     0.228 C 
HETATM    2  N   UNL     1      42.434 -15.047   5.055  1.00  0.00    -0.054 N 
HETATM    3  H   UNL     1      42.803 -14.100   4.919  1.00  0.00     0.281 HD
HETATM    4  C   UNL     1      43.245 -15.569   6.213  1.00  0.00     0.239 C 
HETATM    5  C   UNL     1      43.329 -17.085   6.293  1.00  0.00     0.066 C 
HETATM    6  C   UNL     1      43.682 -17.728   4.953  1.00  0.00     0.065 C 
HETATM    7  C   UNL     1      42.754 -17.247   3.813  1.00  0.00     0.055 C 
HETATM    8  C   UNL     1      43.649 -19.264   5.064  1.00  0.00     0.038 C 
HETATM    9  C   UNL     1      44.011 -19.947   3.744  1.00  0.00     0.003 C 
HETATM   10  C   UNL     1      43.150 -19.441   2.594  1.00  0.00     0.001 C 
HETATM   11  C   UNL     1      43.180 -17.918   2.484  1.00  0.00     0.010 C 
ENDROOT
BRANCH   2  12
HETATM   12  C   UNL     1      40.956 -14.750   5.366  1.00  0.00     0.338 C 
BRANCH  12  13
HETATM   13  C   UNL     1      40.566 -13.322   5.751  1.00  0.00     0.248 C 
HETATM   14  N   UNL     1      41.442 -12.370   5.259  1.00  0.00    -0.319 N 
HETATM   15  H   UNL     1      42.319 -12.667   4.826  1.00  0.00     0.169 HD
HETATM   16  O   UNL     1      39.594 -13.115   6.466  1.00  0.00    -0.271 OA
BRANCH  14  17
HETATM   17  C   UNL     1      41.350 -10.991   5.436  1.00  0.00     0.094 A 
HETATM   18  S   UNL     1      41.994 -10.238   6.806  1.00  0.00    -0.076 SA
HETATM   19  C   UNL     1      41.505  -8.691   6.292  1.00  0.00    -0.012 A 
HETATM   20  C   UNL     1      41.831  -7.504   7.144  1.00  0.00     0.057 C 
HETATM   21  C   UNL     1      40.841  -8.729   5.073  1.00  0.00    -0.030 A 
HETATM   22  C   UNL     1      40.328  -7.509   4.367  1.00  0.00     0.050 C 
HETATM   23  C   UNL     1      40.715 -10.097   4.582  1.00  0.00     0.080 A 
BRANCH  23  24
HETATM   24  C   UNL     1      40.057 -10.567   3.354  1.00  0.00     0.296 C 
HETATM   25  O   UNL     1      40.548 -10.379   2.241  1.00  0.00    -0.259 OA
BRANCH  24  26
HETATM   26  O   UNL     1      38.886 -11.223   3.572  1.00  0.00    -0.322 OA
HETATM   27  C   UNL     1      38.587 -12.247   2.623  1.00  0.00     0.213 C 
ENDBRANCH  24  26
ENDBRANCH  23  24
ENDBRANCH  14  17
ENDBRANCH  12  13
ENDBRANCH   2  12
BRANCH   1  28
HETATM   28  C   UNL     1      42.033 -15.064   2.563  1.00  0.00    -0.027 A 
HETATM   29  C   UNL     1      42.447 -13.809   2.096  1.00  0.00     0.011 A 
HETATM   30  C   UNL     1      41.818 -13.203   1.001  1.00  0.00     0.030 A 
HETATM   31  C   UNL     1      40.745 -13.810   0.338  1.00  0.00     0.030 A 
HETATM   32  C   UNL     1      40.315 -15.046   0.843  1.00  0.00     0.030 A 
HETATM   33  C   UNL     1      40.942 -15.669   1.932  1.00  0.00     0.011 A 
BRANCH  31  34
HETATM   34  N   UNL     1      40.155 -13.265  -0.799  1.00  0.00    -0.382 N 
BRANCH  34  35
HETATM   35  C   UNL     1      39.270 -14.071  -1.656  1.00  0.00     0.118 C 
HETATM   36  C   UNL     1      37.971 -13.337  -1.961  1.00  0.00     0.026 C 
ENDBRANCH  34  35
BRANCH  34  37
HETATM   37  C   UNL     1      40.839 -12.139  -1.456  1.00  0.00     0.118 C 
HETATM   38  C   UNL     1      41.259 -12.496  -2.876  1.00  0.00     0.026 C 
ENDBRANCH  34  37
ENDBRANCH  31  34
ENDBRANCH   1  28
BRANCH   6  39
HETATM   39  O   UNL     1      45.018 -17.298   4.648  1.00  0.00    -0.389 OA
HETATM   40  H   UNL     1      45.031 -16.323   4.588  1.00  0.00     0.210 HD
ENDBRANCH   6  39
TORSDOF 10
ENDMDL
MODEL 6
REMARK VINA RESULT:      -7.8      2.457      6.428
REMARK  10 active torsions:
REMARK  status: ('A' for Active; 'I' for Inactive)
REMARK    1  A    between atoms: C_2  and  N_3 
REMARK    2  A    between atoms: N_3  and  C_4 
REMARK    3  A    between atoms: N_3  and  C_37 
REMARK    4  A    between atoms: C_7  and  C_8 
REMARK    5  A    between atoms: N_9  and  C_11 
REMARK    6  A    between atoms: C_11  and  C_12 
REMARK       I    between atoms: C_12  and  N_13 
REMARK    7  A    between atoms: N_13  and  C_14 
REMARK    8  A    between atoms: C_20  and  C_21 
REMARK    9  A    between atoms: C_21  and  O_22 
REMARK   10  A    between atoms: C_28  and  O_29 
ROOT
HETATM    1  C   UNL     1      40.028 -13.562   1.388  1.00  0.00     0.228 C 
HETATM    2  N   UNL     1      40.039 -12.394   2.376  1.00  0.00    -0.054 N 
HETATM    3  H   UNL     1      39.597 -12.817   3.199  1.00  0.00     0.281 HD
HETATM    4  C   UNL     1      39.087 -11.285   2.008  1.00  0.00     0.239 C 
HETATM    5  C   UNL     1      39.162 -10.845   0.554  1.00  0.00     0.066 C 
HETATM    6  C   UNL     1      39.146 -12.021  -0.420  1.00  0.00     0.065 C 
HETATM    7  C   UNL     1      40.213 -13.084  -0.069  1.00  0.00     0.055 C 
HETATM    8  C   UNL     1      39.330 -11.529  -1.868  1.00  0.00     0.038 C 
HETATM    9  C   UNL     1      39.306 -12.677  -2.877  1.00  0.00     0.003 C 
HETATM   10  C   UNL     1      40.307 -13.767  -2.515  1.00  0.00     0.001 C 
HETATM   11  C   UNL     1      40.125 -14.255  -1.078  1.00  0.00     0.010 C 
ENDROOT
BRANCH   2  12
HETATM   12  C   UNL     1      41.389 -11.938   2.961  1.00  0.00     0.338 C 
BRANCH  12  13
HETATM   13  C   UNL     1      41.536 -11.873   4.482  1.00  0.00     0.248 C 
HETATM   14  N   UNL     1      41.810 -10.598   4.946  1.00  0.00    -0.319 N 
HETATM   15  H   UNL     1      42.033  -9.856   4.280  1.00  0.00     0.169 HD
HETATM   16  O   UNL     1      41.457 -12.891   5.158  1.00  0.00    -0.271 OA
BRANCH  14  17
HETATM   17  C   UNL     1      41.991 -10.223   6.276  1.00  0.00     0.094 A 
HETATM   18  S   UNL     1      43.500 -10.354   7.027  1.00  0.00    -0.076 SA
HETATM   19  C   UNL     1      42.915  -9.743   8.503  1.00  0.00    -0.012 A 
HETATM   20  C   UNL     1      43.861  -9.588   9.653  1.00  0.00     0.057 C 
HETATM   21  C   UNL     1      41.562  -9.436   8.445  1.00  0.00    -0.030 A 
HETATM   22  C   UNL     1      40.792  -8.851   9.592  1.00  0.00     0.050 C 
HETATM   23  C   UNL     1      41.004  -9.755   7.136  1.00  0.00     0.080 A 
BRANCH  23  24
HETATM   24  C   UNL     1      39.614  -9.611   6.678  1.00  0.00     0.296 C 
HETATM   25  O   UNL     1      38.693 -10.246   7.190  1.00  0.00    -0.259 OA
BRANCH  24  26
HETATM   26  O   UNL     1      39.457  -8.721   5.662  1.00  0.00    -0.322 OA
HETATM   27  C   UNL     1      38.313  -8.947   4.839  1.00  0.00     0.213 C 
ENDBRANCH  24  26
ENDBRANCH  23  24
ENDBRANCH  14  17
ENDBRANCH  12  13
ENDBRANCH   2  12
BRANCH   1  28
HETATM   28  C   UNL     1      40.906 -14.708   1.863  1.00  0.00    -0.027 A 
HETATM   29  C   UNL     1      42.228 -14.788   1.404  1.00  0.00     0.011 A 
HETATM   30  C   UNL     1      43.088 -15.797   1.854  1.00  0.00     0.030 A 
HETATM   31  C   UNL     1      42.666 -16.775   2.762  1.00  0.00     0.030 A 
HETATM   32  C   UNL     1      41.329 -16.707   3.180  1.00  0.00     0.030 A 
HETATM   33  C   UNL     1      40.460 -15.696   2.746  1.00  0.00     0.011 A 
BRANCH  31  34
HETATM   34  N   UNL     1      43.523 -17.741   3.283  1.00  0.00    -0.382 N 
BRANCH  34  35
HETATM   35  C   UNL     1      43.925 -18.911   2.483  1.00  0.00     0.118 C 
HETATM   36  C   UNL     1      43.692 -20.210   3.244  1.00  0.00     0.026 C 
ENDBRANCH  34  35
BRANCH  34  37
HETATM   37  C   UNL     1      43.553 -17.918   4.744  1.00  0.00     0.118 C 
HETATM   38  C   UNL     1      44.311 -16.786   5.425  1.00  0.00     0.026 C 
ENDBRANCH  34  37
ENDBRANCH  31  34
ENDBRANCH   1  28
BRANCH   6  39
HETATM   39  O   UNL     1      37.852 -12.630  -0.283  1.00  0.00    -0.389 OA
HETATM   40  H   UNL     1      37.942 -13.452   0.238  1.00  0.00     0.210 HD
ENDBRANCH   6  39
TORSDOF 10
ENDMDL
MODEL 7
REMARK VINA RESULT:      -7.2      3.313      7.707
REMARK  10 active torsions:
REMARK  status: ('A' for Active; 'I' for Inactive)
REMARK    1  A    between atoms: C_2  and  N_3 
REMARK    2  A    between atoms: N_3  and  C_4 
REMARK    3  A    between atoms: N_3  and  C_37 
REMARK    4  A    between atoms: C_7  and  C_8 
REMARK    5  A    between atoms: N_9  and  C_11 
REMARK    6  A    between atoms: C_11  and  C_12 
REMARK       I    between atoms: C_12  and  N_13 
REMARK    7  A    between atoms: N_13  and  C_14 
REMARK    8  A    between atoms: C_20  and  C_21 
REMARK    9  A    between atoms: C_21  and  O_22 
REMARK   10  A    between atoms: C_28  and  O_29 
ROOT
HETATM    1  C   UNL     1      41.904 -13.765   4.651  1.00  0.00     0.228 C 
HETATM    2  N   UNL     1      41.327 -13.138   3.380  1.00  0.00    -0.054 N 
HETATM    3  H   UNL     1      40.530 -12.614   3.753  1.00  0.00     0.281 HD
HETATM    4  C   UNL     1      40.680 -14.137   2.457  1.00  0.00     0.239 C 
HETATM    5  C   UNL     1      41.510 -15.383   2.191  1.00  0.00     0.066 C 
HETATM    6  C   UNL     1      42.075 -16.000   3.469  1.00  0.00     0.065 C 
HETATM    7  C   UNL     1      42.827 -14.961   4.334  1.00  0.00     0.055 C 
HETATM    8  C   UNL     1      42.993 -17.191   3.137  1.00  0.00     0.038 C 
HETATM    9  C   UNL     1      43.569 -17.846   4.393  1.00  0.00     0.003 C 
HETATM   10  C   UNL     1      44.261 -16.829   5.291  1.00  0.00     0.001 C 
HETATM   11  C   UNL     1      43.352 -15.645   5.621  1.00  0.00     0.010 C 
ENDROOT
BRANCH   2  12
HETATM   12  C   UNL     1      42.124 -12.018   2.685  1.00  0.00     0.338 C 
BRANCH  12  13
HETATM   13  C   UNL     1      41.386 -11.100   1.710  1.00  0.00     0.248 C 
HETATM   14  N   UNL     1      41.527 -11.488   0.388  1.00  0.00    -0.319 N 
HETATM   15  H   UNL     1      42.194 -12.224   0.148  1.00  0.00     0.169 HD
HETATM   16  O   UNL     1      40.790 -10.111   2.117  1.00  0.00    -0.271 OA
BRANCH  14  17
HETATM   17  C   UNL     1      40.970 -10.858  -0.723  1.00  0.00     0.094 A 
HETATM   18  S   UNL     1      41.762  -9.580  -1.495  1.00  0.00    -0.076 SA
HETATM   19  C   UNL     1      40.526  -9.397  -2.650  1.00  0.00    -0.012 A 
HETATM   20  C   UNL     1      40.668  -8.349  -3.709  1.00  0.00     0.057 C 
HETATM   21  C   UNL     1      39.492 -10.304  -2.460  1.00  0.00    -0.030 A 
HETATM   22  C   UNL     1      38.287 -10.392  -3.350  1.00  0.00     0.050 C 
HETATM   23  C   UNL     1      39.736 -11.147  -1.294  1.00  0.00     0.080 A 
BRANCH  23  24
HETATM   24  C   UNL     1      38.878 -12.202  -0.736  1.00  0.00     0.296 C 
HETATM   25  O   UNL     1      37.759 -11.958  -0.284  1.00  0.00    -0.259 OA
BRANCH  24  26
HETATM   26  O   UNL     1      39.430 -13.443  -0.779  1.00  0.00    -0.322 OA
HETATM   27  C   UNL     1      39.250 -14.137  -2.014  1.00  0.00     0.213 C 
ENDBRANCH  24  26
ENDBRANCH  23  24
ENDBRANCH  14  17
ENDBRANCH  12  13
ENDBRANCH   2  12
BRANCH   1  28
HETATM   28  C   UNL     1      42.434 -12.709   5.607  1.00  0.00    -0.027 A 
HETATM   29  C   UNL     1      43.785 -12.744   5.978  1.00  0.00     0.011 A 
HETATM   30  C   UNL     1      44.329 -11.763   6.816  1.00  0.00     0.030 A 
HETATM   31  C   UNL     1      43.551 -10.720   7.332  1.00  0.00     0.030 A 
HETATM   32  C   UNL     1      42.191 -10.721   6.986  1.00  0.00     0.030 A 
HETATM   33  C   UNL     1      41.636 -11.692   6.140  1.00  0.00     0.011 A 
BRANCH  31  34
HETATM   34  N   UNL     1      44.084  -9.690   8.103  1.00  0.00    -0.382 N 
BRANCH  34  35
HETATM   35  C   UNL     1      45.453  -9.774   8.640  1.00  0.00     0.118 C 
HETATM   36  C   UNL     1      45.447 -10.036  10.140  1.00  0.00     0.026 C 
ENDBRANCH  34  35
BRANCH  34  37
HETATM   37  C   UNL     1      43.148  -8.838   8.855  1.00  0.00     0.118 C 
HETATM   38  C   UNL     1      43.135  -7.415   8.314  1.00  0.00     0.026 C 
ENDBRANCH  34  37
ENDBRANCH  31  34
ENDBRANCH   1  28
BRANCH   6  39
HETATM   39  O   UNL     1      40.941 -16.463   4.219  1.00  0.00    -0.389 OA
HETATM   40  H   UNL     1      40.125 -16.142   3.789  1.00  0.00     0.210 HD
ENDBRANCH   6  39
TORSDOF 10
ENDMDL
MODEL 8
REMARK VINA RESULT:      -7.0      2.629      6.515
REMARK  10 active torsions:
REMARK  status: ('A' for Active; 'I' for Inactive)
REMARK    1  A    between atoms: C_2  and  N_3 
REMARK    2  A    between atoms: N_3  and  C_4 
REMARK    3  A    between atoms: N_3  and  C_37 
REMARK    4  A    between atoms: C_7  and  C_8 
REMARK    5  A    between atoms: N_9  and  C_11 
REMARK    6  A    between atoms: C_11  and  C_12 
REMARK       I    between atoms: C_12  and  N_13 
REMARK    7  A    between atoms: N_13  and  C_14 
REMARK    8  A    between atoms: C_20  and  C_21 
REMARK    9  A    between atoms: C_21  and  O_22 
REMARK   10  A    between atoms: C_28  and  O_29 
ROOT
HETATM    1  C   UNL     1      39.629 -13.459   1.193  1.00  0.00     0.228 C 
HETATM    2  N   UNL     1      39.368 -12.302   2.159  1.00  0.00    -0.054 N 
HETATM    3  H   UNL     1      38.853 -12.773   2.910  1.00  0.00     0.281 HD
HETATM    4  C   UNL     1      38.374 -11.296   1.639  1.00  0.00     0.239 C 
HETATM    5  C   UNL     1      38.622 -10.843   0.209  1.00  0.00     0.066 C 
HETATM    6  C   UNL     1      38.876 -12.009  -0.744  1.00  0.00     0.065 C 
HETATM    7  C   UNL     1      39.982 -12.957  -0.224  1.00  0.00     0.055 C 
HETATM    8  C   UNL     1      39.227 -11.492  -2.153  1.00  0.00     0.038 C 
HETATM    9  C   UNL     1      39.475 -12.632  -3.141  1.00  0.00     0.003 C 
HETATM   10  C   UNL     1      40.517 -13.613  -2.621  1.00  0.00     0.001 C 
HETATM   11  C   UNL     1      40.171 -14.125  -1.223  1.00  0.00     0.010 C 
ENDROOT
BRANCH   2  12
HETATM   12  C   UNL     1      40.559 -11.711   2.937  1.00  0.00     0.338 C 
BRANCH  12  13
HETATM   13  C   UNL     1      40.301 -10.527   3.870  1.00  0.00     0.248 C 
HETATM   14  N   UNL     1      41.346  -9.620   3.895  1.00  0.00    -0.319 N 
HETATM   15  H   UNL     1      42.230  -9.856   3.439  1.00  0.00     0.169 HD
HETATM   16  O   UNL     1      39.275 -10.472   4.535  1.00  0.00    -0.271 OA
BRANCH  14  17
HETATM   17  C   UNL     1      41.403  -8.444   4.640  1.00  0.00     0.094 A 
HETATM   18  S   UNL     1      41.100  -6.940   3.929  1.00  0.00    -0.076 SA
HETATM   19  C   UNL     1      41.348  -6.102   5.390  1.00  0.00    -0.012 A 
HETATM   20  C   UNL     1      41.191  -4.614   5.411  1.00  0.00     0.057 C 
HETATM   21  C   UNL     1      41.669  -6.956   6.436  1.00  0.00    -0.030 A 
HETATM   22  C   UNL     1      41.907  -6.494   7.843  1.00  0.00     0.050 C 
HETATM   23  C   UNL     1      41.739  -8.342   5.985  1.00  0.00     0.080 A 
BRANCH  23  24
HETATM   24  C   UNL     1      42.076  -9.540   6.768  1.00  0.00     0.296 C 
HETATM   25  O   UNL     1      42.926 -10.344   6.390  1.00  0.00    -0.259 OA
BRANCH  24  26
HETATM   26  O   UNL     1      41.376  -9.657   7.927  1.00  0.00    -0.322 OA
HETATM   27  C   UNL     1      39.970  -9.843   7.762  1.00  0.00     0.213 C 
ENDBRANCH  24  26
ENDBRANCH  23  24
ENDBRANCH  14  17
ENDBRANCH  12  13
ENDBRANCH   2  12
BRANCH   1  28
HETATM   28  C   UNL     1      40.538 -14.510   1.807  1.00  0.00    -0.027 A 
HETATM   29  C   UNL     1      41.890 -14.540   1.437  1.00  0.00     0.011 A 
HETATM   30  C   UNL     1      42.776 -15.458   2.015  1.00  0.00     0.030 A 
HETATM   31  C   UNL     1      42.353 -16.391   2.968  1.00  0.00     0.030 A 
HETATM   32  C   UNL     1      40.989 -16.377   3.298  1.00  0.00     0.030 A 
HETATM   33  C   UNL     1      40.094 -15.457   2.734  1.00  0.00     0.011 A 
BRANCH  31  34
HETATM   34  N   UNL     1      43.228 -17.261   3.614  1.00  0.00    -0.382 N 
BRANCH  34  35
HETATM   35  C   UNL     1      43.840 -16.904   4.904  1.00  0.00     0.118 C 
HETATM   36  C   UNL     1      43.194 -17.664   6.055  1.00  0.00     0.026 C 
ENDBRANCH  34  35
BRANCH  34  37
HETATM   37  C   UNL     1      43.981 -18.218   2.786  1.00  0.00     0.118 C 
HETATM   38  C   UNL     1      43.074 -19.311   2.237  1.00  0.00     0.026 C 
ENDBRANCH  34  37
ENDBRANCH  31  34
ENDBRANCH   1  28
BRANCH   6  39
HETATM   39  O   UNL     1      37.647 -12.750  -0.799  1.00  0.00    -0.389 OA
HETATM   40  H   UNL     1      36.898 -12.123  -0.765  1.00  0.00     0.210 HD
ENDBRANCH   6  39
TORSDOF 10
ENDMDL
MODEL 9
REMARK VINA RESULT:      -7.0     16.306     20.384
REMARK  10 active torsions:
REMARK  status: ('A' for Active; 'I' for Inactive)
REMARK    1  A    between atoms: C_2  and  N_3 
REMARK    2  A    between atoms: N_3  and  C_4 
REMARK    3  A    between atoms: N_3  and  C_37 
REMARK    4  A    between atoms: C_7  and  C_8 
REMARK    5  A    between atoms: N_9  and  C_11 
REMARK    6  A    between atoms: C_11  and  C_12 
REMARK       I    between atoms: C_12  and  N_13 
REMARK    7  A    between atoms: N_13  and  C_14 
REMARK    8  A    between atoms: C_20  and  C_21 
REMARK    9  A    between atoms: C_21  and  O_22 
REMARK   10  A    between atoms: C_28  and  O_29 
ROOT
HETATM    1  C   UNL     1      49.319 -30.244  -0.215  1.00  0.00     0.228 C 
HETATM    2  N   UNL     1      48.047 -30.667  -0.952  1.00  0.00    -0.054 N 
HETATM    3  H   UNL     1      48.210 -30.272  -1.885  1.00  0.00     0.281 HD
HETATM    4  C   UNL     1      46.812 -29.943  -0.484  1.00  0.00     0.239 C 
HETATM    5  C   UNL     1      46.643 -29.893   1.027  1.00  0.00     0.066 C 
HETATM    6  C   UNL     1      47.919 -29.466   1.749  1.00  0.00     0.065 C 
HETATM    7  C   UNL     1      49.143 -30.308   1.318  1.00  0.00     0.055 C 
HETATM    8  C   UNL     1      47.728 -29.534   3.276  1.00  0.00     0.038 C 
HETATM    9  C   UNL     1      48.981 -29.099   4.036  1.00  0.00     0.003 C 
HETATM   10  C   UNL     1      50.212 -29.873   3.582  1.00  0.00     0.001 C 
HETATM   11  C   UNL     1      50.403 -29.808   2.068  1.00  0.00     0.010 C 
ENDROOT
BRANCH   2  12
HETATM   12  C   UNL     1      47.852 -32.157  -1.288  1.00  0.00     0.338 C 
BRANCH  12  13
HETATM   13  C   UNL     1      47.009 -32.522  -2.510  1.00  0.00     0.248 C 
HETATM   14  N   UNL     1      47.277 -31.727  -3.611  1.00  0.00    -0.319 N 
HETATM   15  H   UNL     1      47.870 -30.902  -3.504  1.00  0.00     0.169 HD
HETATM   16  O   UNL     1      46.165 -33.407  -2.441  1.00  0.00    -0.271 OA
BRANCH  14  17
HETATM   17  C   UNL     1      46.677 -31.821  -4.865  1.00  0.00     0.094 A 
HETATM   18  S   UNL     1      47.366 -32.748  -6.100  1.00  0.00    -0.076 SA
HETATM   19  C   UNL     1      46.124 -32.366  -7.198  1.00  0.00    -0.012 A 
HETATM   20  C   UNL     1      46.165 -32.951  -8.575  1.00  0.00     0.057 C 
HETATM   21  C   UNL     1      45.172 -31.523  -6.641  1.00  0.00    -0.030 A 
HETATM   22  C   UNL     1      43.950 -31.050  -7.372  1.00  0.00     0.050 C 
HETATM   23  C   UNL     1      45.517 -31.169  -5.269  1.00  0.00     0.080 A 
BRANCH  23  24
HETATM   24  C   UNL     1      44.794 -30.281  -4.346  1.00  0.00     0.296 C 
HETATM   25  O   UNL     1      44.127 -30.722  -3.410  1.00  0.00    -0.259 OA
BRANCH  24  26
HETATM   26  O   UNL     1      44.941 -28.959  -4.623  1.00  0.00    -0.322 OA
HETATM   27  C   UNL     1      45.120 -28.123  -3.479  1.00  0.00     0.213 C 
ENDBRANCH  24  26
ENDBRANCH  23  24
ENDBRANCH  14  17
ENDBRANCH  12  13
ENDBRANCH   2  12
BRANCH   1  28
HETATM   28  C   UNL     1      50.555 -30.904  -0.802  1.00  0.00    -0.027 A 
HETATM   29  C   UNL     1      51.179 -31.939  -0.090  1.00  0.00     0.011 A 
HETATM   30  C   UNL     1      52.289 -32.610  -0.616  1.00  0.00     0.030 A 
HETATM   31  C   UNL     1      52.835 -32.271  -1.859  1.00  0.00     0.030 A 
HETATM   32  C   UNL     1      52.227 -31.207  -2.542  1.00  0.00     0.030 A 
HETATM   33  C   UNL     1      51.108 -30.533  -2.032  1.00  0.00     0.011 A 
BRANCH  31  34
HETATM   34  N   UNL     1      53.889 -32.973  -2.438  1.00  0.00    -0.382 N 
BRANCH  34  35
HETATM   35  C   UNL     1      55.200 -33.059  -1.773  1.00  0.00     0.118 C 
HETATM   36  C   UNL     1      55.430 -34.440  -1.173  1.00  0.00     0.026 C 
ENDBRANCH  34  35
BRANCH  34  37
HETATM   37  C   UNL     1      53.899 -33.115  -3.903  1.00  0.00     0.118 C 
HETATM   38  C   UNL     1      55.238 -32.693  -4.493  1.00  0.00     0.026 C 
ENDBRANCH  34  37
ENDBRANCH  31  34
ENDBRANCH   1  28
BRANCH   6  39
HETATM   39  O   UNL     1      48.158 -28.104   1.357  1.00  0.00    -0.389 OA
HETATM   40  H   UNL     1      48.243 -28.065   0.384  1.00  0.00     0.210 HD
ENDBRANCH   6  39
TORSDOF 10
ENDMDL
MODEL 10
REMARK VINA RESULT:      -6.9      2.997      4.264
REMARK  10 active torsions:
REMARK  status: ('A' for Active; 'I' for Inactive)
REMARK    1  A    between atoms: C_2  and  N_3 
REMARK    2  A    between atoms: N_3  and  C_4 
REMARK    3  A    between atoms: N_3  and  C_37 
REMARK    4  A    between atoms: C_7  and  C_8 
REMARK    5  A    between atoms: N_9  and  C_11 
REMARK    6  A    between atoms: C_11  and  C_12 
REMARK       I    between atoms: C_12  and  N_13 
REMARK    7  A    between atoms: N_13  and  C_14 
REMARK    8  A    between atoms: C_20  and  C_21 
REMARK    9  A    between atoms: C_21  and  O_22 
REMARK   10  A    between atoms: C_28  and  O_29 
ROOT
HETATM    1  C   UNL     1      42.223 -13.159   3.972  1.00  0.00     0.228 C 
HETATM    2  N   UNL     1      42.909 -11.903   4.514  1.00  0.00    -0.054 N 
HETATM    3  H   UNL     1      43.459 -11.603   3.702  1.00  0.00     0.281 HD
HETATM    4  C   UNL     1      43.960 -12.193   5.553  1.00  0.00     0.239 C 
HETATM    5  C   UNL     1      43.522 -13.158   6.644  1.00  0.00     0.066 C 
HETATM    6  C   UNL     1      42.843 -14.408   6.087  1.00  0.00     0.065 C 
HETATM    7  C   UNL     1      41.697 -14.063   5.108  1.00  0.00     0.055 C 
HETATM    8  C   UNL     1      42.324 -15.299   7.232  1.00  0.00     0.038 C 
HETATM    9  C   UNL     1      41.649 -16.570   6.715  1.00  0.00     0.003 C 
HETATM   10  C   UNL     1      40.557 -16.255   5.701  1.00  0.00     0.001 C 
HETATM   11  C   UNL     1      41.070 -15.371   4.566  1.00  0.00     0.010 C 
ENDROOT
BRANCH   2  12
HETATM   12  C   UNL     1      42.051 -10.651   4.774  1.00  0.00     0.338 C 
BRANCH  12  13
HETATM   13  C   UNL     1      41.559 -10.390   6.198  1.00  0.00     0.248 C 
HETATM   14  N   UNL     1      42.375  -9.523   6.904  1.00  0.00    -0.319 N 
HETATM   15  H   UNL     1      43.277  -9.247   6.510  1.00  0.00     0.169 HD
HETATM   16  O   UNL     1      40.563 -10.961   6.626  1.00  0.00    -0.271 OA
BRANCH  14  17
HETATM   17  C   UNL     1      42.186  -9.091   8.215  1.00  0.00     0.094 A 
HETATM   18  S   UNL     1      40.746  -8.344   8.693  1.00  0.00    -0.076 SA
HETATM   19  C   UNL     1      41.280  -8.147  10.297  1.00  0.00    -0.012 A 
HETATM   20  C   UNL     1      40.365  -7.510  11.295  1.00  0.00     0.057 C 
HETATM   21  C   UNL     1      42.562  -8.643  10.488  1.00  0.00    -0.030 A 
HETATM   22  C   UNL     1      43.270  -8.632  11.810  1.00  0.00     0.050 C 
HETATM   23  C   UNL     1      43.116  -9.170   9.245  1.00  0.00     0.080 A 
BRANCH  23  24
HETATM   24  C   UNL     1      44.446  -9.752   9.014  1.00  0.00     0.296 C 
HETATM   25  O   UNL     1      44.839 -10.739   9.634  1.00  0.00    -0.259 OA
BRANCH  24  26
HETATM   26  O   UNL     1      45.173  -9.108   8.063  1.00  0.00    -0.322 OA
HETATM   27  C   UNL     1      46.551  -9.476   8.010  1.00  0.00     0.213 C 
ENDBRANCH  24  26
ENDBRANCH  23  24
ENDBRANCH  14  17
ENDBRANCH  12  13
ENDBRANCH   2  12
BRANCH   1  28
HETATM   28  C   UNL     1      41.263 -12.831   2.841  1.00  0.00    -0.027 A 
HETATM   29  C   UNL     1      41.760 -12.724   1.534  1.00  0.00     0.011 A 
HETATM   30  C   UNL     1      40.904 -12.474   0.454  1.00  0.00     0.030 A 
HETATM   31  C   UNL     1      39.526 -12.303   0.630  1.00  0.00     0.030 A 
HETATM   32  C   UNL     1      39.048 -12.371   1.947  1.00  0.00     0.030 A 
HETATM   33  C   UNL     1      39.892 -12.631   3.036  1.00  0.00     0.011 A 
BRANCH  31  34
HETATM   34  N   UNL     1      38.645 -12.131  -0.435  1.00  0.00    -0.382 N 
BRANCH  34  35
HETATM   35  C   UNL     1      37.466 -11.258  -0.312  1.00  0.00     0.118 C 
HETATM   36  C   UNL     1      37.853  -9.787  -0.403  1.00  0.00     0.026 C 
ENDBRANCH  34  35
BRANCH  34  37
HETATM   37  C   UNL     1      38.544 -13.216  -1.425  1.00  0.00     0.118 C 
HETATM   38  C   UNL     1      37.391 -12.979  -2.392  1.00  0.00     0.026 C 
ENDBRANCH  34  37
ENDBRANCH  31  34
ENDBRANCH   1  28
BRANCH   6  39
HETATM   39  O   UNL     1      43.855 -15.114   5.353  1.00  0.00    -0.389 OA
HETATM   40  H   UNL     1      43.644 -15.070   4.400  1.00  0.00     0.210 HD
ENDBRANCH   6  39
TORSDOF 10
ENDMDL
