MODEL 1
REMARK VINA RESULT:      -8.7      0.000      0.000
REMARK  8 active torsions:
REMARK  status: ('A' for Active; 'I' for Inactive)
REMARK    1  A    between atoms: C_7  and  C_8 
REMARK    2  A    between atoms: C_8  and  O_9 
REMARK    3  A    between atoms: O_9  and  C_10 
REMARK    4  A    between atoms: C_13  and  C_14 
REMARK       I    between atoms: C_14  and  N_15 
REMARK    5  A    between atoms: N_15  and  C_16 
REMARK    6  A    between atoms: C_16  and  C_17 
REMARK    7  A    between atoms: C_18  and  C_19 
REMARK    8  A    between atoms: C_19  and  N_20 
ROOT
HETATM    1  C   UNL     1      41.324 -12.508   5.694  1.00  0.00     0.251 C 
HETATM    2  N   UNL     1      42.400 -11.652   5.820  1.00  0.00    -0.353 N 
HETATM    3  O   UNL     1      40.277 -12.362   6.314  1.00  0.00    -0.268 OA
HETATM    4  H   UNL     1      43.160 -11.717   5.158  1.00  0.00     0.163 HD
ENDROOT
BRANCH   1   5
HETATM    5  C   UNL     1      41.484 -13.651   4.758  1.00  0.00     0.032 A 
HETATM    6  C   UNL     1      42.471 -13.656   3.767  1.00  0.00     0.020 A 
HETATM    7  C   UNL     1      42.643 -14.788   2.966  1.00  0.00     0.038 A 
HETATM    8  C   UNL     1      41.852 -15.923   3.159  1.00  0.00     0.069 A 
HETATM    9  C   UNL     1      40.848 -15.908   4.127  1.00  0.00     0.038 A 
HETATM   10  C   UNL     1      40.674 -14.778   4.934  1.00  0.00     0.020 A 
BRANCH   8  11
HETATM   11  O   UNL     1      42.151 -16.974   2.342  1.00  0.00    -0.347 OA
BRANCH  11  12
HETATM   12  C   UNL     1      43.525 -17.361   2.271  1.00  0.00     0.219 C 
BRANCH  12  13
HETATM   13  C   UNL     1      43.801 -18.439   3.254  1.00  0.00     0.024 A 
HETATM   14  C   UNL     1      43.796 -19.843   3.024  1.00  0.00     0.069 A 
HETATM   15  C   UNL     1      43.514 -20.565   1.761  1.00  0.00     0.073 C 
HETATM   16  N   UNL     1      44.090 -20.523   4.138  1.00  0.00    -0.133 NA
HETATM   17  O   UNL     1      44.281 -19.572   5.120  1.00  0.00    -0.217 OA
HETATM   18  C   UNL     1      44.105 -18.332   4.594  1.00  0.00     0.085 A 
HETATM   19  C   UNL     1      44.263 -17.198   5.523  1.00  0.00     0.079 C 
ENDBRANCH  12  13
ENDBRANCH  11  12
ENDBRANCH   8  11
ENDBRANCH   1   5
BRANCH   2  20
HETATM   20  C   UNL     1      42.384 -10.588   6.790  1.00  0.00     0.162 C 
BRANCH  20  21
HETATM   21  C   UNL     1      43.771 -10.252   7.287  1.00  0.00    -0.033 A 
HETATM   22  C   UNL     1      44.070  -9.217   8.203  1.00  0.00    -0.025 A 
HETATM   23  C   UNL     1      45.414  -9.014   8.584  1.00  0.00     0.009 A 
HETATM   24  C   UNL     1      46.439  -9.810   8.075  1.00  0.00     0.001 A 
HETATM   25  C   UNL     1      46.144 -10.827   7.178  1.00  0.00     0.001 A 
HETATM   26  C   UNL     1      44.824 -11.047   6.792  1.00  0.00     0.009 A 
BRANCH  22  27
HETATM   27  C   UNL     1      43.028  -8.305   8.801  1.00  0.00     0.274 C 
BRANCH  27  28
HETATM   28  N   UNL     1      42.374  -8.861  10.044  1.00  0.00    -0.067 N 
HETATM   29  H   UNL     1      41.422  -9.140   9.773  1.00  0.00     0.280 HD
HETATM   30  C   UNL     1      42.266  -7.841  11.158  1.00  0.00     0.235 C 
HETATM   31  C   UNL     1      43.344  -8.255  12.134  1.00  0.00     0.029 C 
HETATM   32  C   UNL     1      43.250  -9.766  12.103  1.00  0.00     0.029 C 
HETATM   33  C   UNL     1      43.055 -10.087  10.632  1.00  0.00     0.235 C 
ENDBRANCH  27  28
ENDBRANCH  22  27
ENDBRANCH  20  21
ENDBRANCH   2  20
TORSDOF 8
ENDMDL
MODEL 2
REMARK VINA RESULT:      -8.7      0.419      1.472
REMARK  8 active torsions:
REMARK  status: ('A' for Active; 'I' for Inactive)
REMARK    1  A    between atoms: C_7  and  C_8 
REMARK    2  A    between atoms: C_8  and  O_9 
REMARK    3  A    between atoms: O_9  and  C_10 
REMARK    4  A    between atoms: C_13  and  C_14 
REMARK       I    between atoms: C_14  and  N_15 
REMARK    5  A    between atoms: N_15  and  C_16 
REMARK    6  A    between atoms: C_16  and  C_17 
REMARK    7  A    between atoms: C_18  and  C_19 
REMARK    8  A    between atoms: C_19  and  N_20 
ROOT
HETATM    1  C   UNL     1      41.192 -12.401   5.784  1.00  0.00     0.251 C 
HETATM    2  N   UNL     1      42.239 -11.506   5.883  1.00  0.00    -0.353 N 
HETATM    3  O   UNL     1      40.157 -12.295   6.430  1.00  0.00    -0.268 OA
HETATM    4  H   UNL     1      42.984 -11.542   5.203  1.00  0.00     0.163 HD
ENDROOT
BRANCH   1   5
HETATM    5  C   UNL     1      41.371 -13.537   4.842  1.00  0.00     0.032 A 
HETATM    6  C   UNL     1      42.383 -13.539   3.876  1.00  0.00     0.020 A 
HETATM    7  C   UNL     1      42.570 -14.664   3.070  1.00  0.00     0.038 A 
HETATM    8  C   UNL     1      41.769 -15.797   3.233  1.00  0.00     0.069 A 
HETATM    9  C   UNL     1      40.741 -15.786   4.176  1.00  0.00     0.038 A 
HETATM   10  C   UNL     1      40.552 -14.662   4.988  1.00  0.00     0.020 A 
BRANCH   8  11
HETATM   11  O   UNL     1      42.085 -16.843   2.415  1.00  0.00    -0.347 OA
BRANCH  11  12
HETATM   12  C   UNL     1      43.466 -17.200   2.334  1.00  0.00     0.219 C 
BRANCH  12  13
HETATM   13  C   UNL     1      43.743 -18.361   3.217  1.00  0.00     0.024 A 
HETATM   14  C   UNL     1      44.077 -18.338   4.600  1.00  0.00     0.069 A 
HETATM   15  C   UNL     1      44.234 -17.160   5.486  1.00  0.00     0.073 C 
HETATM   16  N   UNL     1      44.259 -19.572   5.082  1.00  0.00    -0.133 NA
HETATM   17  O   UNL     1      44.057 -20.425   4.016  1.00  0.00    -0.217 OA
HETATM   18  C   UNL     1      43.753 -19.704   2.905  1.00  0.00     0.085 A 
HETATM   19  C   UNL     1      43.519 -20.473   1.669  1.00  0.00     0.079 C 
ENDBRANCH  12  13
ENDBRANCH  11  12
ENDBRANCH   8  11
ENDBRANCH   1   5
BRANCH   2  20
HETATM   20  C   UNL     1      42.207 -10.443   6.855  1.00  0.00     0.162 C 
BRANCH  20  21
HETATM   21  C   UNL     1      43.588 -10.100   7.364  1.00  0.00    -0.033 A 
HETATM   22  C   UNL     1      43.878  -9.035   8.248  1.00  0.00    -0.025 A 
HETATM   23  C   UNL     1      45.217  -8.828   8.647  1.00  0.00     0.009 A 
HETATM   24  C   UNL     1      46.245  -9.649   8.185  1.00  0.00     0.001 A 
HETATM   25  C   UNL     1      45.958 -10.696   7.320  1.00  0.00     0.001 A 
HETATM   26  C   UNL     1      44.644 -10.920   6.918  1.00  0.00     0.009 A 
BRANCH  22  27
HETATM   27  C   UNL     1      42.833  -8.095   8.794  1.00  0.00     0.274 C 
BRANCH  27  28
HETATM   28  N   UNL     1      42.231  -8.548  10.104  1.00  0.00    -0.067 N 
HETATM   29  H   UNL     1      41.211  -8.544   9.972  1.00  0.00     0.280 HD
HETATM   30  C   UNL     1      42.560  -7.621  11.255  1.00  0.00     0.235 C 
HETATM   31  C   UNL     1      43.609  -8.377  12.039  1.00  0.00     0.029 C 
HETATM   32  C   UNL     1      43.103  -9.802  11.972  1.00  0.00     0.029 C 
HETATM   33  C   UNL     1      42.626  -9.951  10.538  1.00  0.00     0.235 C 
ENDBRANCH  27  28
ENDBRANCH  22  27
ENDBRANCH  20  21
ENDBRANCH   2  20
TORSDOF 8
ENDMDL
MODEL 3
REMARK VINA RESULT:      -8.6      2.151      8.533
REMARK  8 active torsions:
REMARK  status: ('A' for Active; 'I' for Inactive)
REMARK    1  A    between atoms: C_7  and  C_8 
REMARK    2  A    between atoms: C_8  and  O_9 
REMARK    3  A    between atoms: O_9  and  C_10 
REMARK    4  A    between atoms: C_13  and  C_14 
REMARK       I    between atoms: C_14  and  N_15 
REMARK    5  A    between atoms: N_15  and  C_16 
REMARK    6  A    between atoms: C_16  and  C_17 
REMARK    7  A    between atoms: C_18  and  C_19 
REMARK    8  A    between atoms: C_19  and  N_20 
ROOT
HETATM    1  C   UNL     1      41.981 -14.873   2.945  1.00  0.00     0.251 C 
HETATM    2  N   UNL     1      43.007 -15.785   3.093  1.00  0.00    -0.353 N 
HETATM    3  O   UNL     1      41.133 -14.957   2.064  1.00  0.00    -0.268 OA
HETATM    4  H   UNL     1      43.564 -15.767   3.936  1.00  0.00     0.163 HD
ENDROOT
BRANCH   1   5
HETATM    5  C   UNL     1      41.940 -13.749   3.915  1.00  0.00     0.032 A 
HETATM    6  C   UNL     1      40.734 -13.279   4.446  1.00  0.00     0.020 A 
HETATM    7  C   UNL     1      40.748 -12.278   5.421  1.00  0.00     0.038 A 
HETATM    8  C   UNL     1      41.957 -11.757   5.888  1.00  0.00     0.069 A 
HETATM    9  C   UNL     1      43.159 -12.204   5.340  1.00  0.00     0.038 A 
HETATM   10  C   UNL     1      43.150 -13.208   4.365  1.00  0.00     0.020 A 
BRANCH   8  11
HETATM   11  O   UNL     1      41.834 -10.820   6.872  1.00  0.00    -0.347 OA
BRANCH  11  12
HETATM   12  C   UNL     1      42.888  -9.861   6.981  1.00  0.00     0.219 C 
BRANCH  12  13
HETATM   13  C   UNL     1      43.769 -10.202   8.126  1.00  0.00     0.024 A 
HETATM   14  C   UNL     1      43.480 -10.064   9.513  1.00  0.00     0.069 A 
HETATM   15  C   UNL     1      42.243  -9.546  10.144  1.00  0.00     0.073 C 
HETATM   16  N   UNL     1      44.504 -10.470  10.270  1.00  0.00    -0.133 NA
HETATM   17  O   UNL     1      45.487 -10.872   9.388  1.00  0.00    -0.217 OA
HETATM   18  C   UNL     1      45.050 -10.708   8.112  1.00  0.00     0.085 A 
HETATM   19  C   UNL     1      45.995 -11.083   7.044  1.00  0.00     0.079 C 
ENDBRANCH  12  13
ENDBRANCH  11  12
ENDBRANCH   8  11
ENDBRANCH   1   5
BRANCH   2  20
HETATM   20  C   UNL     1      43.199 -16.839   2.130  1.00  0.00     0.162 C 
BRANCH  20  21
HETATM   21  C   UNL     1      43.487 -18.167   2.792  1.00  0.00    -0.033 A 
HETATM   22  C   UNL     1      43.992 -18.319   4.104  1.00  0.00    -0.025 A 
HETATM   23  C   UNL     1      44.213 -19.622   4.600  1.00  0.00     0.009 A 
HETATM   24  C   UNL     1      43.943 -20.748   3.823  1.00  0.00     0.001 A 
HETATM   25  C   UNL     1      43.445 -20.597   2.537  1.00  0.00     0.001 A 
HETATM   26  C   UNL     1      43.216 -19.320   2.029  1.00  0.00     0.009 A 
BRANCH  22  27
HETATM   27  C   UNL     1      44.317 -17.160   5.013  1.00  0.00     0.274 C 
BRANCH  27  28
HETATM   28  N   UNL     1      43.688 -17.267   6.383  1.00  0.00    -0.067 N 
HETATM   29  H   UNL     1      43.881 -18.220   6.719  1.00  0.00     0.280 HD
HETATM   30  C   UNL     1      42.186 -17.073   6.358  1.00  0.00     0.235 C 
HETATM   31  C   UNL     1      41.992 -15.681   6.916  1.00  0.00     0.029 C 
HETATM   32  C   UNL     1      43.023 -15.627   8.024  1.00  0.00     0.029 C 
HETATM   33  C   UNL     1      44.242 -16.302   7.419  1.00  0.00     0.235 C 
ENDBRANCH  27  28
ENDBRANCH  22  27
ENDBRANCH  20  21
ENDBRANCH   2  20
TORSDOF 8
ENDMDL
MODEL 4
REMARK VINA RESULT:      -8.2      1.677      3.506
REMARK  8 active torsions:
REMARK  status: ('A' for Active; 'I' for Inactive)
REMARK    1  A    between atoms: C_7  and  C_8 
REMARK    2  A    between atoms: C_8  and  O_9 
REMARK    3  A    between atoms: O_9  and  C_10 
REMARK    4  A    between atoms: C_13  and  C_14 
REMARK       I    between atoms: C_14  and  N_15 
REMARK    5  A    between atoms: N_15  and  C_16 
REMARK    6  A    between atoms: C_16  and  C_17 
REMARK    7  A    between atoms: C_18  and  C_19 
REMARK    8  A    between atoms: C_19  and  N_20 
ROOT
HETATM    1  C   UNL     1      41.835 -11.251   4.682  1.00  0.00     0.251 C 
HETATM    2  N   UNL     1      41.026 -11.008   5.774  1.00  0.00    -0.353 N 
HETATM    3  O   UNL     1      42.434 -10.366   4.082  1.00  0.00    -0.268 OA
HETATM    4  H   UNL     1      40.706 -11.786   6.332  1.00  0.00     0.163 HD
ENDROOT
BRANCH   1   5
HETATM    5  C   UNL     1      41.954 -12.664   4.240  1.00  0.00     0.032 A 
HETATM    6  C   UNL     1      41.022 -13.636   4.621  1.00  0.00     0.020 A 
HETATM    7  C   UNL     1      41.124 -14.932   4.112  1.00  0.00     0.038 A 
HETATM    8  C   UNL     1      42.136 -15.264   3.208  1.00  0.00     0.069 A 
HETATM    9  C   UNL     1      43.083 -14.305   2.849  1.00  0.00     0.038 A 
HETATM   10  C   UNL     1      42.984 -13.004   3.354  1.00  0.00     0.020 A 
BRANCH   8  11
HETATM   11  O   UNL     1      42.096 -16.550   2.752  1.00  0.00    -0.347 OA
BRANCH  11  12
HETATM   12  C   UNL     1      43.340 -17.125   2.345  1.00  0.00     0.219 C 
BRANCH  12  13
HETATM   13  C   UNL     1      43.672 -18.283   3.213  1.00  0.00     0.024 A 
HETATM   14  C   UNL     1      44.084 -18.255   4.575  1.00  0.00     0.069 A 
HETATM   15  C   UNL     1      44.285 -17.074   5.448  1.00  0.00     0.073 C 
HETATM   16  N   UNL     1      44.299 -19.487   5.048  1.00  0.00    -0.133 NA
HETATM   17  O   UNL     1      44.040 -20.344   3.997  1.00  0.00    -0.217 OA
HETATM   18  C   UNL     1      43.670 -19.626   2.904  1.00  0.00     0.085 A 
HETATM   19  C   UNL     1      43.370 -20.399   1.685  1.00  0.00     0.079 C 
ENDBRANCH  12  13
ENDBRANCH  11  12
ENDBRANCH   8  11
ENDBRANCH   1   5
BRANCH   2  20
HETATM   20  C   UNL     1      40.754  -9.659   6.202  1.00  0.00     0.162 C 
BRANCH  20  21
HETATM   21  C   UNL     1      40.613  -9.558   7.704  1.00  0.00    -0.033 A 
HETATM   22  C   UNL     1      41.654  -9.189   8.586  1.00  0.00    -0.025 A 
HETATM   23  C   UNL     1      41.383  -9.132   9.971  1.00  0.00     0.009 A 
HETATM   24  C   UNL     1      40.117  -9.432  10.473  1.00  0.00     0.001 A 
HETATM   25  C   UNL     1      39.096  -9.791   9.605  1.00  0.00     0.001 A 
HETATM   26  C   UNL     1      39.341  -9.850   8.235  1.00  0.00     0.009 A 
BRANCH  22  27
HETATM   27  C   UNL     1      43.053  -8.852   8.133  1.00  0.00     0.274 C 
BRANCH  27  28
HETATM   28  N   UNL     1      44.087  -9.875   8.541  1.00  0.00    -0.067 N 
HETATM   29  H   UNL     1      43.644 -10.469   9.255  1.00  0.00     0.280 HD
HETATM   30  C   UNL     1      45.324  -9.250   9.151  1.00  0.00     0.235 C 
HETATM   31  C   UNL     1      46.362  -9.359   8.056  1.00  0.00     0.029 C 
HETATM   32  C   UNL     1      46.075 -10.725   7.469  1.00  0.00     0.029 C 
HETATM   33  C   UNL     1      44.559 -10.789   7.421  1.00  0.00     0.235 C 
ENDBRANCH  27  28
ENDBRANCH  22  27
ENDBRANCH  20  21
ENDBRANCH   2  20
TORSDOF 8
ENDMDL
MODEL 5
REMARK VINA RESULT:      -8.2      5.982      8.135
REMARK  8 active torsions:
REMARK  status: ('A' for Active; 'I' for Inactive)
REMARK    1  A    between atoms: C_7  and  C_8 
REMARK    2  A    between atoms: C_8  and  O_9 
REMARK    3  A    between atoms: O_9  and  C_10 
REMARK    4  A    between atoms: C_13  and  C_14 
REMARK       I    between atoms: C_14  and  N_15 
REMARK    5  A    between atoms: N_15  and  C_16 
REMARK    6  A    between atoms: C_16  and  C_17 
REMARK    7  A    between atoms: C_18  and  C_19 
REMARK    8  A    between atoms: C_19  and  N_20 
ROOT
HETATM    1  C   UNL     1      40.089 -12.213   1.180  1.00  0.00     0.251 C 
HETATM    2  N   UNL     1      41.045 -11.301   0.782  1.00  0.00    -0.353 N 
HETATM    3  O   UNL     1      38.909 -11.921   1.336  1.00  0.00    -0.268 OA
HETATM    4  H   UNL     1      41.956 -11.634   0.499  1.00  0.00     0.163 HD
ENDROOT
BRANCH   1   5
HETATM    5  C   UNL     1      40.552 -13.603   1.428  1.00  0.00     0.032 A 
HETATM    6  C   UNL     1      41.840 -14.022   1.076  1.00  0.00     0.020 A 
HETATM    7  C   UNL     1      42.263 -15.312   1.407  1.00  0.00     0.038 A 
HETATM    8  C   UNL     1      41.421 -16.181   2.104  1.00  0.00     0.069 A 
HETATM    9  C   UNL     1      40.127 -15.774   2.430  1.00  0.00     0.038 A 
HETATM   10  C   UNL     1      39.699 -14.483   2.104  1.00  0.00     0.020 A 
BRANCH   8  11
HETATM   11  O   UNL     1      41.971 -17.393   2.405  1.00  0.00    -0.347 OA
BRANCH  11  12
HETATM   12  C   UNL     1      43.366 -17.404   2.718  1.00  0.00     0.219 C 
BRANCH  12  13
HETATM   13  C   UNL     1      43.683 -18.573   3.577  1.00  0.00     0.024 A 
HETATM   14  C   UNL     1      43.803 -19.934   3.180  1.00  0.00     0.069 A 
HETATM   15  C   UNL     1      43.638 -20.511   1.825  1.00  0.00     0.073 C 
HETATM   16  N   UNL     1      44.101 -20.723   4.217  1.00  0.00    -0.133 NA
HETATM   17  O   UNL     1      44.170 -19.890   5.316  1.00  0.00    -0.217 OA
HETATM   18  C   UNL     1      43.918 -18.611   4.935  1.00  0.00     0.085 A 
HETATM   19  C   UNL     1      43.941 -17.594   6.002  1.00  0.00     0.079 C 
ENDBRANCH  12  13
ENDBRANCH  11  12
ENDBRANCH   8  11
ENDBRANCH   1   5
BRANCH   2  20
HETATM   20  C   UNL     1      40.715  -9.906   0.635  1.00  0.00     0.162 C 
BRANCH  20  21
HETATM   21  C   UNL     1      41.059  -9.385  -0.742  1.00  0.00    -0.033 A 
HETATM   22  C   UNL     1      40.335  -9.682  -1.919  1.00  0.00    -0.025 A 
HETATM   23  C   UNL     1      40.766  -9.123  -3.142  1.00  0.00     0.009 A 
HETATM   24  C   UNL     1      41.885  -8.292  -3.203  1.00  0.00     0.001 A 
HETATM   25  C   UNL     1      42.592  -7.999  -2.046  1.00  0.00     0.001 A 
HETATM   26  C   UNL     1      42.181  -8.536  -0.829  1.00  0.00     0.009 A 
BRANCH  22  27
HETATM   27  C   UNL     1      39.118 -10.573  -1.949  1.00  0.00     0.274 C 
BRANCH  27  28
HETATM   28  N   UNL     1      39.291 -11.811  -2.798  1.00  0.00    -0.067 N 
HETATM   29  H   UNL     1      39.318 -11.492  -3.775  1.00  0.00     0.280 HD
HETATM   30  C   UNL     1      38.143 -12.788  -2.654  1.00  0.00     0.235 C 
HETATM   31  C   UNL     1      38.715 -13.893  -1.795  1.00  0.00     0.029 C 
HETATM   32  C   UNL     1      40.125 -14.026  -2.330  1.00  0.00     0.029 C 
HETATM   33  C   UNL     1      40.571 -12.590  -2.540  1.00  0.00     0.235 C 
ENDBRANCH  27  28
ENDBRANCH  22  27
ENDBRANCH  20  21
ENDBRANCH   2  20
TORSDOF 8
ENDMDL
MODEL 6
REMARK VINA RESULT:      -8.0      4.744      7.861
REMARK  8 active torsions:
REMARK  status: ('A' for Active; 'I' for Inactive)
REMARK    1  A    between atoms: C_7  and  C_8 
REMARK    2  A    between atoms: C_8  and  O_9 
REMARK    3  A    between atoms: O_9  and  C_10 
REMARK    4  A    between atoms: C_13  and  C_14 
REMARK       I    between atoms: C_14  and  N_15 
REMARK    5  A    between atoms: N_15  and  C_16 
REMARK    6  A    between atoms: C_16  and  C_17 
REMARK    7  A    between atoms: C_18  and  C_19 
REMARK    8  A    between atoms: C_19  and  N_20 
ROOT
HETATM    1  C   UNL     1      40.775 -12.520   3.604  1.00  0.00     0.251 C 
HETATM    2  N   UNL     1      41.192 -12.070   2.367  1.00  0.00    -0.353 N 
HETATM    3  O   UNL     1      39.990 -11.901   4.312  1.00  0.00    -0.268 OA
HETATM    4  H   UNL     1      41.692 -12.700   1.757  1.00  0.00     0.163 HD
ENDROOT
BRANCH   1   5
HETATM    5  C   UNL     1      41.331 -13.818   4.065  1.00  0.00     0.032 A 
HETATM    6  C   UNL     1      42.666 -13.945   4.467  1.00  0.00     0.020 A 
HETATM    7  C   UNL     1      43.123 -15.163   4.976  1.00  0.00     0.038 A 
HETATM    8  C   UNL     1      42.256 -16.251   5.107  1.00  0.00     0.069 A 
HETATM    9  C   UNL     1      40.934 -16.134   4.679  1.00  0.00     0.038 A 
HETATM   10  C   UNL     1      40.470 -14.916   4.171  1.00  0.00     0.020 A 
BRANCH   8  11
HETATM   11  O   UNL     1      42.816 -17.366   5.659  1.00  0.00    -0.347 OA
BRANCH  11  12
HETATM   12  C   UNL     1      44.077 -17.780   5.128  1.00  0.00     0.219 C 
BRANCH  12  13
HETATM   13  C   UNL     1      43.869 -18.760   4.032  1.00  0.00     0.024 A 
HETATM   14  C   UNL     1      43.968 -20.178   4.106  1.00  0.00     0.069 A 
HETATM   15  C   UNL     1      44.304 -21.013   5.283  1.00  0.00     0.073 C 
HETATM   16  N   UNL     1      43.714 -20.749   2.924  1.00  0.00    -0.133 NA
HETATM   17  O   UNL     1      43.456 -19.711   2.052  1.00  0.00    -0.217 OA
HETATM   18  C   UNL     1      43.551 -18.527   2.711  1.00  0.00     0.085 A 
HETATM   19  C   UNL     1      43.314 -17.311   1.911  1.00  0.00     0.079 C 
ENDBRANCH  12  13
ENDBRANCH  11  12
ENDBRANCH   8  11
ENDBRANCH   1   5
BRANCH   2  20
HETATM   20  C   UNL     1      40.801 -10.768   1.889  1.00  0.00     0.162 C 
BRANCH  20  21
HETATM   21  C   UNL     1      39.546 -10.826   1.049  1.00  0.00    -0.033 A 
HETATM   22  C   UNL     1      39.509 -11.178  -0.320  1.00  0.00    -0.025 A 
HETATM   23  C   UNL     1      38.263 -11.194  -0.985  1.00  0.00     0.009 A 
HETATM   24  C   UNL     1      37.083 -10.871  -0.316  1.00  0.00     0.001 A 
HETATM   25  C   UNL     1      37.120 -10.529   1.028  1.00  0.00     0.001 A 
HETATM   26  C   UNL     1      38.338 -10.510   1.703  1.00  0.00     0.009 A 
BRANCH  22  27
HETATM   27  C   UNL     1      40.734 -11.537  -1.123  1.00  0.00     0.274 C 
BRANCH  27  28
HETATM   28  N   UNL     1      40.879 -13.018  -1.381  1.00  0.00    -0.067 N 
HETATM   29  H   UNL     1      41.853 -13.259  -1.155  1.00  0.00     0.280 HD
HETATM   30  C   UNL     1      40.627 -13.391  -2.828  1.00  0.00     0.235 C 
HETATM   31  C   UNL     1      39.256 -14.028  -2.803  1.00  0.00     0.029 C 
HETATM   32  C   UNL     1      39.292 -14.831  -1.519  1.00  0.00     0.029 C 
HETATM   33  C   UNL     1      39.984 -13.907  -0.533  1.00  0.00     0.235 C 
ENDBRANCH  27  28
ENDBRANCH  22  27
ENDBRANCH  20  21
ENDBRANCH   2  20
TORSDOF 8
ENDMDL
MODEL 7
REMARK VINA RESULT:      -7.9      3.283      9.982
REMARK  8 active torsions:
REMARK  status: ('A' for Active; 'I' for Inactive)
REMARK    1  A    between atoms: C_7  and  C_8 
REMARK    2  A    between atoms: C_8  and  O_9 
REMARK    3  A    between atoms: O_9  and  C_10 
REMARK    4  A    between atoms: C_13  and  C_14 
REMARK       I    between atoms: C_14  and  N_15 
REMARK    5  A    between atoms: N_15  and  C_16 
REMARK    6  A    between atoms: C_16  and  C_17 
REMARK    7  A    between atoms: C_18  and  C_19 
REMARK    8  A    between atoms: C_19  and  N_20 
ROOT
HETATM    1  C   UNL     1      44.321 -11.096   7.550  1.00  0.00     0.251 C 
HETATM    2  N   UNL     1      43.322 -11.437   6.661  1.00  0.00    -0.353 N 
HETATM    3  O   UNL     1      45.455 -11.557   7.492  1.00  0.00    -0.268 OA
HETATM    4  H   UNL     1      42.469 -10.896   6.647  1.00  0.00     0.163 HD
ENDROOT
BRANCH   1   5
HETATM    5  C   UNL     1      43.964 -10.124   8.616  1.00  0.00     0.032 A 
HETATM    6  C   UNL     1      43.250  -8.954   8.336  1.00  0.00     0.020 A 
HETATM    7  C   UNL     1      42.861  -8.113   9.381  1.00  0.00     0.038 A 
HETATM    8  C   UNL     1      43.158  -8.439  10.706  1.00  0.00     0.069 A 
HETATM    9  C   UNL     1      43.895  -9.591  10.985  1.00  0.00     0.038 A 
HETATM   10  C   UNL     1      44.285 -10.438   9.942  1.00  0.00     0.020 A 
BRANCH   8  11
HETATM   11  O   UNL     1      42.681  -7.558  11.633  1.00  0.00    -0.347 OA
BRANCH  11  12
HETATM   12  C   UNL     1      41.262  -7.401  11.699  1.00  0.00     0.219 C 
BRANCH  12  13
HETATM   13  C   UNL     1      40.632  -8.663  12.163  1.00  0.00     0.024 A 
HETATM   14  C   UNL     1      40.704  -9.241  13.462  1.00  0.00     0.069 A 
HETATM   15  C   UNL     1      41.423  -8.731  14.653  1.00  0.00     0.073 C 
HETATM   16  N   UNL     1      40.015 -10.385  13.528  1.00  0.00    -0.133 NA
HETATM   17  O   UNL     1      39.487 -10.580  12.267  1.00  0.00    -0.217 OA
HETATM   18  C   UNL     1      39.858  -9.557  11.454  1.00  0.00     0.085 A 
HETATM   19  C   UNL     1      39.383  -9.623  10.060  1.00  0.00     0.079 C 
ENDBRANCH  12  13
ENDBRANCH  11  12
ENDBRANCH   8  11
ENDBRANCH   1   5
BRANCH   2  20
HETATM   20  C   UNL     1      43.538 -12.459   5.669  1.00  0.00     0.162 C 
BRANCH  20  21
HETATM   21  C   UNL     1      42.834 -13.749   6.021  1.00  0.00    -0.033 A 
HETATM   22  C   UNL     1      41.777 -14.319   5.275  1.00  0.00    -0.025 A 
HETATM   23  C   UNL     1      41.210 -15.534   5.717  1.00  0.00     0.009 A 
HETATM   24  C   UNL     1      41.672 -16.171   6.868  1.00  0.00     0.001 A 
HETATM   25  C   UNL     1      42.712 -15.612   7.599  1.00  0.00     0.001 A 
HETATM   26  C   UNL     1      43.288 -14.416   7.177  1.00  0.00     0.009 A 
BRANCH  22  27
HETATM   27  C   UNL     1      41.211 -13.700   4.022  1.00  0.00     0.274 C 
BRANCH  27  28
HETATM   28  N   UNL     1      41.821 -14.236   2.748  1.00  0.00    -0.067 N 
HETATM   29  H   UNL     1      41.985 -13.424   2.139  1.00  0.00     0.280 HD
HETATM   30  C   UNL     1      40.906 -15.195   2.015  1.00  0.00     0.235 C 
HETATM   31  C   UNL     1      41.507 -16.554   2.296  1.00  0.00     0.029 C 
HETATM   32  C   UNL     1      42.993 -16.277   2.214  1.00  0.00     0.029 C 
HETATM   33  C   UNL     1      43.154 -14.945   2.926  1.00  0.00     0.235 C 
ENDBRANCH  27  28
ENDBRANCH  22  27
ENDBRANCH  20  21
ENDBRANCH   2  20
TORSDOF 8
ENDMDL
MODEL 8
REMARK VINA RESULT:      -7.9      4.066      9.485
REMARK  8 active torsions:
REMARK  status: ('A' for Active; 'I' for Inactive)
REMARK    1  A    between atoms: C_7  and  C_8 
REMARK    2  A    between atoms: C_8  and  O_9 
REMARK    3  A    between atoms: O_9  and  C_10 
REMARK    4  A    between atoms: C_13  and  C_14 
REMARK       I    between atoms: C_14  and  N_15 
REMARK    5  A    between atoms: N_15  and  C_16 
REMARK    6  A    between atoms: C_16  and  C_17 
REMARK    7  A    between atoms: C_18  and  C_19 
REMARK    8  A    between atoms: C_19  and  N_20 
ROOT
HETATM    1  C   UNL     1      44.596 -10.869   8.021  1.00  0.00     0.251 C 
HETATM    2  N   UNL     1      43.707 -11.891   7.758  1.00  0.00    -0.353 N 
HETATM    3  O   UNL     1      45.662 -10.740   7.431  1.00  0.00    -0.268 OA
HETATM    4  H   UNL     1      42.775 -11.845   8.144  1.00  0.00     0.163 HD
ENDROOT
BRANCH   1   5
HETATM    5  C   UNL     1      44.208  -9.902   9.081  1.00  0.00     0.032 A 
HETATM    6  C   UNL     1      43.722  -8.627   8.770  1.00  0.00     0.020 A 
HETATM    7  C   UNL     1      43.287  -7.783   9.795  1.00  0.00     0.038 A 
HETATM    8  C   UNL     1      43.313  -8.206  11.126  1.00  0.00     0.069 A 
HETATM    9  C   UNL     1      43.824  -9.466  11.439  1.00  0.00     0.038 A 
HETATM   10  C   UNL     1      44.258 -10.316  10.417  1.00  0.00     0.020 A 
BRANCH   8  11
HETATM   11  O   UNL     1      42.819  -7.305  12.023  1.00  0.00    -0.347 OA
BRANCH  11  12
HETATM   12  C   UNL     1      41.399  -7.145  12.055  1.00  0.00     0.219 C 
BRANCH  12  13
HETATM   13  C   UNL     1      40.750  -8.435  12.401  1.00  0.00     0.024 A 
HETATM   14  C   UNL     1      40.710  -9.071  13.673  1.00  0.00     0.069 A 
HETATM   15  C   UNL     1      41.305  -8.608  14.949  1.00  0.00     0.073 C 
HETATM   16  N   UNL     1      40.037 -10.226  13.623  1.00  0.00    -0.133 NA
HETATM   17  O   UNL     1      39.634 -10.369  12.311  1.00  0.00    -0.217 OA
HETATM   18  C   UNL     1      40.062  -9.304  11.583  1.00  0.00     0.085 A 
HETATM   19  C   UNL     1      39.720  -9.313  10.149  1.00  0.00     0.079 C 
ENDBRANCH  12  13
ENDBRANCH  11  12
ENDBRANCH   8  11
ENDBRANCH   1   5
BRANCH   2  20
HETATM   20  C   UNL     1      44.049 -12.943   6.835  1.00  0.00     0.162 C 
BRANCH  20  21
HETATM   21  C   UNL     1      42.935 -13.956   6.692  1.00  0.00    -0.033 A 
HETATM   22  C   UNL     1      41.680 -13.693   6.095  1.00  0.00    -0.025 A 
HETATM   23  C   UNL     1      40.730 -14.734   6.025  1.00  0.00     0.009 A 
HETATM   24  C   UNL     1      41.009 -16.004   6.530  1.00  0.00     0.001 A 
HETATM   25  C   UNL     1      42.242 -16.261   7.112  1.00  0.00     0.001 A 
HETATM   26  C   UNL     1      43.195 -15.249   7.188  1.00  0.00     0.009 A 
BRANCH  22  27
HETATM   27  C   UNL     1      41.290 -12.351   5.528  1.00  0.00     0.274 C 
BRANCH  27  28
HETATM   28  N   UNL     1      40.512 -11.486   6.491  1.00  0.00    -0.067 N 
HETATM   29  H   UNL     1      40.633 -11.905   7.422  1.00  0.00     0.280 HD
HETATM   30  C   UNL     1      39.029 -11.448   6.182  1.00  0.00     0.235 C 
HETATM   31  C   UNL     1      38.825 -10.085   5.558  1.00  0.00     0.029 C 
HETATM   32  C   UNL     1      39.730  -9.205   6.395  1.00  0.00     0.029 C 
HETATM   33  C   UNL     1      40.983 -10.043   6.579  1.00  0.00     0.235 C 
ENDBRANCH  27  28
ENDBRANCH  22  27
ENDBRANCH  20  21
ENDBRANCH   2  20
TORSDOF 8
ENDMDL
MODEL 9
REMARK VINA RESULT:      -7.9      1.985      4.064
REMARK  8 active torsions:
REMARK  status: ('A' for Active; 'I' for Inactive)
REMARK    1  A    between atoms: C_7  and  C_8 
REMARK    2  A    between atoms: C_8  and  O_9 
REMARK    3  A    between atoms: O_9  and  C_10 
REMARK    4  A    between atoms: C_13  and  C_14 
REMARK       I    between atoms: C_14  and  N_15 
REMARK    5  A    between atoms: N_15  and  C_16 
REMARK    6  A    between atoms: C_16  and  C_17 
REMARK    7  A    between atoms: C_18  and  C_19 
REMARK    8  A    between atoms: C_19  and  N_20 
ROOT
HETATM    1  C   UNL     1      39.767 -10.219   7.121  1.00  0.00     0.251 C 
HETATM    2  N   UNL     1      40.619  -9.968   8.177  1.00  0.00    -0.353 N 
HETATM    3  O   UNL     1      38.702  -9.633   6.966  1.00  0.00    -0.268 OA
HETATM    4  H   UNL     1      41.554 -10.347   8.157  1.00  0.00     0.163 HD
ENDROOT
BRANCH   1   5
HETATM    5  C   UNL     1      40.193 -11.261   6.151  1.00  0.00     0.032 A 
HETATM    6  C   UNL     1      39.265 -11.998   5.407  1.00  0.00     0.020 A 
HETATM    7  C   UNL     1      39.713 -12.905   4.444  1.00  0.00     0.038 A 
HETATM    8  C   UNL     1      41.078 -13.069   4.200  1.00  0.00     0.069 A 
HETATM    9  C   UNL     1      42.005 -12.357   4.961  1.00  0.00     0.038 A 
HETATM   10  C   UNL     1      41.562 -11.445   5.925  1.00  0.00     0.020 A 
BRANCH   8  11
HETATM   11  O   UNL     1      41.380 -13.950   3.203  1.00  0.00    -0.347 OA
BRANCH  11  12
HETATM   12  C   UNL     1      40.784 -15.247   3.292  1.00  0.00     0.219 C 
BRANCH  12  13
HETATM   13  C   UNL     1      41.635 -16.141   4.118  1.00  0.00     0.024 A 
HETATM   14  C   UNL     1      42.711 -16.962   3.680  1.00  0.00     0.069 A 
HETATM   15  C   UNL     1      43.237 -17.127   2.304  1.00  0.00     0.073 C 
HETATM   16  N   UNL     1      43.259 -17.636   4.697  1.00  0.00    -0.133 NA
HETATM   17  O   UNL     1      42.540 -17.274   5.819  1.00  0.00    -0.217 OA
HETATM   18  C   UNL     1      41.571 -16.387   5.473  1.00  0.00     0.085 A 
HETATM   19  C   UNL     1      40.703 -15.909   6.564  1.00  0.00     0.079 C 
ENDBRANCH  12  13
ENDBRANCH  11  12
ENDBRANCH   8  11
ENDBRANCH   1   5
BRANCH   2  20
HETATM   20  C   UNL     1      40.236  -9.063   9.232  1.00  0.00     0.162 C 
BRANCH  20  21
HETATM   21  C   UNL     1      40.929  -9.387  10.536  1.00  0.00    -0.033 A 
HETATM   22  C   UNL     1      42.328  -9.350  10.734  1.00  0.00    -0.025 A 
HETATM   23  C   UNL     1      42.842  -9.675  12.009  1.00  0.00     0.009 A 
HETATM   24  C   UNL     1      41.998 -10.027  13.061  1.00  0.00     0.001 A 
HETATM   25  C   UNL     1      40.625 -10.059  12.866  1.00  0.00     0.001 A 
HETATM   26  C   UNL     1      40.096  -9.739  11.618  1.00  0.00     0.009 A 
BRANCH  22  27
HETATM   27  C   UNL     1      43.315  -8.986   9.654  1.00  0.00     0.274 C 
BRANCH  27  28
HETATM   28  N   UNL     1      44.425  -9.996   9.478  1.00  0.00    -0.067 N 
HETATM   29  H   UNL     1      44.386 -10.617  10.297  1.00  0.00     0.280 HD
HETATM   30  C   UNL     1      45.798  -9.360   9.434  1.00  0.00     0.235 C 
HETATM   31  C   UNL     1      46.177  -9.419   7.971  1.00  0.00     0.029 C 
HETATM   32  C   UNL     1      45.652 -10.776   7.552  1.00  0.00     0.029 C 
HETATM   33  C   UNL     1      44.302 -10.871   8.240  1.00  0.00     0.235 C 
ENDBRANCH  27  28
ENDBRANCH  22  27
ENDBRANCH  20  21
ENDBRANCH   2  20
TORSDOF 8
ENDMDL
MODEL 10
REMARK VINA RESULT:      -7.9      2.968      9.246
REMARK  8 active torsions:
REMARK  status: ('A' for Active; 'I' for Inactive)
REMARK    1  A    between atoms: C_7  and  C_8 
REMARK    2  A    between atoms: C_8  and  O_9 
REMARK    3  A    between atoms: O_9  and  C_10 
REMARK    4  A    between atoms: C_13  and  C_14 
REMARK       I    between atoms: C_14  and  N_15 
REMARK    5  A    between atoms: N_15  and  C_16 
REMARK    6  A    between atoms: C_16  and  C_17 
REMARK    7  A    between atoms: C_18  and  C_19 
REMARK    8  A    between atoms: C_19  and  N_20 
ROOT
HETATM    1  C   UNL     1      43.941 -11.728   4.427  1.00  0.00     0.251 C 
HETATM    2  N   UNL     1      43.099 -12.718   3.964  1.00  0.00    -0.353 N 
HETATM    3  O   UNL     1      44.853 -11.257   3.757  1.00  0.00    -0.268 OA
HETATM    4  H   UNL     1      42.263 -12.938   4.486  1.00  0.00     0.163 HD
ENDROOT
BRANCH   1   5
HETATM    5  C   UNL     1      43.702 -11.239   5.809  1.00  0.00     0.032 A 
HETATM    6  C   UNL     1      44.590 -11.522   6.853  1.00  0.00     0.020 A 
HETATM    7  C   UNL     1      44.372 -10.970   8.118  1.00  0.00     0.038 A 
HETATM    8  C   UNL     1      43.288 -10.119   8.345  1.00  0.00     0.069 A 
HETATM    9  C   UNL     1      42.386  -9.858   7.313  1.00  0.00     0.038 A 
HETATM   10  C   UNL     1      42.601 -10.407   6.044  1.00  0.00     0.020 A 
BRANCH   8  11
HETATM   11  O   UNL     1      43.215  -9.611   9.610  1.00  0.00    -0.347 OA
BRANCH  11  12
HETATM   12  C   UNL     1      42.116  -8.741   9.890  1.00  0.00     0.219 C 
BRANCH  12  13
HETATM   13  C   UNL     1      41.265  -9.326  10.957  1.00  0.00     0.024 A 
HETATM   14  C   UNL     1      39.940  -9.829  10.831  1.00  0.00     0.069 A 
HETATM   15  C   UNL     1      39.093  -9.886   9.616  1.00  0.00     0.073 C 
HETATM   16  N   UNL     1      39.475 -10.283  12.000  1.00  0.00    -0.133 NA
HETATM   17  O   UNL     1      40.487 -10.074  12.914  1.00  0.00    -0.217 OA
HETATM   18  C   UNL     1      41.551  -9.501  12.294  1.00  0.00     0.085 A 
HETATM   19  C   UNL     1      42.719  -9.199  13.142  1.00  0.00     0.079 C 
ENDBRANCH  12  13
ENDBRANCH  11  12
ENDBRANCH   8  11
ENDBRANCH   1   5
BRANCH   2  20
HETATM   20  C   UNL     1      43.327 -13.339   2.684  1.00  0.00     0.162 C 
BRANCH  20  21
HETATM   21  C   UNL     1      42.237 -14.324   2.329  1.00  0.00    -0.033 A 
HETATM   22  C   UNL     1      42.211 -15.677   2.739  1.00  0.00    -0.025 A 
HETATM   23  C   UNL     1      41.128 -16.488   2.337  1.00  0.00     0.009 A 
HETATM   24  C   UNL     1      40.096 -15.979   1.550  1.00  0.00     0.001 A 
HETATM   25  C   UNL     1      40.122 -14.650   1.150  1.00  0.00     0.001 A 
HETATM   26  C   UNL     1      41.179 -13.832   1.539  1.00  0.00     0.009 A 
BRANCH  22  27
HETATM   27  C   UNL     1      43.284 -16.314   3.586  1.00  0.00     0.274 C 
BRANCH  27  28
HETATM   28  N   UNL     1      42.810 -16.726   4.960  1.00  0.00    -0.067 N 
HETATM   29  H   UNL     1      42.014 -17.362   4.815  1.00  0.00     0.280 HD
HETATM   30  C   UNL     1      42.330 -15.556   5.794  1.00  0.00     0.235 C 
HETATM   31  C   UNL     1      43.451 -15.335   6.784  1.00  0.00     0.029 C 
HETATM   32  C   UNL     1      43.865 -16.749   7.130  1.00  0.00     0.029 C 
HETATM   33  C   UNL     1      43.838 -17.472   5.795  1.00  0.00     0.235 C 
ENDBRANCH  27  28
ENDBRANCH  22  27
ENDBRANCH  20  21
ENDBRANCH   2  20
TORSDOF 8
ENDMDL
