MODEL 1
REMARK VINA RESULT:      -8.3      0.000      0.000
REMARK  2 active torsions:
REMARK  status: ('A' for Active; 'I' for Inactive)
REMARK    1  A    between atoms: C_5  and  C_7 
REMARK    2  A    between atoms: C_5  and  O_6 
ROOT
HETATM    1  C   UNL     1      44.157 -11.955   7.514  1.00  0.00     0.050 C 
HETATM    2  C   UNL     1      43.612 -12.150   6.134  1.00  0.00    -0.035 A 
HETATM    3  C   UNL     1      42.619 -13.072   5.845  1.00  0.00     0.051 A 
HETATM    4  C   UNL     1      42.133 -13.279   4.548  1.00  0.00     0.018 A 
HETATM    5  C   UNL     1      41.034 -14.318   4.578  1.00  0.00     0.198 A 
HETATM    6  C   UNL     1      41.028 -14.723   6.094  1.00  0.00     0.266 A 
HETATM    7  O   UNL     1      40.316 -15.534   6.666  1.00  0.00    -0.269 OA
HETATM    8  N   UNL     1      41.971 -13.919   6.735  1.00  0.00    -0.323 N 
HETATM    9  C   UNL     1      42.638 -12.548   3.483  1.00  0.00     0.013 A 
HETATM   10  C   UNL     1      43.655 -11.627   3.741  1.00  0.00     0.001 A 
HETATM   11  C   UNL     1      44.138 -11.433   5.048  1.00  0.00     0.009 A 
HETATM   12  H   UNL     1      42.143 -13.984   7.727  1.00  0.00     0.169 HD
ENDROOT
BRANCH   5  13
HETATM   13  C   UNL     1      41.422 -15.459   3.673  1.00  0.00     0.018 A 
HETATM   14  C   UNL     1      42.437 -16.471   3.857  1.00  0.00     0.002 A 
HETATM   15  C   UNL     1      42.393 -17.319   2.748  1.00  0.00     0.043 A 
HETATM   16  C   UNL     1      43.393 -16.752   4.858  1.00  0.00     0.014 A 
HETATM   17  C   UNL     1      43.249 -18.417   2.588  1.00  0.00     0.030 A 
HETATM   18  N   UNL     1      41.393 -16.864   1.925  1.00  0.00    -0.365 N 
HETATM   19  C   UNL     1      44.189 -18.661   3.591  1.00  0.00     0.002 A 
HETATM   20  C   UNL     1      44.262 -17.842   4.712  1.00  0.00     0.001 A 
HETATM   21  H   UNL     1      41.125 -17.297   1.052  1.00  0.00     0.165 HD
HETATM   22  C   UNL     1      40.811 -15.753   2.462  1.00  0.00     0.100 A 
ENDBRANCH   5  13
BRANCH   5  23
HETATM   23  O   UNL     1      39.808 -13.700   4.189  1.00  0.00    -0.371 OA
HETATM   24  H   UNL     1      39.368 -14.318   3.584  1.00  0.00     0.212 HD
ENDBRANCH   5  23
TORSDOF 2
ENDMDL
MODEL 2
REMARK VINA RESULT:      -8.2      1.672      2.142
REMARK  2 active torsions:
REMARK  status: ('A' for Active; 'I' for Inactive)
REMARK    1  A    between atoms: C_5  and  C_7 
REMARK    2  A    between atoms: C_5  and  O_6 
ROOT
HETATM    1  C   UNL     1      41.652 -10.132   6.224  1.00  0.00     0.050 C 
HETATM    2  C   UNL     1      41.983 -11.196   5.225  1.00  0.00    -0.035 A 
HETATM    3  C   UNL     1      41.529 -12.500   5.342  1.00  0.00     0.051 A 
HETATM    4  C   UNL     1      41.867 -13.503   4.425  1.00  0.00     0.018 A 
HETATM    5  C   UNL     1      41.183 -14.795   4.813  1.00  0.00     0.198 A 
HETATM    6  C   UNL     1      40.462 -14.381   6.144  1.00  0.00     0.266 A 
HETATM    7  O   UNL     1      39.755 -15.058   6.874  1.00  0.00    -0.269 OA
HETATM    8  N   UNL     1      40.714 -13.022   6.338  1.00  0.00    -0.323 N 
HETATM    9  C   UNL     1      42.684 -13.219   3.342  1.00  0.00     0.013 A 
HETATM   10  C   UNL     1      43.174 -11.919   3.211  1.00  0.00     0.001 A 
HETATM   11  C   UNL     1      42.832 -10.921   4.142  1.00  0.00     0.009 A 
HETATM   12  H   UNL     1      40.341 -12.517   7.128  1.00  0.00     0.169 HD
ENDROOT
BRANCH   5  13
HETATM   13  C   UNL     1      42.234 -15.854   5.028  1.00  0.00     0.018 A 
HETATM   14  C   UNL     1      42.701 -16.880   4.124  1.00  0.00     0.002 A 
HETATM   15  C   UNL     1      43.702 -17.599   4.783  1.00  0.00     0.043 A 
HETATM   16  C   UNL     1      42.372 -17.273   2.808  1.00  0.00     0.014 A 
HETATM   17  C   UNL     1      44.378 -18.680   4.202  1.00  0.00     0.030 A 
HETATM   18  N   UNL     1      43.856 -17.038   6.026  1.00  0.00    -0.365 N 
HETATM   19  C   UNL     1      44.022 -19.048   2.903  1.00  0.00     0.002 A 
HETATM   20  C   UNL     1      43.033 -18.355   2.213  1.00  0.00     0.001 A 
HETATM   21  H   UNL     1      44.526 -17.347   6.717  1.00  0.00     0.165 HD
HETATM   22  C   UNL     1      42.984 -16.001   6.186  1.00  0.00     0.100 A 
ENDBRANCH   5  13
BRANCH   5  23
HETATM   23  O   UNL     1      40.250 -15.145   3.791  1.00  0.00    -0.371 OA
HETATM   24  H   UNL     1      40.068 -16.092   3.896  1.00  0.00     0.212 HD
ENDBRANCH   5  23
TORSDOF 2
ENDMDL
MODEL 3
REMARK VINA RESULT:      -8.1      1.387      5.308
REMARK  2 active torsions:
REMARK  status: ('A' for Active; 'I' for Inactive)
REMARK    1  A    between atoms: C_5  and  C_7 
REMARK    2  A    between atoms: C_5  and  O_6 
ROOT
HETATM    1  C   UNL     1      44.028 -18.566   2.412  1.00  0.00     0.050 C 
HETATM    2  C   UNL     1      43.536 -18.000   3.707  1.00  0.00    -0.035 A 
HETATM    3  C   UNL     1      42.412 -17.193   3.791  1.00  0.00     0.051 A 
HETATM    4  C   UNL     1      41.970 -16.636   4.997  1.00  0.00     0.018 A 
HETATM    5  C   UNL     1      40.704 -15.844   4.756  1.00  0.00     0.198 A 
HETATM    6  C   UNL     1      40.541 -15.979   3.201  1.00  0.00     0.266 A 
HETATM    7  O   UNL     1      39.666 -15.525   2.480  1.00  0.00    -0.269 OA
HETATM    8  N   UNL     1      41.575 -16.803   2.753  1.00  0.00    -0.323 N 
HETATM    9  C   UNL     1      42.656 -16.880   6.177  1.00  0.00     0.013 A 
HETATM   10  C   UNL     1      43.804 -17.671   6.119  1.00  0.00     0.001 A 
HETATM   11  C   UNL     1      44.240 -18.221   4.900  1.00  0.00     0.009 A 
HETATM   12  H   UNL     1      41.677 -17.052   1.781  1.00  0.00     0.169 HD
ENDROOT
BRANCH   5  13
HETATM   13  C   UNL     1      40.933 -14.420   5.193  1.00  0.00     0.018 A 
HETATM   14  C   UNL     1      41.832 -13.427   4.652  1.00  0.00     0.002 A 
HETATM   15  C   UNL     1      41.659 -12.253   5.389  1.00  0.00     0.043 A 
HETATM   16  C   UNL     1      42.782 -13.409   3.606  1.00  0.00     0.014 A 
HETATM   17  C   UNL     1      42.381 -11.078   5.140  1.00  0.00     0.030 A 
HETATM   18  N   UNL     1      40.691 -12.502   6.331  1.00  0.00    -0.365 N 
HETATM   19  C   UNL     1      43.318 -11.097   4.106  1.00  0.00     0.002 A 
HETATM   20  C   UNL     1      43.517 -12.245   3.347  1.00  0.00     0.001 A 
HETATM   21  H   UNL     1      40.350 -11.823   6.996  1.00  0.00     0.165 HD
HETATM   22  C   UNL     1      40.255 -13.790   6.228  1.00  0.00     0.100 A 
ENDBRANCH   5  13
BRANCH   5  23
HETATM   23  O   UNL     1      39.631 -16.469   5.459  1.00  0.00    -0.371 OA
HETATM   24  H   UNL     1      39.007 -15.764   5.693  1.00  0.00     0.212 HD
ENDBRANCH   5  23
TORSDOF 2
ENDMDL
MODEL 4
REMARK VINA RESULT:      -7.8      1.430      5.431
REMARK  2 active torsions:
REMARK  status: ('A' for Active; 'I' for Inactive)
REMARK    1  A    between atoms: C_5  and  C_7 
REMARK    2  A    between atoms: C_5  and  O_6 
ROOT
HETATM    1  C   UNL     1      43.411 -19.676   1.896  1.00  0.00     0.050 C 
HETATM    2  C   UNL     1      43.507 -18.712   3.037  1.00  0.00    -0.035 A 
HETATM    3  C   UNL     1      42.695 -17.594   3.142  1.00  0.00     0.051 A 
HETATM    4  C   UNL     1      42.808 -16.674   4.192  1.00  0.00     0.018 A 
HETATM    5  C   UNL     1      41.758 -15.596   4.037  1.00  0.00     0.198 A 
HETATM    6  C   UNL     1      41.079 -16.013   2.685  1.00  0.00     0.266 A 
HETATM    7  O   UNL     1      40.154 -15.476   2.095  1.00  0.00    -0.269 OA
HETATM    8  N   UNL     1      41.689 -17.198   2.271  1.00  0.00    -0.323 N 
HETATM    9  C   UNL     1      43.756 -16.856   5.187  1.00  0.00     0.013 A 
HETATM   10  C   UNL     1      44.603 -17.962   5.095  1.00  0.00     0.001 A 
HETATM   11  C   UNL     1      44.483 -18.876   4.033  1.00  0.00     0.009 A 
HETATM   12  H   UNL     1      41.412 -17.675   1.426  1.00  0.00     0.169 HD
ENDROOT
BRANCH   5  13
HETATM   13  C   UNL     1      42.446 -14.258   3.953  1.00  0.00     0.018 A 
HETATM   14  C   UNL     1      43.045 -13.466   5.003  1.00  0.00     0.002 A 
HETATM   15  C   UNL     1      43.574 -12.315   4.414  1.00  0.00     0.043 A 
HETATM   16  C   UNL     1      43.189 -13.612   6.400  1.00  0.00     0.014 A 
HETATM   17  C   UNL     1      44.227 -11.312   5.143  1.00  0.00     0.030 A 
HETATM   18  N   UNL     1      43.328 -12.397   3.066  1.00  0.00    -0.365 N 
HETATM   19  C   UNL     1      44.344 -11.483   6.523  1.00  0.00     0.002 A 
HETATM   20  C   UNL     1      43.833 -12.616   7.146  1.00  0.00     0.001 A 
HETATM   21  H   UNL     1      43.615 -11.705   2.387  1.00  0.00     0.165 HD
HETATM   22  C   UNL     1      42.652 -13.546   2.779  1.00  0.00     0.100 A 
ENDBRANCH   5  13
BRANCH   5  23
HETATM   23  O   UNL     1      40.850 -15.679   5.134  1.00  0.00    -0.371 OA
HETATM   24  H   UNL     1      39.988 -15.381   4.802  1.00  0.00     0.212 HD
ENDBRANCH   5  23
TORSDOF 2
ENDMDL
MODEL 5
REMARK VINA RESULT:      -7.8      2.318      3.072
REMARK  2 active torsions:
REMARK  status: ('A' for Active; 'I' for Inactive)
REMARK    1  A    between atoms: C_5  and  C_7 
REMARK    2  A    between atoms: C_5  and  O_6 
ROOT
HETATM    1  C   UNL     1      39.865 -10.900   3.991  1.00  0.00     0.050 C 
HETATM    2  C   UNL     1      41.126 -11.619   3.627  1.00  0.00    -0.035 A 
HETATM    3  C   UNL     1      41.141 -12.942   3.216  1.00  0.00     0.051 A 
HETATM    4  C   UNL     1      42.324 -13.625   2.908  1.00  0.00     0.018 A 
HETATM    5  C   UNL     1      41.996 -15.031   2.459  1.00  0.00     0.198 A 
HETATM    6  C   UNL     1      40.437 -15.060   2.636  1.00  0.00     0.266 A 
HETATM    7  O   UNL     1      39.657 -15.972   2.407  1.00  0.00    -0.269 OA
HETATM    8  N   UNL     1      40.050 -13.787   3.057  1.00  0.00    -0.323 N 
HETATM    9  C   UNL     1      43.550 -12.985   3.003  1.00  0.00     0.013 A 
HETATM   10  C   UNL     1      43.568 -11.658   3.435  1.00  0.00     0.001 A 
HETATM   11  C   UNL     1      42.372 -10.984   3.747  1.00  0.00     0.009 A 
HETATM   12  H   UNL     1      39.084 -13.551   3.227  1.00  0.00     0.169 HD
ENDROOT
BRANCH   5  13
HETATM   13  C   UNL     1      42.701 -16.007   3.367  1.00  0.00     0.018 A 
HETATM   14  C   UNL     1      43.023 -17.398   3.146  1.00  0.00     0.002 A 
HETATM   15  C   UNL     1      43.699 -17.860   4.278  1.00  0.00     0.043 A 
HETATM   16  C   UNL     1      42.804 -18.316   2.095  1.00  0.00     0.014 A 
HETATM   17  C   UNL     1      44.158 -19.176   4.412  1.00  0.00     0.030 A 
HETATM   18  N   UNL     1      43.804 -16.804   5.149  1.00  0.00    -0.365 N 
HETATM   19  C   UNL     1      43.918 -20.060   3.359  1.00  0.00     0.002 A 
HETATM   20  C   UNL     1      43.250 -19.638   2.215  1.00  0.00     0.001 A 
HETATM   21  H   UNL     1      44.264 -16.845   6.049  1.00  0.00     0.165 HD
HETATM   22  C   UNL     1      43.209 -15.696   4.621  1.00  0.00     0.100 A 
ENDBRANCH   5  13
BRANCH   5  23
HETATM   23  O   UNL     1      42.378 -15.178   1.093  1.00  0.00    -0.371 OA
HETATM   24  H   UNL     1      42.671 -14.303   0.793  1.00  0.00     0.212 HD
ENDBRANCH   5  23
TORSDOF 2
ENDMDL
MODEL 6
REMARK VINA RESULT:      -7.5      2.331      3.484
REMARK  2 active torsions:
REMARK  status: ('A' for Active; 'I' for Inactive)
REMARK    1  A    between atoms: C_5  and  C_7 
REMARK    2  A    between atoms: C_5  and  O_6 
ROOT
HETATM    1  C   UNL     1      43.636  -9.853   9.693  1.00  0.00     0.050 C 
HETATM    2  C   UNL     1      44.235 -10.360   8.419  1.00  0.00    -0.035 A 
HETATM    3  C   UNL     1      43.465 -10.750   7.334  1.00  0.00     0.051 A 
HETATM    4  C   UNL     1      44.023 -11.256   6.154  1.00  0.00     0.018 A 
HETATM    5  C   UNL     1      42.924 -11.550   5.158  1.00  0.00     0.198 A 
HETATM    6  C   UNL     1      41.643 -11.199   5.994  1.00  0.00     0.266 A 
HETATM    7  O   UNL     1      40.470 -11.255   5.657  1.00  0.00    -0.269 OA
HETATM    8  N   UNL     1      42.080 -10.724   7.231  1.00  0.00    -0.323 N 
HETATM    9  C   UNL     1      45.398 -11.385   6.025  1.00  0.00     0.013 A 
HETATM   10  C   UNL     1      46.197 -11.019   7.110  1.00  0.00     0.001 A 
HETATM   11  C   UNL     1      45.623 -10.517   8.292  1.00  0.00     0.009 A 
HETATM   12  H   UNL     1      41.435 -10.418   7.944  1.00  0.00     0.169 HD
ENDROOT
BRANCH   5  13
HETATM   13  C   UNL     1      42.989 -13.008   4.780  1.00  0.00     0.018 A 
HETATM   14  C   UNL     1      43.004 -14.176   5.630  1.00  0.00     0.002 A 
HETATM   15  C   UNL     1      43.049 -15.300   4.802  1.00  0.00     0.043 A 
HETATM   16  C   UNL     1      42.986 -14.392   7.026  1.00  0.00     0.014 A 
HETATM   17  C   UNL     1      43.081 -16.612   5.292  1.00  0.00     0.030 A 
HETATM   18  N   UNL     1      43.047 -14.851   3.504  1.00  0.00    -0.365 N 
HETATM   19  C   UNL     1      43.071 -16.790   6.676  1.00  0.00     0.002 A 
HETATM   20  C   UNL     1      43.025 -15.697   7.534  1.00  0.00     0.001 A 
HETATM   21  H   UNL     1      43.059 -15.449   2.690  1.00  0.00     0.165 HD
HETATM   22  C   UNL     1      43.017 -13.488   3.478  1.00  0.00     0.100 A 
ENDBRANCH   5  13
BRANCH   5  23
HETATM   23  O   UNL     1      43.078 -10.683   4.035  1.00  0.00    -0.371 OA
HETATM   24  H   UNL     1      42.210 -10.281   3.875  1.00  0.00     0.212 HD
ENDBRANCH   5  23
TORSDOF 2
ENDMDL
MODEL 7
REMARK VINA RESULT:      -7.5     15.248     16.799
REMARK  2 active torsions:
REMARK  status: ('A' for Active; 'I' for Inactive)
REMARK    1  A    between atoms: C_5  and  C_7 
REMARK    2  A    between atoms: C_5  and  O_6 
ROOT
HETATM    1  C   UNL     1      50.962 -30.979   2.976  1.00  0.00     0.050 C 
HETATM    2  C   UNL     1      50.471 -30.637   1.604  1.00  0.00    -0.035 A 
HETATM    3  C   UNL     1      49.318 -29.901   1.385  1.00  0.00     0.051 A 
HETATM    4  C   UNL     1      48.840 -29.609   0.101  1.00  0.00     0.018 A 
HETATM    5  C   UNL     1      47.591 -28.762   0.205  1.00  0.00     0.198 A 
HETATM    6  C   UNL     1      47.395 -28.684   1.760  1.00  0.00     0.266 A 
HETATM    7  O   UNL     1      46.525 -28.106   2.394  1.00  0.00    -0.269 OA
HETATM    8  N   UNL     1      48.469 -29.360   2.341  1.00  0.00    -0.323 N 
HETATM    9  C   UNL     1      49.521 -30.055  -1.021  1.00  0.00     0.013 A 
HETATM   10  C   UNL     1      50.674 -30.818  -0.830  1.00  0.00     0.001 A 
HETATM   11  C   UNL     1      51.141 -31.109   0.465  1.00  0.00     0.009 A 
HETATM   12  H   UNL     1      48.574 -29.436   3.342  1.00  0.00     0.169 HD
ENDROOT
BRANCH   5  13
HETATM   13  C   UNL     1      46.460 -29.479  -0.487  1.00  0.00     0.018 A 
HETATM   14  C   UNL     1      45.818 -29.178  -1.746  1.00  0.00     0.002 A 
HETATM   15  C   UNL     1      44.839 -30.151  -1.963  1.00  0.00     0.043 A 
HETATM   16  C   UNL     1      45.969 -28.172  -2.726  1.00  0.00     0.014 A 
HETATM   17  C   UNL     1      44.011 -30.167  -3.093  1.00  0.00     0.030 A 
HETATM   18  N   UNL     1      44.883 -31.018  -0.899  1.00  0.00    -0.365 N 
HETATM   19  C   UNL     1      44.180 -29.153  -4.037  1.00  0.00     0.002 A 
HETATM   20  C   UNL     1      45.145 -28.168  -3.859  1.00  0.00     0.001 A 
HETATM   21  H   UNL     1      44.293 -31.833  -0.797  1.00  0.00     0.165 HD
HETATM   22  C   UNL     1      45.840 -30.625  -0.011  1.00  0.00     0.100 A 
ENDBRANCH   5  13
BRANCH   5  23
HETATM   23  O   UNL     1      47.858 -27.480  -0.361  1.00  0.00    -0.371 OA
HETATM   24  H   UNL     1      48.752 -27.233  -0.075  1.00  0.00     0.212 HD
ENDBRANCH   5  23
TORSDOF 2
ENDMDL
MODEL 8
REMARK VINA RESULT:      -7.4      1.749      5.583
REMARK  2 active torsions:
REMARK  status: ('A' for Active; 'I' for Inactive)
REMARK    1  A    between atoms: C_5  and  C_7 
REMARK    2  A    between atoms: C_5  and  O_6 
ROOT
HETATM    1  C   UNL     1      43.686 -19.404   2.323  1.00  0.00     0.050 C 
HETATM    2  C   UNL     1      43.550 -18.335   3.362  1.00  0.00    -0.035 A 
HETATM    3  C   UNL     1      42.628 -17.305   3.259  1.00  0.00     0.051 A 
HETATM    4  C   UNL     1      42.524 -16.286   4.214  1.00  0.00     0.018 A 
HETATM    5  C   UNL     1      41.403 -15.345   3.831  1.00  0.00     0.198 A 
HETATM    6  C   UNL     1      40.938 -15.954   2.462  1.00  0.00     0.266 A 
HETATM    7  O   UNL     1      40.044 -15.576   1.720  1.00  0.00    -0.269 OA
HETATM    8  N   UNL     1      41.703 -17.101   2.244  1.00  0.00    -0.323 N 
HETATM    9  C   UNL     1      43.357 -16.273   5.322  1.00  0.00     0.013 A 
HETATM   10  C   UNL     1      44.310 -17.286   5.441  1.00  0.00     0.001 A 
HETATM   11  C   UNL     1      44.408 -18.301   4.472  1.00  0.00     0.009 A 
HETATM   12  H   UNL     1      41.578 -17.680   1.427  1.00  0.00     0.169 HD
ENDROOT
BRANCH   5  13
HETATM   13  C   UNL     1      41.966 -13.954   3.686  1.00  0.00     0.018 A 
HETATM   14  C   UNL     1      41.727 -12.779   4.491  1.00  0.00     0.002 A 
HETATM   15  C   UNL     1      42.500 -11.741   3.964  1.00  0.00     0.043 A 
HETATM   16  C   UNL     1      40.925 -12.490   5.618  1.00  0.00     0.014 A 
HETATM   17  C   UNL     1      42.509 -10.446   4.496  1.00  0.00     0.030 A 
HETATM   18  N   UNL     1      43.194 -12.252   2.895  1.00  0.00    -0.365 N 
HETATM   19  C   UNL     1      41.699 -10.192   5.604  1.00  0.00     0.002 A 
HETATM   20  C   UNL     1      40.917 -11.198   6.160  1.00  0.00     0.001 A 
HETATM   21  H   UNL     1      43.847 -11.727   2.330  1.00  0.00     0.165 HD
HETATM   22  C   UNL     1      42.881 -13.568   2.716  1.00  0.00     0.100 A 
ENDBRANCH   5  13
BRANCH   5  23
HETATM   23  O   UNL     1      40.380 -15.423   4.822  1.00  0.00    -0.371 OA
HETATM   24  H   UNL     1      39.909 -14.576   4.800  1.00  0.00     0.212 HD
ENDBRANCH   5  23
TORSDOF 2
ENDMDL
MODEL 9
REMARK VINA RESULT:      -7.3      2.187      3.559
REMARK  2 active torsions:
REMARK  status: ('A' for Active; 'I' for Inactive)
REMARK    1  A    between atoms: C_5  and  C_7 
REMARK    2  A    between atoms: C_5  and  O_6 
ROOT
HETATM    1  C   UNL     1      44.132  -9.426   9.562  1.00  0.00     0.050 C 
HETATM    2  C   UNL     1      44.507 -10.133   8.297  1.00  0.00    -0.035 A 
HETATM    3  C   UNL     1      43.565 -10.592   7.390  1.00  0.00     0.051 A 
HETATM    4  C   UNL     1      43.914 -11.283   6.222  1.00  0.00     0.018 A 
HETATM    5  C   UNL     1      42.666 -11.610   5.434  1.00  0.00     0.198 A 
HETATM    6  C   UNL     1      41.544 -11.058   6.383  1.00  0.00     0.266 A 
HETATM    7  O   UNL     1      40.333 -11.062   6.219  1.00  0.00    -0.269 OA
HETATM    8  N   UNL     1      42.185 -10.470   7.474  1.00  0.00    -0.323 N 
HETATM    9  C   UNL     1      45.245 -11.535   5.926  1.00  0.00     0.013 A 
HETATM   10  C   UNL     1      46.214 -11.103   6.832  1.00  0.00     0.001 A 
HETATM   11  C   UNL     1      45.850 -10.414   8.004  1.00  0.00     0.009 A 
HETATM   12  H   UNL     1      41.670 -10.028   8.221  1.00  0.00     0.169 HD
ENDROOT
BRANCH   5  13
HETATM   13  C   UNL     1      42.586 -13.104   5.249  1.00  0.00     0.018 A 
HETATM   14  C   UNL     1      42.852 -13.898   4.072  1.00  0.00     0.002 A 
HETATM   15  C   UNL     1      42.660 -15.239   4.414  1.00  0.00     0.043 A 
HETATM   16  C   UNL     1      43.235 -13.611   2.743  1.00  0.00     0.014 A 
HETATM   17  C   UNL     1      42.825 -16.293   3.507  1.00  0.00     0.030 A 
HETATM   18  N   UNL     1      42.308 -15.274   5.741  1.00  0.00    -0.365 N 
HETATM   19  C   UNL     1      43.196 -15.974   2.200  1.00  0.00     0.002 A 
HETATM   20  C   UNL     1      43.399 -14.652   1.820  1.00  0.00     0.001 A 
HETATM   21  H   UNL     1      42.122 -16.119   6.264  1.00  0.00     0.165 HD
HETATM   22  C   UNL     1      42.255 -14.009   6.248  1.00  0.00     0.100 A 
ENDBRANCH   5  13
BRANCH   5  23
HETATM   23  O   UNL     1      42.707 -10.904   4.195  1.00  0.00    -0.371 OA
HETATM   24  H   UNL     1      43.482 -11.236   3.714  1.00  0.00     0.212 HD
ENDBRANCH   5  23
TORSDOF 2
ENDMDL
MODEL 10
REMARK VINA RESULT:      -6.9     16.158     17.087
REMARK  2 active torsions:
REMARK  status: ('A' for Active; 'I' for Inactive)
REMARK    1  A    between atoms: C_5  and  C_7 
REMARK    2  A    between atoms: C_5  and  O_6 
ROOT
HETATM    1  C   UNL     1      49.717 -29.522   4.090  1.00  0.00     0.050 C 
HETATM    2  C   UNL     1      48.600 -29.925   3.179  1.00  0.00    -0.035 A 
HETATM    3  C   UNL     1      48.765 -30.069   1.811  1.00  0.00     0.051 A 
HETATM    4  C   UNL     1      47.711 -30.413   0.955  1.00  0.00     0.018 A 
HETATM    5  C   UNL     1      48.226 -30.526  -0.463  1.00  0.00     0.198 A 
HETATM    6  C   UNL     1      49.730 -30.114  -0.283  1.00  0.00     0.266 A 
HETATM    7  O   UNL     1      50.610 -30.042  -1.127  1.00  0.00    -0.269 OA
HETATM    8  N   UNL     1      49.933 -29.895   1.080  1.00  0.00    -0.323 N 
HETATM    9  C   UNL     1      46.438 -30.631   1.458  1.00  0.00     0.013 A 
HETATM   10  C   UNL     1      46.238 -30.472   2.831  1.00  0.00     0.001 A 
HETATM   11  C   UNL     1      47.303 -30.120   3.679  1.00  0.00     0.009 A 
HETATM   12  H   UNL     1      50.833 -29.630   1.451  1.00  0.00     0.169 HD
ENDROOT
BRANCH   5  13
HETATM   13  C   UNL     1      47.461 -29.563  -1.334  1.00  0.00     0.018 A 
HETATM   14  C   UNL     1      46.243 -29.772  -2.083  1.00  0.00     0.002 A 
HETATM   15  C   UNL     1      45.922 -28.567  -2.713  1.00  0.00     0.043 A 
HETATM   16  C   UNL     1      45.379 -30.870  -2.292  1.00  0.00     0.014 A 
HETATM   17  C   UNL     1      44.799 -28.407  -3.534  1.00  0.00     0.030 A 
HETATM   18  N   UNL     1      46.885 -27.654  -2.360  1.00  0.00    -0.365 N 
HETATM   19  C   UNL     1      43.970 -29.513  -3.726  1.00  0.00     0.002 A 
HETATM   20  C   UNL     1      44.254 -30.730  -3.115  1.00  0.00     0.001 A 
HETATM   21  H   UNL     1      46.898 -26.689  -2.659  1.00  0.00     0.165 HD
HETATM   22  C   UNL     1      47.810 -28.237  -1.544  1.00  0.00     0.100 A 
ENDBRANCH   5  13
BRANCH   5  23
HETATM   23  O   UNL     1      48.095 -31.880  -0.893  1.00  0.00    -0.371 OA
HETATM   24  H   UNL     1      47.653 -31.854  -1.756  1.00  0.00     0.212 HD
ENDBRANCH   5  23
TORSDOF 2
ENDMDL
