MODEL 1
REMARK VINA RESULT:      -8.7      0.000      0.000
REMARK  5 active torsions:
REMARK  status: ('A' for Active; 'I' for Inactive)
REMARK    1  A    between atoms: C_4  and  N_5 
REMARK       I    between atoms: N_5  and  C_6 
REMARK    2  A    between atoms: C_6  and  C_7 
REMARK    3  A    between atoms: N_9  and  C_10 
REMARK    4  A    between atoms: C_10  and  C_11 
REMARK    5  A    between atoms: C_14  and  O_15 
ROOT
HETATM    1  C   UNL     1      41.182 -13.520   1.552  1.00  0.00     0.105 C 
HETATM    2  C   UNL     1      41.662 -12.090   1.725  1.00  0.00     0.140 C 
HETATM    3  N   UNL     1      41.173 -11.730   3.034  1.00  0.00    -0.347 N 
HETATM    4  C   UNL     1      40.086 -12.497   3.418  1.00  0.00     0.221 C 
HETATM    5  O   UNL     1      39.374 -12.316   4.391  1.00  0.00    -0.273 OA
HETATM    6  C   UNL     1      39.925 -13.616   2.418  1.00  0.00     0.118 C 
ENDROOT
BRANCH   1   7
HETATM    7  C   UNL     1      42.256 -14.528   1.951  1.00  0.00     0.228 C 
HETATM    8  N   UNL     1      41.770 -15.697   2.489  1.00  0.00    -0.325 N 
HETATM    9  H   UNL     1      40.760 -15.822   2.572  1.00  0.00     0.169 HD
HETATM   10  O   UNL     1      43.442 -14.251   1.788  1.00  0.00    -0.273 OA
BRANCH   8  11
HETATM   11  C   UNL     1      42.477 -16.813   2.997  1.00  0.00     0.065 A 
HETATM   12  C   UNL     1      42.779 -17.951   2.242  1.00  0.00     0.038 A 
HETATM   13  C   UNL     1      43.497 -19.008   2.811  1.00  0.00    -0.059 A 
HETATM   14  C   UNL     1      43.806 -20.240   2.012  1.00  0.00     0.048 C 
HETATM   15  C   UNL     1      43.880 -18.926   4.154  1.00  0.00     0.020 A 
HETATM   16  C   UNL     1      43.576 -17.787   4.919  1.00  0.00    -0.005 A 
HETATM   17  C   UNL     1      42.874 -16.710   4.340  1.00  0.00     0.093 A 
HETATM   18  C   UNL     1      43.951 -17.684   6.265  1.00  0.00     0.015 A 
HETATM   19  N   UNL     1      42.572 -15.592   5.045  1.00  0.00    -0.258 NA
HETATM   20  C   UNL     1      42.944 -15.535   6.343  1.00  0.00     0.117 A 
HETATM   21  C   UNL     1      43.628 -16.544   6.991  1.00  0.00     0.020 A 
ENDBRANCH   8  11
ENDBRANCH   1   7
BRANCH   3  22
HETATM   22  C   UNL     1      41.580 -10.515   3.711  1.00  0.00     0.164 C 
BRANCH  22  23
HETATM   23  C   UNL     1      42.457 -10.775   4.910  1.00  0.00    -0.040 A 
HETATM   24  C   UNL     1      42.286 -10.033   6.084  1.00  0.00     0.011 A 
HETATM   25  C   UNL     1      43.078 -10.292   7.205  1.00  0.00     0.037 A 
HETATM   26  C   UNL     1      44.047 -11.296   7.174  1.00  0.00     0.068 A 
HETATM   27  C   UNL     1      44.247 -12.017   5.996  1.00  0.00     0.037 A 
HETATM   28  C   UNL     1      43.456 -11.758   4.871  1.00  0.00     0.011 A 
BRANCH  26  29
HETATM   29  O   UNL     1      44.738 -11.467   8.342  1.00  0.00    -0.356 OA
HETATM   30  C   UNL     1      45.393 -10.317   8.864  1.00  0.00     0.210 C 
ENDBRANCH  26  29
ENDBRANCH  22  23
ENDBRANCH   3  22
TORSDOF 5
ENDMDL
MODEL 2
REMARK VINA RESULT:      -8.6      3.907      6.611
REMARK  5 active torsions:
REMARK  status: ('A' for Active; 'I' for Inactive)
REMARK    1  A    between atoms: C_4  and  N_5 
REMARK       I    between atoms: N_5  and  C_6 
REMARK    2  A    between atoms: C_6  and  C_7 
REMARK    3  A    between atoms: N_9  and  C_10 
REMARK    4  A    between atoms: C_10  and  C_11 
REMARK    5  A    between atoms: C_14  and  O_15 
ROOT
HETATM    1  C   UNL     1      45.550 -10.637   8.600  1.00  0.00     0.105 C 
HETATM    2  C   UNL     1      44.300 -10.553   9.456  1.00  0.00     0.140 C 
HETATM    3  N   UNL     1      43.789  -9.233   9.172  1.00  0.00    -0.347 N 
HETATM    4  C   UNL     1      44.776  -8.375   8.715  1.00  0.00     0.221 C 
HETATM    5  O   UNL     1      44.674  -7.172   8.548  1.00  0.00    -0.273 OA
HETATM    6  C   UNL     1      46.019  -9.189   8.451  1.00  0.00     0.118 C 
ENDROOT
BRANCH   1   7
HETATM    7  C   UNL     1      45.272 -11.311   7.259  1.00  0.00     0.228 C 
HETATM    8  N   UNL     1      44.031 -11.898   7.162  1.00  0.00    -0.325 N 
HETATM    9  H   UNL     1      43.391 -11.839   7.955  1.00  0.00     0.169 HD
HETATM   10  O   UNL     1      46.132 -11.302   6.382  1.00  0.00    -0.273 OA
BRANCH   8  11
HETATM   11  C   UNL     1      43.468 -12.635   6.093  1.00  0.00     0.065 A 
HETATM   12  C   UNL     1      43.246 -12.106   4.817  1.00  0.00     0.038 A 
HETATM   13  C   UNL     1      42.700 -12.903   3.805  1.00  0.00    -0.059 A 
HETATM   14  C   UNL     1      42.440 -12.335   2.441  1.00  0.00     0.048 C 
HETATM   15  C   UNL     1      42.350 -14.226   4.095  1.00  0.00     0.020 A 
HETATM   16  C   UNL     1      42.567 -14.762   5.376  1.00  0.00    -0.005 A 
HETATM   17  C   UNL     1      43.139 -13.967   6.390  1.00  0.00     0.093 A 
HETATM   18  C   UNL     1      42.224 -16.085   5.687  1.00  0.00     0.015 A 
HETATM   19  N   UNL     1      43.373 -14.454   7.634  1.00  0.00    -0.258 NA
HETATM   20  C   UNL     1      43.020 -15.732   7.897  1.00  0.00     0.117 A 
HETATM   21  C   UNL     1      42.449 -16.578   6.966  1.00  0.00     0.020 A 
ENDBRANCH   8  11
ENDBRANCH   1   7
BRANCH   3  22
HETATM   22  C   UNL     1      42.479  -8.794   9.609  1.00  0.00     0.164 C 
BRANCH  22  23
HETATM   23  C   UNL     1      42.321  -8.816  11.108  1.00  0.00    -0.040 A 
HETATM   24  C   UNL     1      43.126  -8.005  11.915  1.00  0.00     0.011 A 
HETATM   25  C   UNL     1      42.961  -8.002  13.302  1.00  0.00     0.037 A 
HETATM   26  C   UNL     1      41.990  -8.804  13.904  1.00  0.00     0.068 A 
HETATM   27  C   UNL     1      41.207  -9.641  13.109  1.00  0.00     0.037 A 
HETATM   28  C   UNL     1      41.371  -9.647  11.719  1.00  0.00     0.011 A 
BRANCH  26  29
HETATM   29  O   UNL     1      41.913  -8.693  15.265  1.00  0.00    -0.356 OA
HETATM   30  C   UNL     1      41.290  -7.517  15.769  1.00  0.00     0.210 C 
ENDBRANCH  26  29
ENDBRANCH  22  23
ENDBRANCH   3  22
TORSDOF 5
ENDMDL
MODEL 3
REMARK VINA RESULT:      -8.3      2.102      6.828
REMARK  5 active torsions:
REMARK  status: ('A' for Active; 'I' for Inactive)
REMARK    1  A    between atoms: C_4  and  N_5 
REMARK       I    between atoms: N_5  and  C_6 
REMARK    2  A    between atoms: C_6  and  C_7 
REMARK    3  A    between atoms: N_9  and  C_10 
REMARK    4  A    between atoms: C_10  and  C_11 
REMARK    5  A    between atoms: C_14  and  O_15 
ROOT
HETATM    1  C   UNL     1      42.482 -12.169   5.367  1.00  0.00     0.105 C 
HETATM    2  C   UNL     1      42.983 -13.449   6.009  1.00  0.00     0.140 C 
HETATM    3  N   UNL     1      41.787 -14.245   6.144  1.00  0.00    -0.347 N 
HETATM    4  C   UNL     1      40.640 -13.471   6.168  1.00  0.00     0.221 C 
HETATM    5  O   UNL     1      39.511 -13.850   6.428  1.00  0.00    -0.273 OA
HETATM    6  C   UNL     1      41.023 -12.055   5.811  1.00  0.00     0.118 C 
ENDROOT
BRANCH   1   7
HETATM    7  C   UNL     1      42.638 -12.201   3.848  1.00  0.00     0.228 C 
HETATM    8  N   UNL     1      41.557 -11.711   3.153  1.00  0.00    -0.325 N 
HETATM    9  H   UNL     1      40.752 -11.356   3.672  1.00  0.00     0.169 HD
HETATM   10  O   UNL     1      43.668 -12.649   3.352  1.00  0.00    -0.273 OA
BRANCH   8  11
HETATM   11  C   UNL     1      41.350 -11.633   1.755  1.00  0.00     0.065 A 
HETATM   12  C   UNL     1      41.615 -10.490   0.993  1.00  0.00     0.038 A 
HETATM   13  C   UNL     1      41.400 -10.495  -0.389  1.00  0.00    -0.059 A 
HETATM   14  C   UNL     1      41.662  -9.265  -1.208  1.00  0.00     0.048 C 
HETATM   15  C   UNL     1      40.886 -11.647  -0.994  1.00  0.00     0.020 A 
HETATM   16  C   UNL     1      40.615 -12.797  -0.234  1.00  0.00    -0.005 A 
HETATM   17  C   UNL     1      40.853 -12.802   1.156  1.00  0.00     0.093 A 
HETATM   18  C   UNL     1      40.101 -13.962  -0.820  1.00  0.00     0.015 A 
HETATM   19  N   UNL     1      40.613 -13.896   1.919  1.00  0.00    -0.258 NA
HETATM   20  C   UNL     1      40.110 -14.997   1.318  1.00  0.00     0.117 A 
HETATM   21  C   UNL     1      39.841 -15.078  -0.035  1.00  0.00     0.020 A 
ENDBRANCH   8  11
ENDBRANCH   1   7
BRANCH   3  22
HETATM   22  C   UNL     1      41.822 -15.646   6.518  1.00  0.00     0.164 C 
BRANCH  22  23
HETATM   23  C   UNL     1      42.473 -16.517   5.473  1.00  0.00    -0.040 A 
HETATM   24  C   UNL     1      43.507 -17.390   5.827  1.00  0.00     0.011 A 
HETATM   25  C   UNL     1      44.091 -18.220   4.867  1.00  0.00     0.037 A 
HETATM   26  C   UNL     1      43.651 -18.194   3.543  1.00  0.00     0.068 A 
HETATM   27  C   UNL     1      42.643 -17.302   3.176  1.00  0.00     0.037 A 
HETATM   28  C   UNL     1      42.057 -16.469   4.136  1.00  0.00     0.011 A 
BRANCH  26  29
HETATM   29  O   UNL     1      44.286 -19.070   2.706  1.00  0.00    -0.356 OA
HETATM   30  C   UNL     1      43.462 -20.021   2.042  1.00  0.00     0.210 C 
ENDBRANCH  26  29
ENDBRANCH  22  23
ENDBRANCH   3  22
TORSDOF 5
ENDMDL
MODEL 4
REMARK VINA RESULT:      -8.2      2.570      3.345
REMARK  5 active torsions:
REMARK  status: ('A' for Active; 'I' for Inactive)
REMARK    1  A    between atoms: C_4  and  N_5 
REMARK       I    between atoms: N_5  and  C_6 
REMARK    2  A    between atoms: C_6  and  C_7 
REMARK    3  A    between atoms: N_9  and  C_10 
REMARK    4  A    between atoms: C_10  and  C_11 
REMARK    5  A    between atoms: C_14  and  O_15 
ROOT
HETATM    1  C   UNL     1      40.801 -13.497  -0.160  1.00  0.00     0.105 C 
HETATM    2  C   UNL     1      41.164 -12.119   0.363  1.00  0.00     0.140 C 
HETATM    3  N   UNL     1      39.888 -11.556   0.734  1.00  0.00    -0.347 N 
HETATM    4  C   UNL     1      38.836 -12.147   0.057  1.00  0.00     0.221 C 
HETATM    5  O   UNL     1      37.674 -11.775   0.047  1.00  0.00    -0.273 OA
HETATM    6  C   UNL     1      39.370 -13.351  -0.681  1.00  0.00     0.118 C 
ENDROOT
BRANCH   1   7
HETATM    7  C   UNL     1      40.932 -14.564   0.924  1.00  0.00     0.228 C 
HETATM    8  N   UNL     1      42.225 -14.832   1.307  1.00  0.00    -0.325 N 
HETATM    9  H   UNL     1      42.989 -14.312   0.874  1.00  0.00     0.169 HD
HETATM   10  O   UNL     1      39.924 -15.108   1.368  1.00  0.00    -0.273 OA
BRANCH   8  11
HETATM   11  C   UNL     1      42.705 -15.780   2.242  1.00  0.00     0.065 A 
HETATM   12  C   UNL     1      42.969 -17.117   1.928  1.00  0.00     0.038 A 
HETATM   13  C   UNL     1      43.459 -17.991   2.904  1.00  0.00    -0.059 A 
HETATM   14  C   UNL     1      43.724 -19.432   2.577  1.00  0.00     0.048 C 
HETATM   15  C   UNL     1      43.651 -17.518   4.206  1.00  0.00     0.020 A 
HETATM   16  C   UNL     1      43.385 -16.177   4.529  1.00  0.00    -0.005 A 
HETATM   17  C   UNL     1      42.914 -15.289   3.542  1.00  0.00     0.093 A 
HETATM   18  C   UNL     1      43.571 -15.683   5.828  1.00  0.00     0.015 A 
HETATM   19  N   UNL     1      42.656 -13.987   3.815  1.00  0.00    -0.258 NA
HETATM   20  C   UNL     1      42.840 -13.551   5.081  1.00  0.00     0.117 A 
HETATM   21  C   UNL     1      43.292 -14.352   6.111  1.00  0.00     0.020 A 
ENDBRANCH   8  11
ENDBRANCH   1   7
BRANCH   3  22
HETATM   22  C   UNL     1      39.770 -10.323   1.487  1.00  0.00     0.164 C 
BRANCH  22  23
HETATM   23  C   UNL     1      39.451 -10.549   2.943  1.00  0.00    -0.040 A 
HETATM   24  C   UNL     1      38.896  -9.521   3.713  1.00  0.00     0.011 A 
HETATM   25  C   UNL     1      38.573  -9.738   5.054  1.00  0.00     0.037 A 
HETATM   26  C   UNL     1      38.794 -10.983   5.646  1.00  0.00     0.068 A 
HETATM   27  C   UNL     1      39.378 -12.003   4.894  1.00  0.00     0.037 A 
HETATM   28  C   UNL     1      39.705 -11.787   3.550  1.00  0.00     0.011 A 
BRANCH  26  29
HETATM   29  O   UNL     1      38.413 -11.074   6.956  1.00  0.00    -0.356 OA
HETATM   30  C   UNL     1      39.113 -10.248   7.878  1.00  0.00     0.210 C 
ENDBRANCH  26  29
ENDBRANCH  22  23
ENDBRANCH   3  22
TORSDOF 5
ENDMDL
MODEL 5
REMARK VINA RESULT:      -8.2      2.059      5.518
REMARK  5 active torsions:
REMARK  status: ('A' for Active; 'I' for Inactive)
REMARK    1  A    between atoms: C_4  and  N_5 
REMARK       I    between atoms: N_5  and  C_6 
REMARK    2  A    between atoms: C_6  and  C_7 
REMARK    3  A    between atoms: N_9  and  C_10 
REMARK    4  A    between atoms: C_10  and  C_11 
REMARK    5  A    between atoms: C_14  and  O_15 
ROOT
HETATM    1  C   UNL     1      39.227 -11.380   2.859  1.00  0.00     0.105 C 
HETATM    2  C   UNL     1      39.081 -12.791   2.318  1.00  0.00     0.140 C 
HETATM    3  N   UNL     1      40.022 -12.828   1.225  1.00  0.00    -0.347 N 
HETATM    4  C   UNL     1      40.300 -11.567   0.727  1.00  0.00     0.221 C 
HETATM    5  O   UNL     1      40.929 -11.306  -0.285  1.00  0.00    -0.273 OA
HETATM    6  C   UNL     1      39.690 -10.549   1.660  1.00  0.00     0.118 C 
ENDROOT
BRANCH   1   7
HETATM    7  C   UNL     1      40.203 -11.323   4.031  1.00  0.00     0.228 C 
HETATM    8  N   UNL     1      41.194 -12.276   3.995  1.00  0.00    -0.325 N 
HETATM    9  H   UNL     1      41.227 -12.929   3.212  1.00  0.00     0.169 HD
HETATM   10  O   UNL     1      40.052 -10.476   4.908  1.00  0.00    -0.273 OA
BRANCH   8  11
HETATM   11  C   UNL     1      42.225 -12.534   4.930  1.00  0.00     0.065 A 
HETATM   12  C   UNL     1      43.308 -11.676   5.149  1.00  0.00     0.038 A 
HETATM   13  C   UNL     1      44.280 -11.992   6.104  1.00  0.00    -0.059 A 
HETATM   14  C   UNL     1      45.455 -11.085   6.327  1.00  0.00     0.048 C 
HETATM   15  C   UNL     1      44.172 -13.192   6.814  1.00  0.00     0.020 A 
HETATM   16  C   UNL     1      43.088 -14.059   6.597  1.00  0.00    -0.005 A 
HETATM   17  C   UNL     1      42.095 -13.731   5.652  1.00  0.00     0.093 A 
HETATM   18  C   UNL     1      42.961 -15.266   7.298  1.00  0.00     0.015 A 
HETATM   19  N   UNL     1      41.031 -14.539   5.423  1.00  0.00    -0.258 NA
HETATM   20  C   UNL     1      40.948 -15.698   6.113  1.00  0.00     0.117 A 
HETATM   21  C   UNL     1      41.878 -16.101   7.052  1.00  0.00     0.020 A 
ENDBRANCH   8  11
ENDBRANCH   1   7
BRANCH   3  22
HETATM   22  C   UNL     1      40.379 -14.059   0.547  1.00  0.00     0.164 C 
BRANCH  22  23
HETATM   23  C   UNL     1      41.270 -14.950   1.375  1.00  0.00    -0.040 A 
HETATM   24  C   UNL     1      42.552 -14.525   1.740  1.00  0.00     0.011 A 
HETATM   25  C   UNL     1      43.368 -15.336   2.531  1.00  0.00     0.037 A 
HETATM   26  C   UNL     1      42.917 -16.581   2.974  1.00  0.00     0.068 A 
HETATM   27  C   UNL     1      41.652 -17.026   2.587  1.00  0.00     0.037 A 
HETATM   28  C   UNL     1      40.833 -16.215   1.792  1.00  0.00     0.011 A 
BRANCH  26  29
HETATM   29  O   UNL     1      43.799 -17.268   3.761  1.00  0.00    -0.356 OA
HETATM   30  C   UNL     1      43.987 -18.643   3.449  1.00  0.00     0.210 C 
ENDBRANCH  26  29
ENDBRANCH  22  23
ENDBRANCH   3  22
TORSDOF 5
ENDMDL
MODEL 6
REMARK VINA RESULT:      -8.1      3.053      7.443
REMARK  5 active torsions:
REMARK  status: ('A' for Active; 'I' for Inactive)
REMARK    1  A    between atoms: C_4  and  N_5 
REMARK       I    between atoms: N_5  and  C_6 
REMARK    2  A    between atoms: C_6  and  C_7 
REMARK    3  A    between atoms: N_9  and  C_10 
REMARK    4  A    between atoms: C_10  and  C_11 
REMARK    5  A    between atoms: C_14  and  O_15 
ROOT
HETATM    1  C   UNL     1      41.382 -12.679   3.397  1.00  0.00     0.105 C 
HETATM    2  C   UNL     1      42.652 -13.077   4.127  1.00  0.00     0.140 C 
HETATM    3  N   UNL     1      42.318 -14.357   4.704  1.00  0.00    -0.347 N 
HETATM    4  C   UNL     1      40.953 -14.521   4.865  1.00  0.00     0.221 C 
HETATM    5  O   UNL     1      40.394 -15.423   5.464  1.00  0.00    -0.273 OA
HETATM    6  C   UNL     1      40.258 -13.381   4.160  1.00  0.00     0.118 C 
ENDROOT
BRANCH   1   7
HETATM    7  C   UNL     1      41.432 -13.071   1.923  1.00  0.00     0.228 C 
HETATM    8  N   UNL     1      40.429 -12.529   1.154  1.00  0.00    -0.325 N 
HETATM    9  H   UNL     1      39.746 -11.911   1.593  1.00  0.00     0.169 HD
HETATM   10  O   UNL     1      42.318 -13.821   1.522  1.00  0.00    -0.273 OA
BRANCH   8  11
HETATM   11  C   UNL     1      40.153 -12.714  -0.222  1.00  0.00     0.065 A 
HETATM   12  C   UNL     1      39.588 -13.879  -0.752  1.00  0.00     0.038 A 
HETATM   13  C   UNL     1      39.330 -13.980  -2.123  1.00  0.00    -0.059 A 
HETATM   14  C   UNL     1      38.743 -15.236  -2.700  1.00  0.00     0.048 C 
HETATM   15  C   UNL     1      39.674 -12.915  -2.961  1.00  0.00     0.020 A 
HETATM   16  C   UNL     1      40.246 -11.744  -2.436  1.00  0.00    -0.005 A 
HETATM   17  C   UNL     1      40.485 -11.630  -1.051  1.00  0.00     0.093 A 
HETATM   18  C   UNL     1      40.597 -10.665  -3.258  1.00  0.00     0.015 A 
HETATM   19  N   UNL     1      41.025 -10.512  -0.508  1.00  0.00    -0.258 NA
HETATM   20  C   UNL     1      41.358  -9.496  -1.335  1.00  0.00     0.117 A 
HETATM   21  C   UNL     1      41.165  -9.525  -2.703  1.00  0.00     0.020 A 
ENDBRANCH   8  11
ENDBRANCH   1   7
BRANCH   3  22
HETATM   22  C   UNL     1      43.311 -15.217   5.317  1.00  0.00     0.164 C 
BRANCH  22  23
HETATM   23  C   UNL     1      43.504 -16.515   4.574  1.00  0.00    -0.040 A 
HETATM   24  C   UNL     1      43.950 -17.656   5.251  1.00  0.00     0.011 A 
HETATM   25  C   UNL     1      44.101 -18.866   4.571  1.00  0.00     0.037 A 
HETATM   26  C   UNL     1      43.808 -18.959   3.209  1.00  0.00     0.068 A 
HETATM   27  C   UNL     1      43.396 -17.817   2.521  1.00  0.00     0.037 A 
HETATM   28  C   UNL     1      43.245 -16.602   3.200  1.00  0.00     0.011 A 
BRANCH  26  29
HETATM   29  O   UNL     1      43.974 -20.202   2.666  1.00  0.00    -0.356 OA
HETATM   30  C   UNL     1      44.017 -21.292   3.581  1.00  0.00     0.210 C 
ENDBRANCH  26  29
ENDBRANCH  22  23
ENDBRANCH   3  22
TORSDOF 5
ENDMDL
MODEL 7
REMARK VINA RESULT:      -8.1      1.278      1.609
REMARK  5 active torsions:
REMARK  status: ('A' for Active; 'I' for Inactive)
REMARK    1  A    between atoms: C_4  and  N_5 
REMARK       I    between atoms: N_5  and  C_6 
REMARK    2  A    between atoms: C_6  and  C_7 
REMARK    3  A    between atoms: N_9  and  C_10 
REMARK    4  A    between atoms: C_10  and  C_11 
REMARK    5  A    between atoms: C_14  and  O_15 
ROOT
HETATM    1  C   UNL     1      40.168 -13.581   1.250  1.00  0.00     0.105 C 
HETATM    2  C   UNL     1      41.373 -12.661   1.174  1.00  0.00     0.140 C 
HETATM    3  N   UNL     1      41.125 -11.699   2.220  1.00  0.00    -0.347 N 
HETATM    4  C   UNL     1      39.780 -11.597   2.532  1.00  0.00     0.221 C 
HETATM    5  O   UNL     1      39.262 -10.763   3.255  1.00  0.00    -0.273 OA
HETATM    6  C   UNL     1      39.048 -12.709   1.821  1.00  0.00     0.118 C 
ENDROOT
BRANCH   1   7
HETATM    7  C   UNL     1      40.452 -14.814   2.103  1.00  0.00     0.228 C 
HETATM    8  N   UNL     1      41.781 -15.012   2.394  1.00  0.00    -0.325 N 
HETATM    9  H   UNL     1      42.470 -14.343   2.050  1.00  0.00     0.169 HD
HETATM   10  O   UNL     1      39.523 -15.535   2.459  1.00  0.00    -0.273 OA
BRANCH   8  11
HETATM   11  C   UNL     1      42.395 -16.065   3.116  1.00  0.00     0.065 A 
HETATM   12  C   UNL     1      42.950 -17.199   2.514  1.00  0.00     0.038 A 
HETATM   13  C   UNL     1      43.554 -18.190   3.295  1.00  0.00    -0.059 A 
HETATM   14  C   UNL     1      44.133 -19.419   2.656  1.00  0.00     0.048 C 
HETATM   15  C   UNL     1      43.568 -18.047   4.686  1.00  0.00     0.020 A 
HETATM   16  C   UNL     1      43.009 -16.912   5.296  1.00  0.00    -0.005 A 
HETATM   17  C   UNL     1      42.420 -15.900   4.510  1.00  0.00     0.093 A 
HETATM   18  C   UNL     1      43.012 -16.749   6.688  1.00  0.00     0.015 A 
HETATM   19  N   UNL     1      41.880 -14.787   5.064  1.00  0.00    -0.258 NA
HETATM   20  C   UNL     1      41.896 -14.671   6.410  1.00  0.00     0.117 A 
HETATM   21  C   UNL     1      42.445 -15.615   7.256  1.00  0.00     0.020 A 
ENDBRANCH   8  11
ENDBRANCH   1   7
BRANCH   3  22
HETATM   22  C   UNL     1      42.128 -10.747   2.656  1.00  0.00     0.164 C 
BRANCH  22  23
HETATM   23  C   UNL     1      42.659 -11.043   4.035  1.00  0.00    -0.040 A 
HETATM   24  C   UNL     1      43.803 -11.832   4.197  1.00  0.00     0.011 A 
HETATM   25  C   UNL     1      44.314 -12.084   5.473  1.00  0.00     0.037 A 
HETATM   26  C   UNL     1      43.696 -11.549   6.604  1.00  0.00     0.068 A 
HETATM   27  C   UNL     1      42.535 -10.789   6.453  1.00  0.00     0.037 A 
HETATM   28  C   UNL     1      42.020 -10.537   5.176  1.00  0.00     0.011 A 
BRANCH  26  29
HETATM   29  O   UNL     1      44.306 -11.847   7.791  1.00  0.00    -0.356 OA
HETATM   30  C   UNL     1      44.320 -10.817   8.772  1.00  0.00     0.210 C 
ENDBRANCH  26  29
ENDBRANCH  22  23
ENDBRANCH   3  22
TORSDOF 5
ENDMDL
MODEL 8
REMARK VINA RESULT:      -8.0      2.634      6.324
REMARK  5 active torsions:
REMARK  status: ('A' for Active; 'I' for Inactive)
REMARK    1  A    between atoms: C_4  and  N_5 
REMARK       I    between atoms: N_5  and  C_6 
REMARK    2  A    between atoms: C_6  and  C_7 
REMARK    3  A    between atoms: N_9  and  C_10 
REMARK    4  A    between atoms: C_10  and  C_11 
REMARK    5  A    between atoms: C_14  and  O_15 
ROOT
HETATM    1  C   UNL     1      41.543 -16.649   2.363  1.00  0.00     0.105 C 
HETATM    2  C   UNL     1      40.917 -16.362   3.716  1.00  0.00     0.140 C 
HETATM    3  N   UNL     1      42.048 -16.356   4.612  1.00  0.00    -0.347 N 
HETATM    4  C   UNL     1      43.118 -17.079   4.114  1.00  0.00     0.221 C 
HETATM    5  O   UNL     1      44.137 -17.377   4.712  1.00  0.00    -0.273 OA
HETATM    6  C   UNL     1      42.812 -17.442   2.681  1.00  0.00     0.118 C 
ENDROOT
BRANCH   1   7
HETATM    7  C   UNL     1      41.825 -15.364   1.589  1.00  0.00     0.228 C 
HETATM    8  N   UNL     1      40.704 -14.728   1.110  1.00  0.00    -0.325 N 
HETATM    9  H   UNL     1      39.785 -15.128   1.305  1.00  0.00     0.169 HD
HETATM   10  O   UNL     1      42.985 -14.989   1.433  1.00  0.00    -0.273 OA
BRANCH   8  11
HETATM   11  C   UNL     1      40.604 -13.554   0.326  1.00  0.00     0.065 A 
HETATM   12  C   UNL     1      41.138 -12.318   0.706  1.00  0.00     0.038 A 
HETATM   13  C   UNL     1      41.013 -11.205  -0.132  1.00  0.00    -0.059 A 
HETATM   14  C   UNL     1      41.566  -9.872   0.280  1.00  0.00     0.048 C 
HETATM   15  C   UNL     1      40.319 -11.336  -1.339  1.00  0.00     0.020 A 
HETATM   16  C   UNL     1      39.777 -12.574  -1.725  1.00  0.00    -0.005 A 
HETATM   17  C   UNL     1      39.922 -13.702  -0.893  1.00  0.00     0.093 A 
HETATM   18  C   UNL     1      39.079 -12.727  -2.930  1.00  0.00     0.015 A 
HETATM   19  N   UNL     1      39.422 -14.914  -1.237  1.00  0.00    -0.258 NA
HETATM   20  C   UNL     1      38.747 -15.019  -2.403  1.00  0.00     0.117 A 
HETATM   21  C   UNL     1      38.552 -13.966  -3.275  1.00  0.00     0.020 A 
ENDBRANCH   8  11
ENDBRANCH   1   7
BRANCH   3  22
HETATM   22  C   UNL     1      41.949 -15.907   5.987  1.00  0.00     0.164 C 
BRANCH  22  23
HETATM   23  C   UNL     1      42.449 -14.499   6.184  1.00  0.00    -0.040 A 
HETATM   24  C   UNL     1      43.739 -14.270   6.676  1.00  0.00     0.011 A 
HETATM   25  C   UNL     1      44.215 -12.966   6.832  1.00  0.00     0.037 A 
HETATM   26  C   UNL     1      43.415 -11.873   6.497  1.00  0.00     0.068 A 
HETATM   27  C   UNL     1      42.116 -12.092   6.037  1.00  0.00     0.037 A 
HETATM   28  C   UNL     1      41.636 -13.398   5.882  1.00  0.00     0.011 A 
BRANCH  26  29
HETATM   29  O   UNL     1      44.004 -10.651   6.672  1.00  0.00    -0.356 OA
HETATM   30  C   UNL     1      45.317 -10.655   7.222  1.00  0.00     0.210 C 
ENDBRANCH  26  29
ENDBRANCH  22  23
ENDBRANCH   3  22
TORSDOF 5
ENDMDL
MODEL 9
REMARK VINA RESULT:      -8.0      1.519      3.049
REMARK  5 active torsions:
REMARK  status: ('A' for Active; 'I' for Inactive)
REMARK    1  A    between atoms: C_4  and  N_5 
REMARK       I    between atoms: N_5  and  C_6 
REMARK    2  A    between atoms: C_6  and  C_7 
REMARK    3  A    between atoms: N_9  and  C_10 
REMARK    4  A    between atoms: C_10  and  C_11 
REMARK    5  A    between atoms: C_14  and  O_15 
ROOT
HETATM    1  C   UNL     1      41.198 -14.956   1.150  1.00  0.00     0.105 C 
HETATM    2  C   UNL     1      42.140 -13.766   1.127  1.00  0.00     0.140 C 
HETATM    3  N   UNL     1      41.309 -12.675   1.574  1.00  0.00    -0.347 N 
HETATM    4  C   UNL     1      39.963 -12.917   1.361  1.00  0.00     0.221 C 
HETATM    5  O   UNL     1      39.049 -12.120   1.491  1.00  0.00    -0.273 OA
HETATM    6  C   UNL     1      39.807 -14.357   0.936  1.00  0.00     0.118 C 
ENDROOT
BRANCH   1   7
HETATM    7  C   UNL     1      41.311 -15.740   2.455  1.00  0.00     0.228 C 
HETATM    8  N   UNL     1      42.582 -16.175   2.751  1.00  0.00    -0.325 N 
HETATM    9  H   UNL     1      43.346 -15.945   2.114  1.00  0.00     0.169 HD
HETATM   10  O   UNL     1      40.308 -15.939   3.135  1.00  0.00    -0.273 OA
BRANCH   8  11
HETATM   11  C   UNL     1      43.032 -16.954   3.844  1.00  0.00     0.065 A 
HETATM   12  C   UNL     1      43.197 -16.453   5.139  1.00  0.00     0.038 A 
HETATM   13  C   UNL     1      43.631 -17.290   6.173  1.00  0.00    -0.059 A 
HETATM   14  C   UNL     1      43.830 -16.753   7.560  1.00  0.00     0.048 C 
HETATM   15  C   UNL     1      43.929 -18.627   5.886  1.00  0.00     0.020 A 
HETATM   16  C   UNL     1      43.769 -19.135   4.586  1.00  0.00    -0.005 A 
HETATM   17  C   UNL     1      43.309 -18.299   3.549  1.00  0.00     0.093 A 
HETATM   18  C   UNL     1      44.061 -20.471   4.278  1.00  0.00     0.015 A 
HETATM   19  N   UNL     1      43.133 -18.757   2.285  1.00  0.00    -0.258 NA
HETATM   20  C   UNL     1      43.434 -20.049   2.027  1.00  0.00     0.117 A 
HETATM   21  C   UNL     1      43.895 -20.936   2.980  1.00  0.00     0.020 A 
ENDBRANCH   8  11
ENDBRANCH   1   7
BRANCH   3  22
HETATM   22  C   UNL     1      41.849 -11.373   1.913  1.00  0.00     0.164 C 
BRANCH  22  23
HETATM   23  C   UNL     1      42.361 -11.298   3.329  1.00  0.00    -0.040 A 
HETATM   24  C   UNL     1      43.692 -11.622   3.617  1.00  0.00     0.011 A 
HETATM   25  C   UNL     1      44.175 -11.526   4.924  1.00  0.00     0.037 A 
HETATM   26  C   UNL     1      43.343 -11.102   5.961  1.00  0.00     0.068 A 
HETATM   27  C   UNL     1      42.006 -10.810   5.687  1.00  0.00     0.037 A 
HETATM   28  C   UNL     1      41.518 -10.907   4.378  1.00  0.00     0.011 A 
BRANCH  26  29
HETATM   29  O   UNL     1      43.941 -11.027   7.188  1.00  0.00    -0.356 OA
HETATM   30  C   UNL     1      43.476 -10.001   8.057  1.00  0.00     0.210 C 
ENDBRANCH  26  29
ENDBRANCH  22  23
ENDBRANCH   3  22
TORSDOF 5
ENDMDL
MODEL 10
REMARK VINA RESULT:      -7.9      3.132      7.426
REMARK  5 active torsions:
REMARK  status: ('A' for Active; 'I' for Inactive)
REMARK    1  A    between atoms: C_4  and  N_5 
REMARK       I    between atoms: N_5  and  C_6 
REMARK    2  A    between atoms: C_6  and  C_7 
REMARK    3  A    between atoms: N_9  and  C_10 
REMARK    4  A    between atoms: C_10  and  C_11 
REMARK    5  A    between atoms: C_14  and  O_15 
ROOT
HETATM    1  C   UNL     1      42.317 -12.020   3.067  1.00  0.00     0.105 C 
HETATM    2  C   UNL     1      42.399 -13.517   2.830  1.00  0.00     0.140 C 
HETATM    3  N   UNL     1      41.204 -14.022   3.462  1.00  0.00    -0.347 N 
HETATM    4  C   UNL     1      40.727 -13.167   4.441  1.00  0.00     0.221 C 
HETATM    5  O   UNL     1      39.836 -13.400   5.240  1.00  0.00    -0.273 OA
HETATM    6  C   UNL     1      41.501 -11.874   4.353  1.00  0.00     0.118 C 
ENDROOT
BRANCH   1   7
HETATM    7  C   UNL     1      41.689 -11.295   1.880  1.00  0.00     0.228 C 
HETATM    8  N   UNL     1      41.577 -12.056   0.740  1.00  0.00    -0.325 N 
HETATM    9  H   UNL     1      41.894 -13.026   0.758  1.00  0.00     0.169 HD
HETATM   10  O   UNL     1      41.342 -10.122   1.998  1.00  0.00    -0.273 OA
BRANCH   8  11
HETATM   11  C   UNL     1      41.087 -11.692  -0.537  1.00  0.00     0.065 A 
HETATM   12  C   UNL     1      41.330 -10.453  -1.138  1.00  0.00     0.038 A 
HETATM   13  C   UNL     1      40.826 -10.172  -2.412  1.00  0.00    -0.059 A 
HETATM   14  C   UNL     1      41.065  -8.836  -3.053  1.00  0.00     0.048 C 
HETATM   15  C   UNL     1      40.049 -11.136  -3.064  1.00  0.00     0.020 A 
HETATM   16  C   UNL     1      39.799 -12.382  -2.464  1.00  0.00    -0.005 A 
HETATM   17  C   UNL     1      40.326 -12.675  -1.190  1.00  0.00     0.093 A 
HETATM   18  C   UNL     1      39.024 -13.361  -3.101  1.00  0.00     0.015 A 
HETATM   19  N   UNL     1      40.114 -13.870  -0.586  1.00  0.00    -0.258 NA
HETATM   20  C   UNL     1      39.355 -14.785  -1.228  1.00  0.00     0.117 A 
HETATM   21  C   UNL     1      38.794 -14.580  -2.474  1.00  0.00     0.020 A 
ENDBRANCH   8  11
ENDBRANCH   1   7
BRANCH   3  22
HETATM   22  C   UNL     1      40.755 -15.390   3.299  1.00  0.00     0.164 C 
BRANCH  22  23
HETATM   23  C   UNL     1      41.834 -16.402   3.587  1.00  0.00    -0.040 A 
HETATM   24  C   UNL     1      42.323 -16.563   4.888  1.00  0.00     0.011 A 
HETATM   25  C   UNL     1      43.302 -17.520   5.162  1.00  0.00     0.037 A 
HETATM   26  C   UNL     1      43.806 -18.333   4.146  1.00  0.00     0.068 A 
HETATM   27  C   UNL     1      43.348 -18.156   2.839  1.00  0.00     0.037 A 
HETATM   28  C   UNL     1      42.368 -17.196   2.562  1.00  0.00     0.011 A 
BRANCH  26  29
HETATM   29  O   UNL     1      44.742 -19.246   4.547  1.00  0.00    -0.356 OA
HETATM   30  C   UNL     1      44.254 -20.528   4.924  1.00  0.00     0.210 C 
ENDBRANCH  26  29
ENDBRANCH  22  23
ENDBRANCH   3  22
TORSDOF 5
ENDMDL
