MODEL 1
REMARK VINA RESULT:      -8.3      0.000      0.000
REMARK  3 active torsions:
REMARK  status: ('A' for Active; 'I' for Inactive)
REMARK    1  A    between atoms: C_2  and  C_3 
REMARK    2  A    between atoms: C_3  and  C_4 
REMARK    3  A    between atoms: C_24  and  N_25 
ROOT
HETATM    1  C   UNL     1      43.093 -16.311   3.901  1.00  0.00     0.067 A 
HETATM    2  N   UNL     1      43.082 -17.003   2.749  1.00  0.00    -0.177 NA
HETATM    3  N   UNL     1      42.087 -16.451   2.030  1.00  0.00    -0.256 N 
HETATM    4  H   UNL     1      41.876 -16.830   1.113  1.00  0.00     0.191 HD
HETATM    5  C   UNL     1      41.460 -15.447   2.690  1.00  0.00     0.176 A 
HETATM    6  C   UNL     1      42.099 -15.297   3.896  1.00  0.00     0.049 A 
HETATM    7  C   UNL     1      41.606 -14.269   4.856  1.00  0.00     0.144 A 
HETATM    8  C   UNL     1      41.333 -14.889   6.254  1.00  0.00     0.246 A 
HETATM    9  O   UNL     1      40.503 -15.733   6.549  1.00  0.00    -0.271 OA
HETATM   10  N   UNL     1      42.210 -14.284   7.148  1.00  0.00    -0.325 N 
HETATM   11  C   UNL     1      43.034 -13.366   6.513  1.00  0.00     0.043 A 
HETATM   12  C   UNL     1      42.748 -13.308   5.139  1.00  0.00     0.003 A 
HETATM   13  C   UNL     1      44.017 -12.607   7.111  1.00  0.00     0.030 A 
HETATM   14  C   UNL     1      44.746 -11.748   6.294  1.00  0.00     0.003 A 
HETATM   15  C   UNL     1      44.477 -11.668   4.917  1.00  0.00     0.007 A 
HETATM   16  C   UNL     1      43.467 -12.440   4.315  1.00  0.00    -0.051 A 
HETATM   17  C   UNL     1      43.224 -12.320   2.840  1.00  0.00     0.049 C 
HETATM   18  C   UNL     1      40.334 -13.606   4.338  1.00  0.00     0.081 A 
HETATM   19  C   UNL     1      39.595 -12.681   5.292  1.00  0.00     0.021 C 
HETATM   20  N   UNL     1      38.981 -11.915   6.083  1.00  0.00    -0.096 N 
HETATM   21  C   UNL     1      39.805 -13.871   3.114  1.00  0.00     0.140 A 
HETATM   22  O   UNL     1      40.407 -14.783   2.229  1.00  0.00    -0.279 OA
HETATM   23  H   UNL     1      42.222 -14.502   8.135  1.00  0.00     0.169 HD
ENDROOT
BRANCH  21  24
HETATM   24  N   UNL     1      38.652 -13.318   2.604  1.00  0.00    -0.282 NA
HETATM   25  H   UNL     1      38.754 -12.400   2.178  1.00  0.00     0.126 HD
HETATM   26  H   UNL     1      37.888 -13.352   3.275  1.00  0.00     0.126 HD
ENDBRANCH  21  24
BRANCH   1  27
HETATM   27  C   UNL     1      44.029 -16.694   5.007  1.00  0.00     0.061 C 
BRANCH  27  28
HETATM   28  C   UNL     1      43.542 -17.854   5.881  1.00  0.00     0.002 C 
HETATM   29  C   UNL     1      43.977 -19.195   5.309  1.00  0.00     0.005 C 
ENDBRANCH  27  28
ENDBRANCH   1  27
TORSDOF 3
ENDMDL
MODEL 2
REMARK VINA RESULT:      -7.9      2.284      5.195
REMARK  3 active torsions:
REMARK  status: ('A' for Active; 'I' for Inactive)
REMARK    1  A    between atoms: C_2  and  C_3 
REMARK    2  A    between atoms: C_3  and  C_4 
REMARK    3  A    between atoms: C_24  and  N_25 
ROOT
HETATM    1  C   UNL     1      39.909 -11.902   3.998  1.00  0.00     0.067 A 
HETATM    2  N   UNL     1      39.790 -10.566   4.084  1.00  0.00    -0.177 NA
HETATM    3  N   UNL     1      40.753 -10.193   4.946  1.00  0.00    -0.256 N 
HETATM    4  H   UNL     1      40.845  -9.211   5.184  1.00  0.00     0.191 HD
HETATM    5  C   UNL     1      41.467 -11.243   5.418  1.00  0.00     0.176 A 
HETATM    6  C   UNL     1      40.977 -12.371   4.807  1.00  0.00     0.049 A 
HETATM    7  C   UNL     1      41.562 -13.697   5.155  1.00  0.00     0.144 A 
HETATM    8  C   UNL     1      40.458 -14.705   5.578  1.00  0.00     0.246 A 
HETATM    9  O   UNL     1      39.721 -14.644   6.548  1.00  0.00    -0.271 OA
HETATM   10  N   UNL     1      40.466 -15.736   4.645  1.00  0.00    -0.325 N 
HETATM   11  C   UNL     1      41.416 -15.522   3.657  1.00  0.00     0.043 A 
HETATM   12  C   UNL     1      42.104 -14.318   3.880  1.00  0.00     0.003 A 
HETATM   13  C   UNL     1      41.671 -16.349   2.583  1.00  0.00     0.030 A 
HETATM   14  C   UNL     1      42.662 -15.949   1.690  1.00  0.00     0.003 A 
HETATM   15  C   UNL     1      43.367 -14.750   1.893  1.00  0.00     0.007 A 
HETATM   16  C   UNL     1      43.107 -13.917   2.996  1.00  0.00    -0.051 A 
HETATM   17  C   UNL     1      43.886 -12.646   3.162  1.00  0.00     0.049 C 
HETATM   18  C   UNL     1      42.585 -13.564   6.278  1.00  0.00     0.081 A 
HETATM   19  C   UNL     1      43.121 -14.850   6.886  1.00  0.00     0.021 C 
HETATM   20  N   UNL     1      43.565 -15.916   7.391  1.00  0.00    -0.096 N 
HETATM   21  C   UNL     1      42.962 -12.366   6.800  1.00  0.00     0.140 A 
HETATM   22  O   UNL     1      42.430 -11.152   6.328  1.00  0.00    -0.279 OA
HETATM   23  H   UNL     1      39.849 -16.533   4.705  1.00  0.00     0.169 HD
ENDROOT
BRANCH  21  24
HETATM   24  N   UNL     1      43.863 -12.188   7.826  1.00  0.00    -0.282 NA
HETATM   25  H   UNL     1      44.597 -12.889   7.893  1.00  0.00     0.126 HD
HETATM   26  H   UNL     1      43.397 -12.027   8.715  1.00  0.00     0.126 HD
ENDBRANCH  21  24
BRANCH   1  27
HETATM   27  C   UNL     1      38.939 -12.700   3.180  1.00  0.00     0.061 C 
BRANCH  27  28
HETATM   28  C   UNL     1      38.997 -12.423   1.675  1.00  0.00     0.002 C 
HETATM   29  C   UNL     1      39.943 -13.387   0.974  1.00  0.00     0.005 C 
ENDBRANCH  27  28
ENDBRANCH   1  27
TORSDOF 3
ENDMDL
MODEL 3
REMARK VINA RESULT:      -7.8      7.884     10.577
REMARK  3 active torsions:
REMARK  status: ('A' for Active; 'I' for Inactive)
REMARK    1  A    between atoms: C_2  and  C_3 
REMARK    2  A    between atoms: C_3  and  C_4 
REMARK    3  A    between atoms: C_24  and  N_25 
ROOT
HETATM    1  C   UNL     1      42.169  -7.282  13.891  1.00  0.00     0.067 A 
HETATM    2  N   UNL     1      42.124  -7.554  15.207  1.00  0.00    -0.177 NA
HETATM    3  N   UNL     1      41.385  -8.674  15.299  1.00  0.00    -0.256 N 
HETATM    4  H   UNL     1      41.197  -9.064  16.216  1.00  0.00     0.191 HD
HETATM    5  C   UNL     1      40.950  -9.113  14.093  1.00  0.00     0.176 A 
HETATM    6  C   UNL     1      41.460  -8.261  13.145  1.00  0.00     0.049 A 
HETATM    7  C   UNL     1      41.124  -8.485  11.711  1.00  0.00     0.144 A 
HETATM    8  C   UNL     1      40.547  -7.198  11.060  1.00  0.00     0.246 A 
HETATM    9  O   UNL     1      39.507  -6.622  11.336  1.00  0.00    -0.271 OA
HETATM   10  N   UNL     1      41.434  -6.811  10.061  1.00  0.00    -0.325 N 
HETATM   11  C   UNL     1      42.525  -7.664   9.990  1.00  0.00     0.043 A 
HETATM   12  C   UNL     1      42.425  -8.683  10.951  1.00  0.00     0.003 A 
HETATM   13  C   UNL     1      43.587  -7.553   9.117  1.00  0.00     0.030 A 
HETATM   14  C   UNL     1      44.594  -8.509   9.212  1.00  0.00     0.003 A 
HETATM   15  C   UNL     1      44.516  -9.541  10.164  1.00  0.00     0.007 A 
HETATM   16  C   UNL     1      43.425  -9.652  11.045  1.00  0.00    -0.051 A 
HETATM   17  C   UNL     1      43.393 -10.770  12.044  1.00  0.00     0.049 C 
HETATM   18  C   UNL     1      40.122  -9.624  11.557  1.00  0.00     0.081 A 
HETATM   19  C   UNL     1      39.524  -9.843  10.177  1.00  0.00     0.021 C 
HETATM   20  N   UNL     1      39.027 -10.024   9.033  1.00  0.00    -0.096 N 
HETATM   21  C   UNL     1      39.691 -10.378  12.604  1.00  0.00     0.140 A 
HETATM   22  O   UNL     1      40.152 -10.159  13.914  1.00  0.00    -0.279 OA
HETATM   23  H   UNL     1      41.277  -6.005   9.473  1.00  0.00     0.169 HD
ENDROOT
BRANCH  21  24
HETATM   24  N   UNL     1      38.775 -11.404  12.527  1.00  0.00    -0.282 NA
HETATM   25  H   UNL     1      37.815 -11.154  12.751  1.00  0.00     0.126 HD
HETATM   26  H   UNL     1      39.090 -12.230  13.030  1.00  0.00     0.126 HD
ENDBRANCH  21  24
BRANCH   1  27
HETATM   27  C   UNL     1      42.847  -6.041  13.394  1.00  0.00     0.061 C 
BRANCH  27  28
HETATM   28  C   UNL     1      41.937  -4.814  13.295  1.00  0.00     0.002 C 
HETATM   29  C   UNL     1      42.332  -3.927  12.124  1.00  0.00     0.005 C 
ENDBRANCH  27  28
ENDBRANCH   1  27
TORSDOF 3
ENDMDL
MODEL 4
REMARK VINA RESULT:      -7.6      1.981      2.653
REMARK  3 active torsions:
REMARK  status: ('A' for Active; 'I' for Inactive)
REMARK    1  A    between atoms: C_2  and  C_3 
REMARK    2  A    between atoms: C_3  and  C_4 
REMARK    3  A    between atoms: C_24  and  N_25 
ROOT
HETATM    1  C   UNL     1      40.678 -14.742   3.115  1.00  0.00     0.067 A 
HETATM    2  N   UNL     1      40.073 -15.116   1.975  1.00  0.00    -0.177 NA
HETATM    3  N   UNL     1      39.306 -14.063   1.635  1.00  0.00    -0.256 N 
HETATM    4  H   UNL     1      38.731 -14.124   0.801  1.00  0.00     0.191 HD
HETATM    5  C   UNL     1      39.393 -13.045   2.525  1.00  0.00     0.176 A 
HETATM    6  C   UNL     1      40.296 -13.426   3.486  1.00  0.00     0.049 A 
HETATM    7  C   UNL     1      40.580 -12.503   4.622  1.00  0.00     0.144 A 
HETATM    8  C   UNL     1      40.396 -13.218   5.988  1.00  0.00     0.246 A 
HETATM    9  O   UNL     1      39.367 -13.674   6.461  1.00  0.00    -0.271 OA
HETATM   10  N   UNL     1      41.638 -13.234   6.613  1.00  0.00    -0.325 N 
HETATM   11  C   UNL     1      42.613 -12.642   5.824  1.00  0.00     0.043 A 
HETATM   12  C   UNL     1      42.067 -12.192   4.611  1.00  0.00     0.003 A 
HETATM   13  C   UNL     1      43.947 -12.505   6.147  1.00  0.00     0.030 A 
HETATM   14  C   UNL     1      44.771 -11.889   5.210  1.00  0.00     0.003 A 
HETATM   15  C   UNL     1      44.248 -11.427   3.990  1.00  0.00     0.007 A 
HETATM   16  C   UNL     1      42.885 -11.562   3.672  1.00  0.00    -0.051 A 
HETATM   17  C   UNL     1      42.379 -11.055   2.353  1.00  0.00     0.049 C 
HETATM   18  C   UNL     1      39.677 -11.275   4.565  1.00  0.00     0.081 A 
HETATM   19  C   UNL     1      39.701 -10.339   5.763  1.00  0.00     0.021 C 
HETATM   20  N   UNL     1      39.720  -9.563   6.756  1.00  0.00    -0.096 N 
HETATM   21  C   UNL     1      38.809 -11.039   3.545  1.00  0.00     0.140 A 
HETATM   22  O   UNL     1      38.690 -11.921   2.455  1.00  0.00    -0.279 OA
HETATM   23  H   UNL     1      41.784 -13.631   7.531  1.00  0.00     0.169 HD
ENDROOT
BRANCH  21  24
HETATM   24  N   UNL     1      37.958  -9.961   3.452  1.00  0.00    -0.282 NA
HETATM   25  H   UNL     1      38.330  -9.076   3.788  1.00  0.00     0.126 HD
HETATM   26  H   UNL     1      37.041 -10.170   3.841  1.00  0.00     0.126 HD
ENDBRANCH  21  24
BRANCH   1  27
HETATM   27  C   UNL     1      41.565 -15.699   3.853  1.00  0.00     0.061 C 
BRANCH  27  28
HETATM   28  C   UNL     1      43.063 -15.491   3.614  1.00  0.00     0.002 C 
HETATM   29  C   UNL     1      43.338 -15.055   2.183  1.00  0.00     0.005 C 
ENDBRANCH  27  28
ENDBRANCH   1  27
TORSDOF 3
ENDMDL
MODEL 5
REMARK VINA RESULT:      -7.2      1.981      2.371
REMARK  3 active torsions:
REMARK  status: ('A' for Active; 'I' for Inactive)
REMARK    1  A    between atoms: C_2  and  C_3 
REMARK    2  A    between atoms: C_3  and  C_4 
REMARK    3  A    between atoms: C_24  and  N_25 
ROOT
HETATM    1  C   UNL     1      40.969 -15.275   5.361  1.00  0.00     0.067 A 
HETATM    2  N   UNL     1      40.753 -16.449   4.744  1.00  0.00    -0.177 NA
HETATM    3  N   UNL     1      40.263 -16.114   3.536  1.00  0.00    -0.256 N 
HETATM    4  H   UNL     1      40.004 -16.852   2.889  1.00  0.00     0.191 HD
HETATM    5  C   UNL     1      40.149 -14.774   3.371  1.00  0.00     0.176 A 
HETATM    6  C   UNL     1      40.625 -14.186   4.517  1.00  0.00     0.049 A 
HETATM    7  C   UNL     1      40.601 -12.700   4.634  1.00  0.00     0.144 A 
HETATM    8  C   UNL     1      39.887 -12.249   5.938  1.00  0.00     0.246 A 
HETATM    9  O   UNL     1      38.717 -12.411   6.245  1.00  0.00    -0.271 OA
HETATM   10  N   UNL     1      40.834 -11.590   6.716  1.00  0.00    -0.325 N 
HETATM   11  C   UNL     1      42.076 -11.570   6.099  1.00  0.00     0.043 A 
HETATM   12  C   UNL     1      42.026 -12.225   4.858  1.00  0.00     0.003 A 
HETATM   13  C   UNL     1      43.226 -11.005   6.608  1.00  0.00     0.030 A 
HETATM   14  C   UNL     1      44.380 -11.101   5.836  1.00  0.00     0.003 A 
HETATM   15  C   UNL     1      44.356 -11.749   4.589  1.00  0.00     0.007 A 
HETATM   16  C   UNL     1      43.177 -12.315   4.072  1.00  0.00    -0.051 A 
HETATM   17  C   UNL     1      43.208 -12.998   2.738  1.00  0.00     0.049 C 
HETATM   18  C   UNL     1      39.906 -12.070   3.432  1.00  0.00     0.081 A 
HETATM   19  C   UNL     1      39.619 -10.579   3.497  1.00  0.00     0.021 C 
HETATM   20  N   UNL     1      39.380  -9.342   3.551  1.00  0.00    -0.096 N 
HETATM   21  C   UNL     1      39.467 -12.792   2.366  1.00  0.00     0.140 A 
HETATM   22  O   UNL     1      39.635 -14.187   2.298  1.00  0.00    -0.279 OA
HETATM   23  H   UNL     1      40.615 -11.182   7.613  1.00  0.00     0.169 HD
ENDROOT
BRANCH  21  24
HETATM   24  N   UNL     1      38.817 -12.280   1.266  1.00  0.00    -0.282 NA
HETATM   25  H   UNL     1      38.602 -11.287   1.304  1.00  0.00     0.126 HD
HETATM   26  H   UNL     1      38.010 -12.843   1.007  1.00  0.00     0.126 HD
ENDBRANCH  21  24
BRANCH   1  27
HETATM   27  C   UNL     1      41.446 -15.240   6.781  1.00  0.00     0.061 C 
BRANCH  27  28
HETATM   28  C   UNL     1      42.963 -15.116   6.941  1.00  0.00     0.002 C 
HETATM   29  C   UNL     1      43.565 -16.393   7.508  1.00  0.00     0.005 C 
ENDBRANCH  27  28
ENDBRANCH   1  27
TORSDOF 3
ENDMDL
MODEL 6
REMARK VINA RESULT:      -7.2     15.202     17.462
REMARK  3 active torsions:
REMARK  status: ('A' for Active; 'I' for Inactive)
REMARK    1  A    between atoms: C_2  and  C_3 
REMARK    2  A    between atoms: C_3  and  C_4 
REMARK    3  A    between atoms: C_24  and  N_25 
ROOT
HETATM    1  C   UNL     1      47.243 -28.857  -1.230  1.00  0.00     0.067 A 
HETATM    2  N   UNL     1      48.139 -29.038  -2.215  1.00  0.00    -0.177 NA
HETATM    3  N   UNL     1      49.011 -29.937  -1.721  1.00  0.00    -0.256 N 
HETATM    4  H   UNL     1      49.801 -30.219  -2.292  1.00  0.00     0.191 HD
HETATM    5  C   UNL     1      48.707 -30.319  -0.457  1.00  0.00     0.176 A 
HETATM    6  C   UNL     1      47.549 -29.669  -0.107  1.00  0.00     0.049 A 
HETATM    7  C   UNL     1      46.982 -29.880   1.256  1.00  0.00     0.144 A 
HETATM    8  C   UNL     1      46.734 -28.527   1.978  1.00  0.00     0.246 A 
HETATM    9  O   UNL     1      47.562 -27.699   2.322  1.00  0.00    -0.271 OA
HETATM   10  N   UNL     1      45.364 -28.423   2.192  1.00  0.00    -0.325 N 
HETATM   11  C   UNL     1      44.683 -29.521   1.686  1.00  0.00     0.043 A 
HETATM   12  C   UNL     1      45.576 -30.431   1.097  1.00  0.00     0.003 A 
HETATM   13  C   UNL     1      43.320 -29.720   1.727  1.00  0.00     0.030 A 
HETATM   14  C   UNL     1      42.828 -30.887   1.150  1.00  0.00     0.003 A 
HETATM   15  C   UNL     1      43.700 -31.816   0.557  1.00  0.00     0.007 A 
HETATM   16  C   UNL     1      45.091 -31.609   0.527  1.00  0.00    -0.051 A 
HETATM   17  C   UNL     1      45.977 -32.630  -0.123  1.00  0.00     0.049 C 
HETATM   18  C   UNL     1      47.908 -30.745   2.103  1.00  0.00     0.081 A 
HETATM   19  C   UNL     1      47.573 -30.883   3.580  1.00  0.00     0.021 C 
HETATM   20  N   UNL     1      47.295 -30.997   4.804  1.00  0.00    -0.096 N 
HETATM   21  C   UNL     1      49.044 -31.313   1.617  1.00  0.00     0.140 A 
HETATM   22  O   UNL     1      49.442 -31.145   0.278  1.00  0.00    -0.279 OA
HETATM   23  H   UNL     1      44.943 -27.635   2.665  1.00  0.00     0.169 HD
ENDROOT
BRANCH  21  24
HETATM   24  N   UNL     1      49.925 -32.085   2.340  1.00  0.00    -0.282 NA
HETATM   25  H   UNL     1      50.545 -32.677   1.792  1.00  0.00     0.126 HD
HETATM   26  H   UNL     1      49.457 -32.596   3.085  1.00  0.00     0.126 HD
ENDBRANCH  21  24
BRANCH   1  27
HETATM   27  C   UNL     1      46.144 -27.848  -1.380  1.00  0.00     0.061 C 
BRANCH  27  28
HETATM   28  C   UNL     1      45.174 -28.130  -2.531  1.00  0.00     0.002 C 
HETATM   29  C   UNL     1      44.258 -29.300  -2.207  1.00  0.00     0.005 C 
ENDBRANCH  27  28
ENDBRANCH   1  27
TORSDOF 3
ENDMDL
MODEL 7
REMARK VINA RESULT:      -7.2      2.714      3.863
REMARK  3 active torsions:
REMARK  status: ('A' for Active; 'I' for Inactive)
REMARK    1  A    between atoms: C_2  and  C_3 
REMARK    2  A    between atoms: C_3  and  C_4 
REMARK    3  A    between atoms: C_24  and  N_25 
ROOT
HETATM    1  C   UNL     1      40.276 -14.483   1.308  1.00  0.00     0.067 A 
HETATM    2  N   UNL     1      40.571 -14.791   0.033  1.00  0.00    -0.177 NA
HETATM    3  N   UNL     1      41.125 -13.671  -0.468  1.00  0.00    -0.256 N 
HETATM    4  H   UNL     1      41.417 -13.660  -1.440  1.00  0.00     0.191 HD
HETATM    5  C   UNL     1      41.179 -12.665   0.438  1.00  0.00     0.176 A 
HETATM    6  C   UNL     1      40.668 -13.154   1.615  1.00  0.00     0.049 A 
HETATM    7  C   UNL     1      40.577 -12.251   2.797  1.00  0.00     0.144 A 
HETATM    8  C   UNL     1      39.140 -12.237   3.386  1.00  0.00     0.246 A 
HETATM    9  O   UNL     1      38.117 -11.836   2.853  1.00  0.00    -0.271 OA
HETATM   10  N   UNL     1      39.219 -12.756   4.674  1.00  0.00    -0.325 N 
HETATM   11  C   UNL     1      40.517 -13.126   4.995  1.00  0.00     0.043 A 
HETATM   12  C   UNL     1      41.387 -12.872   3.922  1.00  0.00     0.003 A 
HETATM   13  C   UNL     1      40.931 -13.682   6.187  1.00  0.00     0.030 A 
HETATM   14  C   UNL     1      42.281 -13.996   6.310  1.00  0.00     0.003 A 
HETATM   15  C   UNL     1      43.174 -13.748   5.252  1.00  0.00     0.007 A 
HETATM   16  C   UNL     1      42.745 -13.173   4.042  1.00  0.00    -0.051 A 
HETATM   17  C   UNL     1      43.738 -12.934   2.944  1.00  0.00     0.049 C 
HETATM   18  C   UNL     1      40.990 -10.830   2.431  1.00  0.00     0.081 A 
HETATM   19  C   UNL     1      40.758  -9.748   3.473  1.00  0.00     0.021 C 
HETATM   20  N   UNL     1      40.566  -8.850   4.337  1.00  0.00    -0.096 N 
HETATM   21  C   UNL     1      41.467 -10.489   1.203  1.00  0.00     0.140 A 
HETATM   22  O   UNL     1      41.620 -11.440   0.178  1.00  0.00    -0.279 OA
HETATM   23  H   UNL     1      38.416 -12.837   5.281  1.00  0.00     0.169 HD
ENDROOT
BRANCH  21  24
HETATM   24  N   UNL     1      41.834  -9.221   0.812  1.00  0.00    -0.282 NA
HETATM   25  H   UNL     1      42.248  -9.149  -0.115  1.00  0.00     0.126 HD
HETATM   26  H   UNL     1      42.391  -8.753   1.523  1.00  0.00     0.126 HD
ENDBRANCH  21  24
BRANCH   1  27
HETATM   27  C   UNL     1      39.559 -15.470   2.180  1.00  0.00     0.061 C 
BRANCH  27  28
HETATM   28  C   UNL     1      40.437 -16.131   3.247  1.00  0.00     0.002 C 
HETATM   29  C   UNL     1      41.772 -16.572   2.666  1.00  0.00     0.005 C 
ENDBRANCH  27  28
ENDBRANCH   1  27
TORSDOF 3
ENDMDL
MODEL 8
REMARK VINA RESULT:      -7.2      3.195      5.533
REMARK  3 active torsions:
REMARK  status: ('A' for Active; 'I' for Inactive)
REMARK    1  A    between atoms: C_2  and  C_3 
REMARK    2  A    between atoms: C_3  and  C_4 
REMARK    3  A    between atoms: C_24  and  N_25 
ROOT
HETATM    1  C   UNL     1      40.514 -12.850  -0.470  1.00  0.00     0.067 A 
HETATM    2  N   UNL     1      41.005 -12.075  -1.452  1.00  0.00    -0.177 NA
HETATM    3  N   UNL     1      41.588 -11.044  -0.813  1.00  0.00    -0.256 N 
HETATM    4  H   UNL     1      42.019 -10.307  -1.361  1.00  0.00     0.191 HD
HETATM    5  C   UNL     1      41.472 -11.132   0.534  1.00  0.00     0.176 A 
HETATM    6  C   UNL     1      40.811 -12.304   0.806  1.00  0.00     0.049 A 
HETATM    7  C   UNL     1      40.515 -12.659   2.224  1.00  0.00     0.144 A 
HETATM    8  C   UNL     1      39.007 -12.972   2.423  1.00  0.00     0.246 A 
HETATM    9  O   UNL     1      38.061 -12.212   2.292  1.00  0.00    -0.271 OA
HETATM   10  N   UNL     1      38.913 -14.305   2.809  1.00  0.00    -0.325 N 
HETATM   11  C   UNL     1      40.161 -14.908   2.867  1.00  0.00     0.043 A 
HETATM   12  C   UNL     1      41.171 -13.997   2.517  1.00  0.00     0.003 A 
HETATM   13  C   UNL     1      40.414 -16.221   3.206  1.00  0.00     0.030 A 
HETATM   14  C   UNL     1      41.741 -16.639   3.194  1.00  0.00     0.003 A 
HETATM   15  C   UNL     1      42.771 -15.746   2.850  1.00  0.00     0.007 A 
HETATM   16  C   UNL     1      42.506 -14.406   2.515  1.00  0.00    -0.051 A 
HETATM   17  C   UNL     1      43.641 -13.496   2.152  1.00  0.00     0.049 C 
HETATM   18  C   UNL     1      40.928 -11.532   3.165  1.00  0.00     0.081 A 
HETATM   19  C   UNL     1      40.507 -11.654   4.621  1.00  0.00     0.021 C 
HETATM   20  N   UNL     1      40.158 -11.753   5.828  1.00  0.00    -0.096 N 
HETATM   21  C   UNL     1      41.569 -10.410   2.742  1.00  0.00     0.140 A 
HETATM   22  O   UNL     1      41.904 -10.213   1.390  1.00  0.00    -0.279 OA
HETATM   23  H   UNL     1      38.032 -14.753   3.019  1.00  0.00     0.169 HD
ENDROOT
BRANCH  21  24
HETATM   24  N   UNL     1      41.946  -9.355   3.542  1.00  0.00    -0.282 NA
HETATM   25  H   UNL     1      41.391  -9.219   4.383  1.00  0.00     0.126 HD
HETATM   26  H   UNL     1      42.057  -8.496   3.007  1.00  0.00     0.126 HD
ENDBRANCH  21  24
BRANCH   1  27
HETATM   27  C   UNL     1      39.711 -14.073  -0.798  1.00  0.00     0.061 C 
BRANCH  27  28
HETATM   28  C   UNL     1      38.672 -13.875  -1.905  1.00  0.00     0.002 C 
HETATM   29  C   UNL     1      38.697 -15.028  -2.897  1.00  0.00     0.005 C 
ENDBRANCH  27  28
ENDBRANCH   1  27
TORSDOF 3
ENDMDL
MODEL 9
REMARK VINA RESULT:      -7.0      3.794      7.094
REMARK  3 active torsions:
REMARK  status: ('A' for Active; 'I' for Inactive)
REMARK    1  A    between atoms: C_2  and  C_3 
REMARK    2  A    between atoms: C_3  and  C_4 
REMARK    3  A    between atoms: C_24  and  N_25 
ROOT
HETATM    1  C   UNL     1      38.589 -10.628   1.970  1.00  0.00     0.067 A 
HETATM    2  N   UNL     1      38.476  -9.420   2.547  1.00  0.00    -0.177 NA
HETATM    3  N   UNL     1      39.712  -9.141   2.999  1.00  0.00    -0.256 N 
HETATM    4  H   UNL     1      39.868  -8.270   3.497  1.00  0.00     0.191 HD
HETATM    5  C   UNL     1      40.599 -10.132   2.742  1.00  0.00     0.176 A 
HETATM    6  C   UNL     1      39.924 -11.106   2.048  1.00  0.00     0.049 A 
HETATM    7  C   UNL     1      40.649 -12.345   1.646  1.00  0.00     0.144 A 
HETATM    8  C   UNL     1      39.894 -13.617   2.118  1.00  0.00     0.246 A 
HETATM    9  O   UNL     1      39.675 -13.975   3.265  1.00  0.00    -0.271 OA
HETATM   10  N   UNL     1      39.513 -14.315   0.977  1.00  0.00    -0.325 N 
HETATM   11  C   UNL     1      39.902 -13.654  -0.178  1.00  0.00     0.043 A 
HETATM   12  C   UNL     1      40.574 -12.461   0.133  1.00  0.00     0.003 A 
HETATM   13  C   UNL     1      39.670 -14.074  -1.471  1.00  0.00     0.030 A 
HETATM   14  C   UNL     1      40.132 -13.258  -2.500  1.00  0.00     0.003 A 
HETATM   15  C   UNL     1      40.811 -12.060  -2.215  1.00  0.00     0.007 A 
HETATM   16  C   UNL     1      41.052 -11.644  -0.893  1.00  0.00    -0.051 A 
HETATM   17  C   UNL     1      41.776 -10.354  -0.645  1.00  0.00     0.049 C 
HETATM   18  C   UNL     1      42.065 -12.356   2.211  1.00  0.00     0.081 A 
HETATM   19  C   UNL     1      42.863 -13.641   2.062  1.00  0.00     0.021 C 
HETATM   20  N   UNL     1      43.525 -14.707   1.940  1.00  0.00    -0.096 N 
HETATM   21  C   UNL     1      42.596 -11.312   2.902  1.00  0.00     0.140 A 
HETATM   22  O   UNL     1      41.866 -10.133   3.139  1.00  0.00    -0.279 OA
HETATM   23  H   UNL     1      39.018 -15.195   1.014  1.00  0.00     0.169 HD
ENDROOT
BRANCH  21  24
HETATM   24  N   UNL     1      43.858 -11.275   3.451  1.00  0.00    -0.282 NA
HETATM   25  H   UNL     1      44.547 -11.881   3.013  1.00  0.00     0.126 HD
HETATM   26  H   UNL     1      43.833 -11.382   4.463  1.00  0.00     0.126 HD
ENDBRANCH  21  24
BRANCH   1  27
HETATM   27  C   UNL     1      37.382 -11.320   1.413  1.00  0.00     0.061 C 
BRANCH  27  28
HETATM   28  C   UNL     1      36.731 -10.606   0.226  1.00  0.00     0.002 C 
HETATM   29  C   UNL     1      37.348 -11.052  -1.092  1.00  0.00     0.005 C 
ENDBRANCH  27  28
ENDBRANCH   1  27
TORSDOF 3
ENDMDL
MODEL 10
REMARK VINA RESULT:      -6.8      8.162     10.553
REMARK  3 active torsions:
REMARK  status: ('A' for Active; 'I' for Inactive)
REMARK    1  A    between atoms: C_2  and  C_3 
REMARK    2  A    between atoms: C_3  and  C_4 
REMARK    3  A    between atoms: C_24  and  N_25 
ROOT
HETATM    1  C   UNL     1      39.569  -8.807  12.221  1.00  0.00     0.067 A 
HETATM    2  N   UNL     1      39.228  -9.820  13.037  1.00  0.00    -0.177 NA
HETATM    3  N   UNL     1      40.333 -10.585  13.109  1.00  0.00    -0.256 N 
HETATM    4  H   UNL     1      40.307 -11.433  13.665  1.00  0.00     0.191 HD
HETATM    5  C   UNL     1      41.353 -10.102  12.359  1.00  0.00     0.176 A 
HETATM    6  C   UNL     1      40.915  -8.932  11.789  1.00  0.00     0.049 A 
HETATM    7  C   UNL     1      41.828  -8.181  10.881  1.00  0.00     0.144 A 
HETATM    8  C   UNL     1      41.147  -7.887   9.516  1.00  0.00     0.246 A 
HETATM    9  O   UNL     1      40.779  -8.691   8.675  1.00  0.00    -0.271 OA
HETATM   10  N   UNL     1      41.042  -6.505   9.400  1.00  0.00    -0.325 N 
HETATM   11  C   UNL     1      41.547  -5.860  10.519  1.00  0.00     0.043 A 
HETATM   12  C   UNL     1      42.022  -6.790  11.458  1.00  0.00     0.003 A 
HETATM   13  C   UNL     1      41.583  -4.497  10.723  1.00  0.00     0.030 A 
HETATM   14  C   UNL     1      42.121  -4.045  11.924  1.00  0.00     0.003 A 
HETATM   15  C   UNL     1      42.607  -4.955  12.879  1.00  0.00     0.007 A 
HETATM   16  C   UNL     1      42.574  -6.344  12.660  1.00  0.00    -0.051 A 
HETATM   17  C   UNL     1      43.102  -7.271  13.714  1.00  0.00     0.049 C 
HETATM   18  C   UNL     1      43.121  -8.955  10.647  1.00  0.00     0.081 A 
HETATM   19  C   UNL     1      44.068  -8.420   9.584  1.00  0.00     0.021 C 
HETATM   20  N   UNL     1      44.853  -7.978   8.703  1.00  0.00    -0.096 N 
HETATM   21  C   UNL     1      43.411 -10.124  11.278  1.00  0.00     0.140 A 
HETATM   22  O   UNL     1      42.527 -10.702  12.207  1.00  0.00    -0.279 OA
HETATM   23  H   UNL     1      40.647  -6.053   8.587  1.00  0.00     0.169 HD
ENDROOT
BRANCH  21  24
HETATM   24  N   UNL     1      44.550 -10.873  11.090  1.00  0.00    -0.282 NA
HETATM   25  H   UNL     1      44.742 -11.151  10.131  1.00  0.00     0.126 HD
HETATM   26  H   UNL     1      44.599 -11.656  11.738  1.00  0.00     0.126 HD
ENDBRANCH  21  24
BRANCH   1  27
HETATM   27  C   UNL     1      38.555  -7.775  11.829  1.00  0.00     0.061 C 
BRANCH  27  28
HETATM   28  C   UNL     1      37.978  -6.973  12.999  1.00  0.00     0.002 C 
HETATM   29  C   UNL     1      39.068  -6.206  13.733  1.00  0.00     0.005 C 
ENDBRANCH  27  28
ENDBRANCH   1  27
TORSDOF 3
ENDMDL
