MODEL 1
REMARK VINA RESULT:      -8.9      0.000      0.000
REMARK  7 active torsions:
REMARK  status: ('A' for Active; 'I' for Inactive)
REMARK    1  A    between atoms: C_3  and  N_4 
REMARK       I    between atoms: N_4  and  C_5 
REMARK       I    between atoms: C_5  and  N_6 
REMARK       I    between atoms: N_6  and  C_7 
REMARK    2  A    between atoms: C_7  and  C_8 
REMARK    3  A    between atoms: C_8  and  S_9 
REMARK    4  A    between atoms: S_9  and  C_10 
REMARK    5  A    between atoms: N_11  and  C_12 
REMARK    6  A    between atoms: C_19  and  C_20 
REMARK    7  A    between atoms: C_20  and  N_21 
ROOT
HETATM    1  C   UNL     1      42.200 -11.602   3.268  1.00  0.00     0.196 A 
HETATM    2  N   UNL     1      41.520 -12.478   2.442  1.00  0.00    -0.274 N 
HETATM    3  C   UNL     1      40.645 -11.659   1.741  1.00  0.00     0.161 A 
HETATM    4  N   UNL     1      40.818 -10.402   2.101  1.00  0.00    -0.132 NA
HETATM    5  N   UNL     1      41.800 -10.369   3.051  1.00  0.00    -0.122 NA
ENDROOT
BRANCH   1   6
HETATM    6  S   UNL     1      43.516 -12.048   4.298  1.00  0.00    -0.080 SA
BRANCH   6   7
HETATM    7  C   UNL     1      42.635 -12.806   5.697  1.00  0.00     0.185 C 
BRANCH   7   8
HETATM    8  C   UNL     1      43.589 -13.276   6.792  1.00  0.00     0.235 C 
HETATM    9  N   UNL     1      43.954 -14.609   6.819  1.00  0.00    -0.278 N 
HETATM   10  C   UNL     1      43.458 -15.666   6.070  1.00  0.00     0.327 C 
HETATM   11  H   UNL     1      44.608 -14.824   7.554  1.00  0.00     0.173 HD
HETATM   12  N   UNL     1      44.175 -16.823   6.292  1.00  0.00    -0.306 N 
HETATM   13  O   UNL     1      42.509 -15.550   5.307  1.00  0.00    -0.247 OA
HETATM   14  H   UNL     1      44.806 -16.858   7.083  1.00  0.00     0.171 HD
HETATM   15  O   UNL     1      44.044 -12.539   7.673  1.00  0.00    -0.272 OA
BRANCH  12  16
HETATM   16  C   UNL     1      44.078 -18.042   5.582  1.00  0.00     0.075 A 
HETATM   17  C   UNL     1      44.436 -18.208   4.244  1.00  0.00     0.033 A 
HETATM   18  C   UNL     1      44.338 -19.469   3.642  1.00  0.00     0.002 A 
HETATM   19  C   UNL     1      43.879 -20.569   4.367  1.00  0.00     0.003 A 
HETATM   20  C   UNL     1      43.519 -20.414   5.703  1.00  0.00     0.044 A 
HETATM   21  C   UNL     1      43.625 -19.160   6.296  1.00  0.00     0.143 A 
HETATM   22  F   UNL     1      43.285 -19.019   7.588  1.00  0.00    -0.204 F 
ENDBRANCH  12  16
ENDBRANCH   7   8
ENDBRANCH   6   7
ENDBRANCH   1   6
BRANCH   2  23
HETATM   23  C   UNL     1      41.636 -13.886   2.334  1.00  0.00     0.043 A 
HETATM   24  C   UNL     1      40.563 -14.714   2.696  1.00  0.00     0.033 A 
HETATM   25  C   UNL     1      40.684 -16.099   2.571  1.00  0.00     0.044 A 
HETATM   26  C   UNL     1      41.870 -16.648   2.099  1.00  0.00     0.116 A 
HETATM   27  F   UNL     1      41.984 -17.976   1.982  1.00  0.00    -0.206 F 
HETATM   28  C   UNL     1      42.944 -15.837   1.749  1.00  0.00     0.044 A 
HETATM   29  C   UNL     1      42.832 -14.451   1.866  1.00  0.00     0.033 A 
ENDBRANCH   2  23
BRANCH   3  30
HETATM   30  C   UNL     1      39.528 -12.120   0.876  1.00  0.00     0.315 C 
BRANCH  30  31
HETATM   31  N   UNL     1      40.040 -12.700  -0.438  1.00  0.00    -0.064 N 
HETATM   32  H   UNL     1      40.799 -13.344  -0.155  1.00  0.00     0.280 HD
HETATM   33  C   UNL     1      38.996 -13.550  -1.123  1.00  0.00     0.235 C 
HETATM   34  C   UNL     1      39.596 -14.202  -2.359  1.00  0.00     0.028 C 
HETATM   35  C   UNL     1      40.198 -13.168  -3.304  1.00  0.00     0.003 C 
HETATM   36  C   UNL     1      41.218 -12.298  -2.580  1.00  0.00     0.028 C 
HETATM   37  C   UNL     1      40.625 -11.647  -1.338  1.00  0.00     0.235 C 
ENDBRANCH  30  31
ENDBRANCH   3  30
TORSDOF 7
ENDMDL
MODEL 2
REMARK VINA RESULT:      -8.9      5.938      9.739
REMARK  7 active torsions:
REMARK  status: ('A' for Active; 'I' for Inactive)
REMARK    1  A    between atoms: C_3  and  N_4 
REMARK       I    between atoms: N_4  and  C_5 
REMARK       I    between atoms: C_5  and  N_6 
REMARK       I    between atoms: N_6  and  C_7 
REMARK    2  A    between atoms: C_7  and  C_8 
REMARK    3  A    between atoms: C_8  and  S_9 
REMARK    4  A    between atoms: S_9  and  C_10 
REMARK    5  A    between atoms: N_11  and  C_12 
REMARK    6  A    between atoms: C_19  and  C_20 
REMARK    7  A    between atoms: C_20  and  N_21 
ROOT
HETATM    1  C   UNL     1      40.534  -9.210   8.957  1.00  0.00     0.196 A 
HETATM    2  N   UNL     1      41.702  -9.449   9.658  1.00  0.00    -0.274 N 
HETATM    3  C   UNL     1      41.261  -9.758  10.938  1.00  0.00     0.161 A 
HETATM    4  N   UNL     1      39.943  -9.735  10.978  1.00  0.00    -0.132 NA
HETATM    5  N   UNL     1      39.491  -9.402   9.732  1.00  0.00    -0.122 NA
ENDROOT
BRANCH   1   6
HETATM    6  S   UNL     1      40.459  -8.894   7.258  1.00  0.00    -0.080 SA
BRANCH   6   7
HETATM    7  C   UNL     1      40.740 -10.555   6.572  1.00  0.00     0.185 C 
BRANCH   7   8
HETATM    8  C   UNL     1      39.453 -11.371   6.490  1.00  0.00     0.235 C 
HETATM    9  N   UNL     1      39.493 -12.603   5.866  1.00  0.00    -0.278 N 
HETATM   10  C   UNL     1      40.524 -13.181   5.139  1.00  0.00     0.327 C 
HETATM   11  H   UNL     1      38.608 -13.083   5.885  1.00  0.00     0.173 HD
HETATM   12  N   UNL     1      40.227 -14.481   4.789  1.00  0.00    -0.306 N 
HETATM   13  O   UNL     1      41.559 -12.587   4.870  1.00  0.00    -0.247 OA
HETATM   14  H   UNL     1      39.273 -14.804   4.887  1.00  0.00     0.171 HD
HETATM   15  O   UNL     1      38.365 -10.987   6.934  1.00  0.00    -0.272 OA
BRANCH  12  16
HETATM   16  C   UNL     1      41.097 -15.433   4.209  1.00  0.00     0.075 A 
HETATM   17  C   UNL     1      42.164 -16.038   4.874  1.00  0.00     0.033 A 
HETATM   18  C   UNL     1      42.945 -17.000   4.221  1.00  0.00     0.002 A 
HETATM   19  C   UNL     1      42.672 -17.360   2.901  1.00  0.00     0.003 A 
HETATM   20  C   UNL     1      41.610 -16.762   2.227  1.00  0.00     0.044 A 
HETATM   21  C   UNL     1      40.835 -15.812   2.885  1.00  0.00     0.143 A 
HETATM   22  F   UNL     1      39.806 -15.245   2.233  1.00  0.00    -0.204 F 
ENDBRANCH  12  16
ENDBRANCH   7   8
ENDBRANCH   6   7
ENDBRANCH   1   6
BRANCH   2  23
HETATM   23  C   UNL     1      43.047  -9.370   9.219  1.00  0.00     0.043 A 
HETATM   24  C   UNL     1      43.728 -10.528   8.818  1.00  0.00     0.033 A 
HETATM   25  C   UNL     1      45.048 -10.436   8.373  1.00  0.00     0.044 A 
HETATM   26  C   UNL     1      45.680  -9.200   8.339  1.00  0.00     0.116 A 
HETATM   27  F   UNL     1      46.947  -9.115   7.915  1.00  0.00    -0.206 F 
HETATM   28  C   UNL     1      45.018  -8.046   8.746  1.00  0.00     0.044 A 
HETATM   29  C   UNL     1      43.697  -8.127   9.189  1.00  0.00     0.033 A 
ENDBRANCH   2  23
BRANCH   3  30
HETATM   30  C   UNL     1      42.118  -9.884  12.145  1.00  0.00     0.315 C 
BRANCH  30  31
HETATM   31  N   UNL     1      41.972  -8.675  13.064  1.00  0.00    -0.064 N 
HETATM   32  H   UNL     1      41.285  -8.070  12.582  1.00  0.00     0.280 HD
HETATM   33  C   UNL     1      41.352  -9.048  14.390  1.00  0.00     0.235 C 
HETATM   34  C   UNL     1      41.114  -7.794  15.216  1.00  0.00     0.028 C 
HETATM   35  C   UNL     1      42.395  -6.987  15.394  1.00  0.00     0.003 C 
HETATM   36  C   UNL     1      43.022  -6.658  14.045  1.00  0.00     0.028 C 
HETATM   37  C   UNL     1      43.257  -7.909  13.210  1.00  0.00     0.235 C 
ENDBRANCH  30  31
ENDBRANCH   3  30
TORSDOF 7
ENDMDL
MODEL 3
REMARK VINA RESULT:      -8.6      3.724      6.083
REMARK  7 active torsions:
REMARK  status: ('A' for Active; 'I' for Inactive)
REMARK    1  A    between atoms: C_3  and  N_4 
REMARK       I    between atoms: N_4  and  C_5 
REMARK       I    between atoms: C_5  and  N_6 
REMARK       I    between atoms: N_6  and  C_7 
REMARK    2  A    between atoms: C_7  and  C_8 
REMARK    3  A    between atoms: C_8  and  S_9 
REMARK    4  A    between atoms: S_9  and  C_10 
REMARK    5  A    between atoms: N_11  and  C_12 
REMARK    6  A    between atoms: C_19  and  C_20 
REMARK    7  A    between atoms: C_20  and  N_21 
ROOT
HETATM    1  C   UNL     1      42.810 -11.794   2.867  1.00  0.00     0.196 A 
HETATM    2  N   UNL     1      42.155 -12.928   2.422  1.00  0.00    -0.274 N 
HETATM    3  C   UNL     1      41.111 -12.428   1.657  1.00  0.00     0.161 A 
HETATM    4  N   UNL     1      41.165 -11.111   1.627  1.00  0.00    -0.132 NA
HETATM    5  N   UNL     1      42.237 -10.717   2.378  1.00  0.00    -0.122 NA
ENDROOT
BRANCH   1   6
HETATM    6  S   UNL     1      44.281 -11.805   3.777  1.00  0.00    -0.080 SA
BRANCH   6   7
HETATM    7  C   UNL     1      43.693 -11.269   5.413  1.00  0.00     0.185 C 
BRANCH   7   8
HETATM    8  C   UNL     1      43.950 -12.320   6.490  1.00  0.00     0.235 C 
HETATM    9  N   UNL     1      43.775 -11.962   7.813  1.00  0.00    -0.278 N 
HETATM   10  C   UNL     1      43.538 -10.706   8.355  1.00  0.00     0.327 C 
HETATM   11  H   UNL     1      43.937 -12.723   8.452  1.00  0.00     0.173 HD
HETATM   12  N   UNL     1      43.287 -10.779   9.708  1.00  0.00    -0.306 N 
HETATM   13  O   UNL     1      43.545  -9.684   7.684  1.00  0.00    -0.247 OA
HETATM   14  H   UNL     1      43.502 -11.641  10.196  1.00  0.00     0.171 HD
HETATM   15  O   UNL     1      44.324 -13.473   6.252  1.00  0.00    -0.272 OA
BRANCH  12  16
HETATM   16  C   UNL     1      42.832  -9.742  10.554  1.00  0.00     0.075 A 
HETATM   17  C   UNL     1      41.495  -9.372  10.702  1.00  0.00     0.033 A 
HETATM   18  C   UNL     1      41.142  -8.353  11.596  1.00  0.00     0.002 A 
HETATM   19  C   UNL     1      42.119  -7.694  12.344  1.00  0.00     0.003 A 
HETATM   20  C   UNL     1      43.457  -8.055  12.203  1.00  0.00     0.044 A 
HETATM   21  C   UNL     1      43.798  -9.072  11.317  1.00  0.00     0.143 A 
HETATM   22  F   UNL     1      45.089  -9.422  11.193  1.00  0.00    -0.204 F 
ENDBRANCH  12  16
ENDBRANCH   7   8
ENDBRANCH   6   7
ENDBRANCH   1   6
BRANCH   2  23
HETATM   23  C   UNL     1      42.434 -14.292   2.691  1.00  0.00     0.043 A 
HETATM   24  C   UNL     1      42.071 -14.858   3.922  1.00  0.00     0.033 A 
HETATM   25  C   UNL     1      42.338 -16.205   4.169  1.00  0.00     0.044 A 
HETATM   26  C   UNL     1      42.969 -16.974   3.199  1.00  0.00     0.116 A 
HETATM   27  F   UNL     1      43.225 -18.265   3.441  1.00  0.00    -0.206 F 
HETATM   28  C   UNL     1      43.344 -16.420   1.980  1.00  0.00     0.044 A 
HETATM   29  C   UNL     1      43.078 -15.074   1.721  1.00  0.00     0.033 A 
ENDBRANCH   2  23
BRANCH   3  30
HETATM   30  C   UNL     1      39.969 -13.216   1.124  1.00  0.00     0.315 C 
BRANCH  30  31
HETATM   31  N   UNL     1      39.832 -13.052  -0.386  1.00  0.00    -0.064 N 
HETATM   32  H   UNL     1      40.688 -12.542  -0.667  1.00  0.00     0.280 HD
HETATM   33  C   UNL     1      39.877 -14.381  -1.103  1.00  0.00     0.235 C 
HETATM   34  C   UNL     1      39.863 -14.154  -2.607  1.00  0.00     0.028 C 
HETATM   35  C   UNL     1      38.665 -13.315  -3.037  1.00  0.00     0.003 C 
HETATM   36  C   UNL     1      38.620 -11.998  -2.271  1.00  0.00     0.028 C 
HETATM   37  C   UNL     1      38.640 -12.219  -0.766  1.00  0.00     0.235 C 
ENDBRANCH  30  31
ENDBRANCH   3  30
TORSDOF 7
ENDMDL
MODEL 4
REMARK VINA RESULT:      -8.6      3.508      6.772
REMARK  7 active torsions:
REMARK  status: ('A' for Active; 'I' for Inactive)
REMARK    1  A    between atoms: C_3  and  N_4 
REMARK       I    between atoms: N_4  and  C_5 
REMARK       I    between atoms: C_5  and  N_6 
REMARK       I    between atoms: N_6  and  C_7 
REMARK    2  A    between atoms: C_7  and  C_8 
REMARK    3  A    between atoms: C_8  and  S_9 
REMARK    4  A    between atoms: S_9  and  C_10 
REMARK    5  A    between atoms: N_11  and  C_12 
REMARK    6  A    between atoms: C_19  and  C_20 
REMARK    7  A    between atoms: C_20  and  N_21 
ROOT
HETATM    1  C   UNL     1      40.323 -12.827   3.773  1.00  0.00     0.196 A 
HETATM    2  N   UNL     1      40.949 -13.510   2.746  1.00  0.00    -0.274 N 
HETATM    3  C   UNL     1      41.915 -14.268   3.395  1.00  0.00     0.161 A 
HETATM    4  N   UNL     1      41.841 -14.072   4.697  1.00  0.00    -0.132 NA
HETATM    5  N   UNL     1      40.837 -13.176   4.931  1.00  0.00    -0.122 NA
ENDROOT
BRANCH   1   6
HETATM    6  S   UNL     1      38.940 -11.808   3.571  1.00  0.00    -0.080 SA
BRANCH   6   7
HETATM    7  C   UNL     1      39.345 -10.431   4.689  1.00  0.00     0.185 C 
BRANCH   7   8
HETATM    8  C   UNL     1      39.106 -10.789   6.154  1.00  0.00     0.235 C 
HETATM    9  N   UNL     1      40.169 -10.705   7.033  1.00  0.00    -0.278 N 
HETATM   10  C   UNL     1      41.512 -10.482   6.762  1.00  0.00     0.327 C 
HETATM   11  H   UNL     1      39.915 -10.929   7.981  1.00  0.00     0.173 HD
HETATM   12  N   UNL     1      42.243 -10.334   7.922  1.00  0.00    -0.306 N 
HETATM   13  O   UNL     1      41.957 -10.418   5.625  1.00  0.00    -0.247 OA
HETATM   14  H   UNL     1      41.817 -10.602   8.801  1.00  0.00     0.171 HD
HETATM   15  O   UNL     1      38.019 -11.169   6.602  1.00  0.00    -0.272 OA
BRANCH  12  16
HETATM   16  C   UNL     1      43.590  -9.921   8.040  1.00  0.00     0.075 A 
HETATM   17  C   UNL     1      43.994  -8.632   8.389  1.00  0.00     0.033 A 
HETATM   18  C   UNL     1      45.356  -8.333   8.517  1.00  0.00     0.002 A 
HETATM   19  C   UNL     1      46.323  -9.314   8.293  1.00  0.00     0.003 A 
HETATM   20  C   UNL     1      45.930 -10.604   7.944  1.00  0.00     0.044 A 
HETATM   21  C   UNL     1      44.576 -10.894   7.825  1.00  0.00     0.143 A 
HETATM   22  F   UNL     1      44.203 -12.143   7.497  1.00  0.00    -0.204 F 
ENDBRANCH  12  16
ENDBRANCH   7   8
ENDBRANCH   6   7
ENDBRANCH   1   6
BRANCH   2  23
HETATM   23  C   UNL     1      40.713 -13.449   1.350  1.00  0.00     0.043 A 
HETATM   24  C   UNL     1      41.137 -12.337   0.610  1.00  0.00     0.033 A 
HETATM   25  C   UNL     1      40.912 -12.295  -0.768  1.00  0.00     0.044 A 
HETATM   26  C   UNL     1      40.262 -13.351  -1.393  1.00  0.00     0.116 A 
HETATM   27  F   UNL     1      40.045 -13.308  -2.713  1.00  0.00    -0.206 F 
HETATM   28  C   UNL     1      39.826 -14.454  -0.666  1.00  0.00     0.044 A 
HETATM   29  C   UNL     1      40.050 -14.507   0.711  1.00  0.00     0.033 A 
ENDBRANCH   2  23
BRANCH   3  30
HETATM   30  C   UNL     1      43.014 -15.021   2.738  1.00  0.00     0.315 C 
BRANCH  30  31
HETATM   31  N   UNL     1      43.001 -16.493   3.138  1.00  0.00    -0.064 N 
HETATM   32  H   UNL     1      42.010 -16.689   3.361  1.00  0.00     0.280 HD
HETATM   33  C   UNL     1      43.360 -17.395   1.980  1.00  0.00     0.235 C 
HETATM   34  C   UNL     1      43.211 -18.850   2.398  1.00  0.00     0.028 C 
HETATM   35  C   UNL     1      44.034 -19.164   3.641  1.00  0.00     0.003 C 
HETATM   36  C   UNL     1      43.683 -18.217   4.781  1.00  0.00     0.028 C 
HETATM   37  C   UNL     1      43.824 -16.759   4.368  1.00  0.00     0.235 C 
ENDBRANCH  30  31
ENDBRANCH   3  30
TORSDOF 7
ENDMDL
MODEL 5
REMARK VINA RESULT:      -8.5      4.740      8.153
REMARK  7 active torsions:
REMARK  status: ('A' for Active; 'I' for Inactive)
REMARK    1  A    between atoms: C_3  and  N_4 
REMARK       I    between atoms: N_4  and  C_5 
REMARK       I    between atoms: C_5  and  N_6 
REMARK       I    between atoms: N_6  and  C_7 
REMARK    2  A    between atoms: C_7  and  C_8 
REMARK    3  A    between atoms: C_8  and  S_9 
REMARK    4  A    between atoms: S_9  and  C_10 
REMARK    5  A    between atoms: N_11  and  C_12 
REMARK    6  A    between atoms: C_19  and  C_20 
REMARK    7  A    between atoms: C_20  and  N_21 
ROOT
HETATM    1  C   UNL     1      43.188 -12.862   5.992  1.00  0.00     0.196 A 
HETATM    2  N   UNL     1      42.377 -13.729   5.282  1.00  0.00    -0.274 N 
HETATM    3  C   UNL     1      42.443 -14.911   6.006  1.00  0.00     0.161 A 
HETATM    4  N   UNL     1      43.202 -14.745   7.072  1.00  0.00    -0.132 NA
HETATM    5  N   UNL     1      43.659 -13.457   7.065  1.00  0.00    -0.122 NA
ENDROOT
BRANCH   1   6
HETATM    6  S   UNL     1      43.394 -11.186   5.619  1.00  0.00    -0.080 SA
BRANCH   6   7
HETATM    7  C   UNL     1      43.254 -10.433   7.270  1.00  0.00     0.185 C 
BRANCH   7   8
HETATM    8  C   UNL     1      44.610 -10.293   7.956  1.00  0.00     0.235 C 
HETATM    9  N   UNL     1      44.650  -9.771   9.235  1.00  0.00    -0.278 N 
HETATM   10  C   UNL     1      43.629  -9.190   9.974  1.00  0.00     0.327 C 
HETATM   11  H   UNL     1      45.579  -9.743   9.620  1.00  0.00     0.173 HD
HETATM   12  N   UNL     1      44.032  -8.913  11.262  1.00  0.00    -0.306 N 
HETATM   13  O   UNL     1      42.516  -8.976   9.512  1.00  0.00    -0.247 OA
HETATM   14  H   UNL     1      45.021  -8.945  11.479  1.00  0.00     0.171 HD
HETATM   15  O   UNL     1      45.685 -10.601   7.429  1.00  0.00    -0.272 OA
BRANCH  12  16
HETATM   16  C   UNL     1      43.223  -8.492  12.343  1.00  0.00     0.075 A 
HETATM   17  C   UNL     1      42.988  -7.159  12.682  1.00  0.00     0.033 A 
HETATM   18  C   UNL     1      42.138  -6.845  13.750  1.00  0.00     0.002 A 
HETATM   19  C   UNL     1      41.523  -7.856  14.489  1.00  0.00     0.003 A 
HETATM   20  C   UNL     1      41.751  -9.190  14.160  1.00  0.00     0.044 A 
HETATM   21  C   UNL     1      42.591  -9.493  13.093  1.00  0.00     0.143 A 
HETATM   22  F   UNL     1      42.801 -10.782  12.774  1.00  0.00    -0.204 F 
ENDBRANCH  12  16
ENDBRANCH   7   8
ENDBRANCH   6   7
ENDBRANCH   1   6
BRANCH   2  23
HETATM   23  C   UNL     1      41.663 -13.509   4.077  1.00  0.00     0.043 A 
HETATM   24  C   UNL     1      42.327 -13.555   2.843  1.00  0.00     0.033 A 
HETATM   25  C   UNL     1      41.609 -13.351   1.663  1.00  0.00     0.044 A 
HETATM   26  C   UNL     1      40.245 -13.095   1.720  1.00  0.00     0.116 A 
HETATM   27  F   UNL     1      39.561 -12.898   0.587  1.00  0.00    -0.206 F 
HETATM   28  C   UNL     1      39.579 -13.035   2.940  1.00  0.00     0.044 A 
HETATM   29  C   UNL     1      40.287 -13.241   4.126  1.00  0.00     0.033 A 
ENDBRANCH   2  23
BRANCH   3  30
HETATM   30  C   UNL     1      41.927 -16.232   5.562  1.00  0.00     0.315 C 
BRANCH  30  31
HETATM   31  N   UNL     1      42.880 -16.901   4.576  1.00  0.00    -0.064 N 
HETATM   32  H   UNL     1      43.639 -16.210   4.445  1.00  0.00     0.280 HD
HETATM   33  C   UNL     1      43.525 -18.134   5.164  1.00  0.00     0.235 C 
HETATM   34  C   UNL     1      44.554 -18.688   4.191  1.00  0.00     0.028 C 
HETATM   35  C   UNL     1      43.941 -18.965   2.823  1.00  0.00     0.003 C 
HETATM   36  C   UNL     1      43.262 -17.718   2.269  1.00  0.00     0.028 C 
HETATM   37  C   UNL     1      42.236 -17.155   3.241  1.00  0.00     0.235 C 
ENDBRANCH  30  31
ENDBRANCH   3  30
TORSDOF 7
ENDMDL
MODEL 6
REMARK VINA RESULT:      -8.5      5.465      8.983
REMARK  7 active torsions:
REMARK  status: ('A' for Active; 'I' for Inactive)
REMARK    1  A    between atoms: C_3  and  N_4 
REMARK       I    between atoms: N_4  and  C_5 
REMARK       I    between atoms: C_5  and  N_6 
REMARK       I    between atoms: N_6  and  C_7 
REMARK    2  A    between atoms: C_7  and  C_8 
REMARK    3  A    between atoms: C_8  and  S_9 
REMARK    4  A    between atoms: S_9  and  C_10 
REMARK    5  A    between atoms: N_11  and  C_12 
REMARK    6  A    between atoms: C_19  and  C_20 
REMARK    7  A    between atoms: C_20  and  N_21 
ROOT
HETATM    1  C   UNL     1      40.097  -8.855   7.188  1.00  0.00     0.196 A 
HETATM    2  N   UNL     1      40.816  -8.533   8.325  1.00  0.00    -0.274 N 
HETATM    3  C   UNL     1      39.861  -7.999   9.179  1.00  0.00     0.161 A 
HETATM    4  N   UNL     1      38.674  -8.034   8.606  1.00  0.00    -0.132 NA
HETATM    5  N   UNL     1      38.823  -8.580   7.363  1.00  0.00    -0.122 NA
ENDROOT
BRANCH   1   6
HETATM    6  S   UNL     1      40.752  -9.677   5.814  1.00  0.00    -0.080 SA
BRANCH   6   7
HETATM    7  C   UNL     1      40.851 -11.384   6.432  1.00  0.00     0.185 C 
BRANCH   7   8
HETATM    8  C   UNL     1      39.602 -12.194   6.093  1.00  0.00     0.235 C 
HETATM    9  N   UNL     1      39.760 -13.412   5.459  1.00  0.00    -0.278 N 
HETATM   10  C   UNL     1      40.909 -13.977   4.924  1.00  0.00     0.327 C 
HETATM   11  H   UNL     1      38.888 -13.889   5.301  1.00  0.00     0.173 HD
HETATM   12  N   UNL     1      40.685 -15.267   4.495  1.00  0.00    -0.306 N 
HETATM   13  O   UNL     1      41.976 -13.380   4.868  1.00  0.00    -0.247 OA
HETATM   14  H   UNL     1      39.729 -15.589   4.405  1.00  0.00     0.171 HD
HETATM   15  O   UNL     1      38.450 -11.817   6.334  1.00  0.00    -0.272 OA
BRANCH  12  16
HETATM   16  C   UNL     1      41.649 -16.208   4.066  1.00  0.00     0.075 A 
HETATM   17  C   UNL     1      42.637 -16.757   4.884  1.00  0.00     0.033 A 
HETATM   18  C   UNL     1      43.523 -17.713   4.372  1.00  0.00     0.002 A 
HETATM   19  C   UNL     1      43.432 -18.125   3.041  1.00  0.00     0.003 A 
HETATM   20  C   UNL     1      42.450 -17.584   2.216  1.00  0.00     0.044 A 
HETATM   21  C   UNL     1      41.570 -16.639   2.734  1.00  0.00     0.143 A 
HETATM   22  F   UNL     1      40.618 -16.127   1.936  1.00  0.00    -0.204 F 
ENDBRANCH  12  16
ENDBRANCH   7   8
ENDBRANCH   6   7
ENDBRANCH   1   6
BRANCH   2  23
HETATM   23  C   UNL     1      42.204  -8.668   8.579  1.00  0.00     0.043 A 
HETATM   24  C   UNL     1      43.076  -7.600   8.325  1.00  0.00     0.033 A 
HETATM   25  C   UNL     1      44.439  -7.740   8.594  1.00  0.00     0.044 A 
HETATM   26  C   UNL     1      44.922  -8.939   9.102  1.00  0.00     0.116 A 
HETATM   27  F   UNL     1      46.229  -9.071   9.357  1.00  0.00    -0.206 F 
HETATM   28  C   UNL     1      44.067 -10.009   9.346  1.00  0.00     0.044 A 
HETATM   29  C   UNL     1      42.702  -9.878   9.084  1.00  0.00     0.033 A 
ENDBRANCH   2  23
BRANCH   3  30
HETATM   30  C   UNL     1      40.137  -7.291  10.457  1.00  0.00     0.315 C 
BRANCH  30  31
HETATM   31  N   UNL     1      40.872  -8.189  11.446  1.00  0.00    -0.064 N 
HETATM   32  H   UNL     1      41.190  -8.992  10.876  1.00  0.00     0.280 HD
HETATM   33  C   UNL     1      42.121  -7.530  11.985  1.00  0.00     0.235 C 
HETATM   34  C   UNL     1      42.878  -8.511  12.866  1.00  0.00     0.028 C 
HETATM   35  C   UNL     1      41.997  -9.059  13.983  1.00  0.00     0.003 C 
HETATM   36  C   UNL     1      40.727  -9.682  13.418  1.00  0.00     0.028 C 
HETATM   37  C   UNL     1      39.967  -8.707  12.529  1.00  0.00     0.235 C 
ENDBRANCH  30  31
ENDBRANCH   3  30
TORSDOF 7
ENDMDL
MODEL 7
REMARK VINA RESULT:      -8.5      3.441      7.017
REMARK  7 active torsions:
REMARK  status: ('A' for Active; 'I' for Inactive)
REMARK    1  A    between atoms: C_3  and  N_4 
REMARK       I    between atoms: N_4  and  C_5 
REMARK       I    between atoms: C_5  and  N_6 
REMARK       I    between atoms: N_6  and  C_7 
REMARK    2  A    between atoms: C_7  and  C_8 
REMARK    3  A    between atoms: C_8  and  S_9 
REMARK    4  A    between atoms: S_9  and  C_10 
REMARK    5  A    between atoms: N_11  and  C_12 
REMARK    6  A    between atoms: C_19  and  C_20 
REMARK    7  A    between atoms: C_20  and  N_21 
ROOT
HETATM    1  C   UNL     1      40.372 -11.412   6.337  1.00  0.00     0.196 A 
HETATM    2  N   UNL     1      41.461 -12.230   6.097  1.00  0.00    -0.274 N 
HETATM    3  C   UNL     1      40.889 -13.446   5.747  1.00  0.00     0.161 A 
HETATM    4  N   UNL     1      39.574 -13.343   5.750  1.00  0.00    -0.132 NA
HETATM    5  N   UNL     1      39.254 -12.064   6.110  1.00  0.00    -0.122 NA
ENDROOT
BRANCH   1   6
HETATM    6  S   UNL     1      40.475  -9.723   6.699  1.00  0.00    -0.080 SA
BRANCH   6   7
HETATM    7  C   UNL     1      39.954  -8.987   5.119  1.00  0.00     0.185 C 
BRANCH   7   8
HETATM    8  C   UNL     1      38.487  -9.274   4.807  1.00  0.00     0.235 C 
HETATM    9  N   UNL     1      38.190 -10.059   3.709  1.00  0.00    -0.278 N 
HETATM   10  C   UNL     1      39.037 -10.528   2.715  1.00  0.00     0.327 C 
HETATM   11  H   UNL     1      37.203 -10.221   3.596  1.00  0.00     0.173 HD
HETATM   12  N   UNL     1      38.385 -11.395   1.863  1.00  0.00    -0.306 N 
HETATM   13  O   UNL     1      40.214 -10.204   2.640  1.00  0.00    -0.247 OA
HETATM   14  H   UNL     1      37.373 -11.437   1.896  1.00  0.00     0.171 HD
HETATM   15  O   UNL     1      37.543  -8.829   5.467  1.00  0.00    -0.272 OA
BRANCH  12  16
HETATM   16  C   UNL     1      38.960 -12.200   0.854  1.00  0.00     0.075 A 
HETATM   17  C   UNL     1      39.044 -11.841  -0.492  1.00  0.00     0.033 A 
HETATM   18  C   UNL     1      39.668 -12.696  -1.410  1.00  0.00     0.002 A 
HETATM   19  C   UNL     1      40.207 -13.914  -0.993  1.00  0.00     0.003 A 
HETATM   20  C   UNL     1      40.128 -14.282   0.347  1.00  0.00     0.044 A 
HETATM   21  C   UNL     1      39.512 -13.425   1.254  1.00  0.00     0.143 A 
HETATM   22  F   UNL     1      39.447 -13.782   2.547  1.00  0.00    -0.204 F 
ENDBRANCH  12  16
ENDBRANCH   7   8
ENDBRANCH   6   7
ENDBRANCH   1   6
BRANCH   2  23
HETATM   23  C   UNL     1      42.844 -11.941   6.206  1.00  0.00     0.043 A 
HETATM   24  C   UNL     1      43.596 -11.640   5.062  1.00  0.00     0.033 A 
HETATM   25  C   UNL     1      44.954 -11.343   5.184  1.00  0.00     0.044 A 
HETATM   26  C   UNL     1      45.554 -11.358   6.437  1.00  0.00     0.116 A 
HETATM   27  F   UNL     1      46.857 -11.075   6.550  1.00  0.00    -0.206 F 
HETATM   28  C   UNL     1      44.820 -11.667   7.577  1.00  0.00     0.044 A 
HETATM   29  C   UNL     1      43.460 -11.962   7.466  1.00  0.00     0.033 A 
ENDBRANCH   2  23
BRANCH   3  30
HETATM   30  C   UNL     1      41.613 -14.735   5.601  1.00  0.00     0.315 C 
BRANCH  30  31
HETATM   31  N   UNL     1      41.815 -15.100   4.133  1.00  0.00    -0.064 N 
HETATM   32  H   UNL     1      41.090 -14.558   3.633  1.00  0.00     0.280 HD
HETATM   33  C   UNL     1      43.146 -14.609   3.610  1.00  0.00     0.235 C 
HETATM   34  C   UNL     1      43.243 -14.887   2.118  1.00  0.00     0.028 C 
HETATM   35  C   UNL     1      43.017 -16.361   1.805  1.00  0.00     0.003 C 
HETATM   36  C   UNL     1      41.689 -16.841   2.377  1.00  0.00     0.028 C 
HETATM   37  C   UNL     1      41.582 -16.561   3.869  1.00  0.00     0.235 C 
ENDBRANCH  30  31
ENDBRANCH   3  30
TORSDOF 7
ENDMDL
MODEL 8
REMARK VINA RESULT:      -8.4      3.810      7.019
REMARK  7 active torsions:
REMARK  status: ('A' for Active; 'I' for Inactive)
REMARK    1  A    between atoms: C_3  and  N_4 
REMARK       I    between atoms: N_4  and  C_5 
REMARK       I    between atoms: C_5  and  N_6 
REMARK       I    between atoms: N_6  and  C_7 
REMARK    2  A    between atoms: C_7  and  C_8 
REMARK    3  A    between atoms: C_8  and  S_9 
REMARK    4  A    between atoms: S_9  and  C_10 
REMARK    5  A    between atoms: N_11  and  C_12 
REMARK    6  A    between atoms: C_19  and  C_20 
REMARK    7  A    between atoms: C_20  and  N_21 
ROOT
HETATM    1  C   UNL     1      42.270 -10.975   2.888  1.00  0.00     0.196 A 
HETATM    2  N   UNL     1      41.842 -10.534   4.126  1.00  0.00    -0.274 N 
HETATM    3  C   UNL     1      42.817 -10.999   4.998  1.00  0.00     0.161 A 
HETATM    4  N   UNL     1      43.758 -11.633   4.325  1.00  0.00    -0.132 NA
HETATM    5  N   UNL     1      43.417 -11.607   3.002  1.00  0.00    -0.122 NA
ENDROOT
BRANCH   1   6
HETATM    6  S   UNL     1      41.501 -10.584   1.388  1.00  0.00    -0.080 SA
BRANCH   6   7
HETATM    7  C   UNL     1      40.992 -12.231   0.808  1.00  0.00     0.185 C 
BRANCH   7   8
HETATM    8  C   UNL     1      39.916 -12.848   1.698  1.00  0.00     0.235 C 
HETATM    9  N   UNL     1      40.193 -14.046   2.329  1.00  0.00    -0.278 N 
HETATM   10  C   UNL     1      41.280 -14.891   2.163  1.00  0.00     0.327 C 
HETATM   11  H   UNL     1      39.440 -14.363   2.919  1.00  0.00     0.173 HD
HETATM   12  N   UNL     1      41.261 -15.925   3.075  1.00  0.00    -0.306 N 
HETATM   13  O   UNL     1      42.138 -14.707   1.311  1.00  0.00    -0.247 OA
HETATM   14  H   UNL     1      40.410 -16.095   3.597  1.00  0.00     0.171 HD
HETATM   15  O   UNL     1      38.799 -12.350   1.876  1.00  0.00    -0.272 OA
BRANCH  12  16
HETATM   16  C   UNL     1      42.284 -16.868   3.325  1.00  0.00     0.075 A 
HETATM   17  C   UNL     1      42.663 -17.878   2.439  1.00  0.00     0.033 A 
HETATM   18  C   UNL     1      43.717 -18.740   2.765  1.00  0.00     0.002 A 
HETATM   19  C   UNL     1      44.397 -18.604   3.976  1.00  0.00     0.003 A 
HETATM   20  C   UNL     1      44.027 -17.600   4.867  1.00  0.00     0.044 A 
HETATM   21  C   UNL     1      42.983 -16.744   4.533  1.00  0.00     0.143 A 
HETATM   22  F   UNL     1      42.637 -15.772   5.393  1.00  0.00    -0.204 F 
ENDBRANCH  12  16
ENDBRANCH   7   8
ENDBRANCH   6   7
ENDBRANCH   1   6
BRANCH   2  23
HETATM   23  C   UNL     1      40.673  -9.808   4.468  1.00  0.00     0.043 A 
HETATM   24  C   UNL     1      40.704  -8.408   4.530  1.00  0.00     0.033 A 
HETATM   25  C   UNL     1      39.543  -7.703   4.853  1.00  0.00     0.044 A 
HETATM   26  C   UNL     1      38.368  -8.395   5.120  1.00  0.00     0.116 A 
HETATM   27  F   UNL     1      37.257  -7.718   5.432  1.00  0.00    -0.206 F 
HETATM   28  C   UNL     1      38.330  -9.785   5.074  1.00  0.00     0.044 A 
HETATM   29  C   UNL     1      39.485 -10.498   4.748  1.00  0.00     0.033 A 
ENDBRANCH   2  23
BRANCH   3  30
HETATM   30  C   UNL     1      42.733 -10.989   6.481  1.00  0.00     0.315 C 
BRANCH  30  31
HETATM   31  N   UNL     1      43.890 -10.215   7.103  1.00  0.00    -0.064 N 
HETATM   32  H   UNL     1      44.264  -9.644   6.325  1.00  0.00     0.280 HD
HETATM   33  C   UNL     1      43.415  -9.239   8.154  1.00  0.00     0.235 C 
HETATM   34  C   UNL     1      44.588  -8.408   8.650  1.00  0.00     0.028 C 
HETATM   35  C   UNL     1      45.722  -9.288   9.162  1.00  0.00     0.003 C 
HETATM   36  C   UNL     1      46.157 -10.290   8.099  1.00  0.00     0.028 C 
HETATM   37  C   UNL     1      44.986 -11.120   7.594  1.00  0.00     0.235 C 
ENDBRANCH  30  31
ENDBRANCH   3  30
TORSDOF 7
ENDMDL
MODEL 9
REMARK VINA RESULT:      -8.4      3.114      7.746
REMARK  7 active torsions:
REMARK  status: ('A' for Active; 'I' for Inactive)
REMARK    1  A    between atoms: C_3  and  N_4 
REMARK       I    between atoms: N_4  and  C_5 
REMARK       I    between atoms: C_5  and  N_6 
REMARK       I    between atoms: N_6  and  C_7 
REMARK    2  A    between atoms: C_7  and  C_8 
REMARK    3  A    between atoms: C_8  and  S_9 
REMARK    4  A    between atoms: S_9  and  C_10 
REMARK    5  A    between atoms: N_11  and  C_12 
REMARK    6  A    between atoms: C_19  and  C_20 
REMARK    7  A    between atoms: C_20  and  N_21 
ROOT
HETATM    1  C   UNL     1      40.360 -13.509   6.303  1.00  0.00     0.196 A 
HETATM    2  N   UNL     1      41.684 -13.892   6.185  1.00  0.00    -0.274 N 
HETATM    3  C   UNL     1      41.635 -15.277   6.263  1.00  0.00     0.161 A 
HETATM    4  N   UNL     1      40.384 -15.677   6.383  1.00  0.00    -0.132 NA
HETATM    5  N   UNL     1      39.587 -14.567   6.397  1.00  0.00    -0.122 NA
ENDROOT
BRANCH   1   6
HETATM    6  S   UNL     1      39.795 -11.880   6.154  1.00  0.00    -0.080 SA
BRANCH   6   7
HETATM    7  C   UNL     1      39.285 -11.837   4.409  1.00  0.00     0.185 C 
BRANCH   7   8
HETATM    8  C   UNL     1      40.156 -10.899   3.577  1.00  0.00     0.235 C 
HETATM    9  N   UNL     1      40.239 -11.114   2.215  1.00  0.00    -0.278 N 
HETATM   10  C   UNL     1      39.759 -12.179   1.467  1.00  0.00     0.327 C 
HETATM   11  H   UNL     1      40.809 -10.431   1.742  1.00  0.00     0.173 HD
HETATM   12  N   UNL     1      39.924 -11.963   0.115  1.00  0.00    -0.306 N 
HETATM   13  O   UNL     1      39.246 -13.167   1.974  1.00  0.00    -0.247 OA
HETATM   14  H   UNL     1      40.533 -11.212  -0.185  1.00  0.00     0.171 HD
HETATM   15  O   UNL     1      40.809  -9.964   4.052  1.00  0.00    -0.272 OA
BRANCH  12  16
HETATM   16  C   UNL     1      39.400 -12.734  -0.948  1.00  0.00     0.075 A 
HETATM   17  C   UNL     1      40.084 -13.771  -1.584  1.00  0.00     0.033 A 
HETATM   18  C   UNL     1      39.461 -14.501  -2.604  1.00  0.00     0.002 A 
HETATM   19  C   UNL     1      38.157 -14.201  -2.998  1.00  0.00     0.003 A 
HETATM   20  C   UNL     1      37.465 -13.169  -2.370  1.00  0.00     0.044 A 
HETATM   21  C   UNL     1      38.088 -12.452  -1.354  1.00  0.00     0.143 A 
HETATM   22  F   UNL     1      37.413 -11.463  -0.745  1.00  0.00    -0.204 F 
ENDBRANCH  12  16
ENDBRANCH   7   8
ENDBRANCH   6   7
ENDBRANCH   1   6
BRANCH   2  23
HETATM   23  C   UNL     1      42.845 -13.089   6.053  1.00  0.00     0.043 A 
HETATM   24  C   UNL     1      43.651 -12.822   7.169  1.00  0.00     0.033 A 
HETATM   25  C   UNL     1      44.799 -12.042   7.023  1.00  0.00     0.044 A 
HETATM   26  C   UNL     1      45.130 -11.529   5.775  1.00  0.00     0.116 A 
HETATM   27  F   UNL     1      46.231 -10.780   5.638  1.00  0.00    -0.206 F 
HETATM   28  C   UNL     1      44.331 -11.777   4.664  1.00  0.00     0.044 A 
HETATM   29  C   UNL     1      43.183 -12.559   4.799  1.00  0.00     0.033 A 
ENDBRANCH   2  23
BRANCH   3  30
HETATM   30  C   UNL     1      42.805 -16.181   6.410  1.00  0.00     0.315 C 
BRANCH  30  31
HETATM   31  N   UNL     1      42.894 -17.173   5.254  1.00  0.00    -0.064 N 
HETATM   32  H   UNL     1      42.018 -17.719   5.317  1.00  0.00     0.280 HD
HETATM   33  C   UNL     1      42.864 -16.477   3.913  1.00  0.00     0.235 C 
HETATM   34  C   UNL     1      42.830 -17.512   2.799  1.00  0.00     0.028 C 
HETATM   35  C   UNL     1      43.993 -18.491   2.907  1.00  0.00     0.003 C 
HETATM   36  C   UNL     1      44.026 -19.149   4.281  1.00  0.00     0.028 C 
HETATM   37  C   UNL     1      44.054 -18.118   5.400  1.00  0.00     0.235 C 
ENDBRANCH  30  31
ENDBRANCH   3  30
TORSDOF 7
ENDMDL
MODEL 10
REMARK VINA RESULT:      -8.3      3.144      8.911
REMARK  7 active torsions:
REMARK  status: ('A' for Active; 'I' for Inactive)
REMARK    1  A    between atoms: C_3  and  N_4 
REMARK       I    between atoms: N_4  and  C_5 
REMARK       I    between atoms: C_5  and  N_6 
REMARK       I    between atoms: N_6  and  C_7 
REMARK    2  A    between atoms: C_7  and  C_8 
REMARK    3  A    between atoms: C_8  and  S_9 
REMARK    4  A    between atoms: S_9  and  C_10 
REMARK    5  A    between atoms: N_11  and  C_12 
REMARK    6  A    between atoms: C_19  and  C_20 
REMARK    7  A    between atoms: C_20  and  N_21 
ROOT
HETATM    1  C   UNL     1      41.470 -12.765   4.396  1.00  0.00     0.196 A 
HETATM    2  N   UNL     1      42.396 -13.341   5.246  1.00  0.00    -0.274 N 
HETATM    3  C   UNL     1      43.114 -12.258   5.735  1.00  0.00     0.161 A 
HETATM    4  N   UNL     1      42.630 -11.136   5.239  1.00  0.00    -0.132 NA
HETATM    5  N   UNL     1      41.593 -11.456   4.409  1.00  0.00    -0.122 NA
ENDROOT
BRANCH   1   6
HETATM    6  S   UNL     1      40.211 -13.632   3.586  1.00  0.00    -0.080 SA
BRANCH   6   7
HETATM    7  C   UNL     1      41.025 -14.058   2.016  1.00  0.00     0.185 C 
BRANCH   7   8
HETATM    8  C   UNL     1      40.117 -14.874   1.099  1.00  0.00     0.235 C 
HETATM    9  N   UNL     1      39.638 -14.278  -0.052  1.00  0.00    -0.278 N 
HETATM   10  C   UNL     1      39.731 -12.953  -0.454  1.00  0.00     0.327 C 
HETATM   11  H   UNL     1      39.074 -14.897  -0.610  1.00  0.00     0.173 HD
HETATM   12  N   UNL     1      39.243 -12.778  -1.732  1.00  0.00    -0.306 N 
HETATM   13  O   UNL     1      40.203 -12.077   0.256  1.00  0.00    -0.247 OA
HETATM   14  H   UNL     1      38.698 -13.522  -2.149  1.00  0.00     0.171 HD
HETATM   15  O   UNL     1      39.767 -16.035   1.333  1.00  0.00    -0.272 OA
BRANCH  12  16
HETATM   16  C   UNL     1      39.337 -11.617  -2.534  1.00  0.00     0.075 A 
HETATM   17  C   UNL     1      38.274 -10.755  -2.804  1.00  0.00     0.033 A 
HETATM   18  C   UNL     1      38.480  -9.608  -3.582  1.00  0.00     0.002 A 
HETATM   19  C   UNL     1      39.743  -9.317  -4.099  1.00  0.00     0.003 A 
HETATM   20  C   UNL     1      40.810 -10.172  -3.836  1.00  0.00     0.044 A 
HETATM   21  C   UNL     1      40.599 -11.305  -3.057  1.00  0.00     0.143 A 
HETATM   22  F   UNL     1      41.635 -12.121  -2.800  1.00  0.00    -0.204 F 
ENDBRANCH  12  16
ENDBRANCH   7   8
ENDBRANCH   6   7
ENDBRANCH   1   6
BRANCH   2  23
HETATM   23  C   UNL     1      42.614 -14.709   5.545  1.00  0.00     0.043 A 
HETATM   24  C   UNL     1      43.263 -15.539   4.621  1.00  0.00     0.033 A 
HETATM   25  C   UNL     1      43.485 -16.882   4.932  1.00  0.00     0.044 A 
HETATM   26  C   UNL     1      43.053 -17.387   6.152  1.00  0.00     0.116 A 
HETATM   27  F   UNL     1      43.266 -18.676   6.447  1.00  0.00    -0.206 F 
HETATM   28  C   UNL     1      42.398 -16.576   7.071  1.00  0.00     0.044 A 
HETATM   29  C   UNL     1      42.174 -15.231   6.771  1.00  0.00     0.033 A 
ENDBRANCH   2  23
BRANCH   3  30
HETATM   30  C   UNL     1      44.373 -12.333   6.521  1.00  0.00     0.315 C 
BRANCH  30  31
HETATM   31  N   UNL     1      44.663 -11.019   7.240  1.00  0.00    -0.064 N 
HETATM   32  H   UNL     1      44.242 -10.296   6.631  1.00  0.00     0.280 HD
HETATM   33  C   UNL     1      43.939 -10.931   8.564  1.00  0.00     0.235 C 
HETATM   34  C   UNL     1      44.161  -9.558   9.179  1.00  0.00     0.028 C 
HETATM   35  C   UNL     1      45.645  -9.238   9.318  1.00  0.00     0.003 C 
HETATM   36  C   UNL     1      46.359  -9.373   7.979  1.00  0.00     0.028 C 
HETATM   37  C   UNL     1      46.136 -10.743   7.355  1.00  0.00     0.235 C 
ENDBRANCH  30  31
ENDBRANCH   3  30
TORSDOF 7
ENDMDL
