MODEL 1
REMARK VINA RESULT:     -10.2      0.000      0.000
REMARK  6 active torsions:
REMARK  status: ('A' for Active; 'I' for Inactive)
REMARK    1  A    between atoms: C_5  and  N_6 
REMARK    2  A    between atoms: C_8  and  C_9 
REMARK    3  A    between atoms: C_16  and  C_17 
REMARK    4  A    between atoms: C_17  and  N_18 
REMARK    5  A    between atoms: C_22  and  N_23 
REMARK    6  A    between atoms: C_26  and  O_27 
ROOT
HETATM    1  N   UNL     1      40.783 -14.360   2.287  1.00  0.00    -0.244 N 
HETATM    2  N   UNL     1      41.506 -15.500   2.324  1.00  0.00    -0.167 NA
HETATM    3  C   UNL     1      41.979 -15.611   3.565  1.00  0.00     0.097 A 
HETATM    4  C   UNL     1      41.686 -14.447   4.328  1.00  0.00     0.016 A 
HETATM    5  C   UNL     1      40.870 -13.699   3.497  1.00  0.00     0.130 A 
ENDROOT
BRANCH   4   6
HETATM    6  C   UNL     1      42.123 -14.105   5.702  1.00  0.00     0.277 C 
BRANCH   6   7
HETATM    7  N   UNL     1      42.914 -12.782   5.818  1.00  0.00    -0.067 N 
HETATM    8  H   UNL     1      43.299 -12.643   4.868  1.00  0.00     0.280 HD
HETATM    9  C   UNL     1      42.022 -11.612   6.125  1.00  0.00     0.237 C 
HETATM   10  C   UNL     1      42.828 -10.341   6.295  1.00  0.00     0.061 C 
HETATM   11  C   UNL     1      43.943 -10.437   7.332  1.00  0.00     0.191 C 
HETATM   12  C   UNL     1      44.810 -11.673   7.076  1.00  0.00     0.061 C 
HETATM   13  C   UNL     1      44.059 -12.969   6.778  1.00  0.00     0.237 C 
BRANCH  11  14
HETATM   14  N   UNL     1      43.486 -10.273   8.782  1.00  0.00    -0.064 N 
HETATM   15  H   UNL     1      43.156 -11.222   9.068  1.00  0.00     0.280 HD
HETATM   16  C   UNL     1      44.653 -10.101   9.782  1.00  0.00     0.266 C 
HETATM   17  C   UNL     1      44.136 -10.499  11.168  1.00  0.00     0.144 C 
HETATM   18  C   UNL     1      43.010  -9.560  11.588  1.00  0.00     0.035 C 
HETATM   19  C   UNL     1      41.869  -9.586  10.575  1.00  0.00     0.030 C 
HETATM   20  C   UNL     1      42.332  -9.367   9.137  1.00  0.00     0.235 C 
BRANCH  17  21
HETATM   21  O   UNL     1      43.608 -11.823  11.028  1.00  0.00    -0.394 OA
HETATM   22  H   UNL     1      42.635 -11.740  10.934  1.00  0.00     0.210 HD
ENDBRANCH  17  21
ENDBRANCH  11  14
ENDBRANCH   6   7
ENDBRANCH   4   6
BRANCH   3  23
HETATM   23  C   UNL     1      42.727 -16.796   3.973  1.00  0.00    -0.005 A 
HETATM   24  C   UNL     1      42.858 -17.113   5.331  1.00  0.00     0.017 A 
HETATM   25  C   UNL     1      43.566 -18.253   5.720  1.00  0.00     0.043 A 
HETATM   26  C   UNL     1      44.148 -19.064   4.752  1.00  0.00     0.116 A 
HETATM   27  F   UNL     1      44.820 -20.158   5.125  1.00  0.00    -0.206 F 
HETATM   28  C   UNL     1      44.047 -18.750   3.401  1.00  0.00     0.043 A 
HETATM   29  C   UNL     1      43.342 -17.611   3.009  1.00  0.00     0.017 A 
ENDBRANCH   3  23
BRANCH   1  30
HETATM   30  C   UNL     1      40.112 -13.938   1.108  1.00  0.00     0.058 A 
HETATM   31  C   UNL     1      40.032 -14.809   0.012  1.00  0.00     0.032 A 
HETATM   32  C   UNL     1      39.388 -14.409  -1.162  1.00  0.00     0.009 A 
HETATM   33  C   UNL     1      38.824 -13.134  -1.264  1.00  0.00    -0.062 A 
HETATM   34  C   UNL     1      38.116 -12.701  -2.516  1.00  0.00     0.048 C 
HETATM   35  C   UNL     1      38.896 -12.268  -0.167  1.00  0.00     0.009 A 
HETATM   36  C   UNL     1      39.535 -12.664   1.014  1.00  0.00     0.032 A 
ENDBRANCH   1  30
TORSDOF 6
ENDMDL
MODEL 2
REMARK VINA RESULT:      -9.9      2.533      8.062
REMARK  6 active torsions:
REMARK  status: ('A' for Active; 'I' for Inactive)
REMARK    1  A    between atoms: C_5  and  N_6 
REMARK    2  A    between atoms: C_8  and  C_9 
REMARK    3  A    between atoms: C_16  and  C_17 
REMARK    4  A    between atoms: C_17  and  N_18 
REMARK    5  A    between atoms: C_22  and  N_23 
REMARK    6  A    between atoms: C_26  and  O_27 
ROOT
HETATM    1  N   UNL     1      43.473 -13.407   6.324  1.00  0.00    -0.244 N 
HETATM    2  N   UNL     1      43.953 -14.666   6.411  1.00  0.00    -0.167 NA
HETATM    3  C   UNL     1      43.124 -15.439   5.708  1.00  0.00     0.097 A 
HETATM    4  C   UNL     1      41.991 -14.701   5.267  1.00  0.00     0.016 A 
HETATM    5  C   UNL     1      42.280 -13.396   5.627  1.00  0.00     0.130 A 
ENDROOT
BRANCH   4   6
HETATM    6  C   UNL     1      40.784 -15.191   4.562  1.00  0.00     0.277 C 
BRANCH   6   7
HETATM    7  N   UNL     1      40.954 -15.369   3.036  1.00  0.00    -0.067 N 
HETATM    8  H   UNL     1      41.609 -16.165   2.954  1.00  0.00     0.280 HD
HETATM    9  C   UNL     1      39.669 -15.764   2.363  1.00  0.00     0.237 C 
HETATM   10  C   UNL     1      39.849 -15.871   0.863  1.00  0.00     0.061 C 
HETATM   11  C   UNL     1      40.421 -14.617   0.208  1.00  0.00     0.191 C 
HETATM   12  C   UNL     1      41.687 -14.159   0.937  1.00  0.00     0.061 C 
HETATM   13  C   UNL     1      41.613 -14.143   2.462  1.00  0.00     0.237 C 
BRANCH  11  14
HETATM   14  N   UNL     1      39.401 -13.507  -0.051  1.00  0.00    -0.064 N 
HETATM   15  H   UNL     1      38.580 -13.753   0.546  1.00  0.00     0.280 HD
HETATM   16  C   UNL     1      39.784 -12.154   0.594  1.00  0.00     0.266 C 
HETATM   17  C   UNL     1      38.500 -11.334   0.745  1.00  0.00     0.144 C 
HETATM   18  C   UNL     1      37.902 -11.052  -0.629  1.00  0.00     0.035 C 
HETATM   19  C   UNL     1      37.611 -12.350  -1.377  1.00  0.00     0.030 C 
HETATM   20  C   UNL     1      38.803 -13.302  -1.421  1.00  0.00     0.235 C 
BRANCH  17  21
HETATM   21  O   UNL     1      37.590 -12.158   1.486  1.00  0.00    -0.394 OA
HETATM   22  H   UNL     1      36.759 -12.212   0.968  1.00  0.00     0.210 HD
ENDBRANCH  17  21
ENDBRANCH  11  14
ENDBRANCH   6   7
ENDBRANCH   4   6
BRANCH   3  23
HETATM   23  C   UNL     1      43.414 -16.855   5.514  1.00  0.00    -0.005 A 
HETATM   24  C   UNL     1      43.863 -17.318   4.269  1.00  0.00     0.017 A 
HETATM   25  C   UNL     1      44.149 -18.673   4.087  1.00  0.00     0.043 A 
HETATM   26  C   UNL     1      43.975 -19.560   5.143  1.00  0.00     0.116 A 
HETATM   27  F   UNL     1      44.255 -20.857   4.970  1.00  0.00    -0.206 F 
HETATM   28  C   UNL     1      43.508 -19.121   6.377  1.00  0.00     0.043 A 
HETATM   29  C   UNL     1      43.220 -17.768   6.563  1.00  0.00     0.017 A 
ENDBRANCH   3  23
BRANCH   1  30
HETATM   30  C   UNL     1      44.130 -12.312   6.948  1.00  0.00     0.058 A 
HETATM   31  C   UNL     1      43.509 -11.659   8.022  1.00  0.00     0.032 A 
HETATM   32  C   UNL     1      44.131 -10.571   8.642  1.00  0.00     0.009 A 
HETATM   33  C   UNL     1      45.374 -10.115   8.195  1.00  0.00    -0.062 A 
HETATM   34  C   UNL     1      46.058  -8.958   8.865  1.00  0.00     0.048 C 
HETATM   35  C   UNL     1      45.998 -10.774   7.130  1.00  0.00     0.009 A 
HETATM   36  C   UNL     1      45.383 -11.866   6.508  1.00  0.00     0.032 A 
ENDBRANCH   1  30
TORSDOF 6
ENDMDL
MODEL 3
REMARK VINA RESULT:      -9.6      3.198      8.858
REMARK  6 active torsions:
REMARK  status: ('A' for Active; 'I' for Inactive)
REMARK    1  A    between atoms: C_5  and  N_6 
REMARK    2  A    between atoms: C_8  and  C_9 
REMARK    3  A    between atoms: C_16  and  C_17 
REMARK    4  A    between atoms: C_17  and  N_18 
REMARK    5  A    between atoms: C_22  and  N_23 
REMARK    6  A    between atoms: C_26  and  O_27 
ROOT
HETATM    1  N   UNL     1      42.956 -12.233   5.789  1.00  0.00    -0.244 N 
HETATM    2  N   UNL     1      43.389 -13.449   5.389  1.00  0.00    -0.167 NA
HETATM    3  C   UNL     1      42.521 -13.879   4.473  1.00  0.00     0.097 A 
HETATM    4  C   UNL     1      41.410 -12.997   4.370  1.00  0.00     0.016 A 
HETATM    5  C   UNL     1      41.754 -11.929   5.180  1.00  0.00     0.130 A 
ENDROOT
BRANCH   4   6
HETATM    6  C   UNL     1      40.174 -13.155   3.568  1.00  0.00     0.277 C 
BRANCH   6   7
HETATM    7  N   UNL     1      39.978 -12.089   2.466  1.00  0.00    -0.067 N 
HETATM    8  H   UNL     1      40.158 -11.195   2.956  1.00  0.00     0.280 HD
HETATM    9  C   UNL     1      40.992 -12.218   1.363  1.00  0.00     0.237 C 
HETATM   10  C   UNL     1      40.740 -11.203   0.269  1.00  0.00     0.061 C 
HETATM   11  C   UNL     1      39.328 -11.239  -0.309  1.00  0.00     0.191 C 
HETATM   12  C   UNL     1      38.287 -11.190   0.812  1.00  0.00     0.061 C 
HETATM   13  C   UNL     1      38.544 -12.105   2.007  1.00  0.00     0.237 C 
BRANCH  11  14
HETATM   14  N   UNL     1      39.089 -12.334  -1.349  1.00  0.00    -0.064 N 
HETATM   15  H   UNL     1      39.506 -11.962  -2.231  1.00  0.00     0.280 HD
HETATM   16  C   UNL     1      39.986 -13.579  -1.153  1.00  0.00     0.266 C 
HETATM   17  C   UNL     1      40.061 -14.311  -2.495  1.00  0.00     0.144 C 
HETATM   18  C   UNL     1      38.672 -14.789  -2.902  1.00  0.00     0.035 C 
HETATM   19  C   UNL     1      37.696 -13.618  -2.996  1.00  0.00     0.030 C 
HETATM   20  C   UNL     1      37.691 -12.735  -1.751  1.00  0.00     0.235 C 
BRANCH  17  21
HETATM   21  O   UNL     1      40.516 -13.343  -3.448  1.00  0.00    -0.394 OA
HETATM   22  H   UNL     1      39.743 -12.793  -3.696  1.00  0.00     0.210 HD
ENDBRANCH  17  21
ENDBRANCH  11  14
ENDBRANCH   6   7
ENDBRANCH   4   6
BRANCH   3  23
HETATM   23  C   UNL     1      42.754 -15.130   3.759  1.00  0.00    -0.005 A 
HETATM   24  C   UNL     1      43.014 -15.117   2.382  1.00  0.00     0.017 A 
HETATM   25  C   UNL     1      43.246 -16.314   1.700  1.00  0.00     0.043 A 
HETATM   26  C   UNL     1      43.206 -17.518   2.394  1.00  0.00     0.116 A 
HETATM   27  F   UNL     1      43.434 -18.664   1.742  1.00  0.00    -0.206 F 
HETATM   28  C   UNL     1      42.926 -17.550   3.756  1.00  0.00     0.043 A 
HETATM   29  C   UNL     1      42.692 -16.357   4.440  1.00  0.00     0.017 A 
ENDBRANCH   3  23
BRANCH   1  30
HETATM   30  C   UNL     1      43.664 -11.469   6.756  1.00  0.00     0.058 A 
HETATM   31  C   UNL     1      42.977 -10.504   7.506  1.00  0.00     0.032 A 
HETATM   32  C   UNL     1      43.657  -9.732   8.453  1.00  0.00     0.009 A 
HETATM   33  C   UNL     1      45.028  -9.905   8.658  1.00  0.00    -0.062 A 
HETATM   34  C   UNL     1      45.763  -9.091   9.685  1.00  0.00     0.048 C 
HETATM   35  C   UNL     1      45.711 -10.875   7.916  1.00  0.00     0.009 A 
HETATM   36  C   UNL     1      45.036 -11.655   6.970  1.00  0.00     0.032 A 
ENDBRANCH   1  30
TORSDOF 6
ENDMDL
MODEL 4
REMARK VINA RESULT:      -9.6      3.772      8.639
REMARK  6 active torsions:
REMARK  status: ('A' for Active; 'I' for Inactive)
REMARK    1  A    between atoms: C_5  and  N_6 
REMARK    2  A    between atoms: C_8  and  C_9 
REMARK    3  A    between atoms: C_16  and  C_17 
REMARK    4  A    between atoms: C_17  and  N_18 
REMARK    5  A    between atoms: C_22  and  N_23 
REMARK    6  A    between atoms: C_26  and  O_27 
ROOT
HETATM    1  N   UNL     1      43.142 -14.900   3.720  1.00  0.00    -0.244 N 
HETATM    2  N   UNL     1      43.376 -14.309   4.913  1.00  0.00    -0.167 NA
HETATM    3  C   UNL     1      43.139 -13.008   4.746  1.00  0.00     0.097 A 
HETATM    4  C   UNL     1      42.884 -12.707   3.379  1.00  0.00     0.016 A 
HETATM    5  C   UNL     1      42.835 -13.948   2.767  1.00  0.00     0.130 A 
ENDROOT
BRANCH   4   6
HETATM    6  C   UNL     1      42.690 -11.383   2.743  1.00  0.00     0.277 C 
BRANCH   6   7
HETATM    7  N   UNL     1      41.234 -11.074   2.327  1.00  0.00    -0.067 N 
HETATM    8  H   UNL     1      40.977 -10.267   2.920  1.00  0.00     0.280 HD
HETATM    9  C   UNL     1      41.133 -10.637   0.892  1.00  0.00     0.237 C 
HETATM   10  C   UNL     1      39.692 -10.400   0.494  1.00  0.00     0.061 C 
HETATM   11  C   UNL     1      38.766 -11.587   0.747  1.00  0.00     0.191 C 
HETATM   12  C   UNL     1      38.921 -12.092   2.184  1.00  0.00     0.061 C 
HETATM   13  C   UNL     1      40.353 -12.239   2.692  1.00  0.00     0.237 C 
BRANCH  11  14
HETATM   14  N   UNL     1      38.822 -12.682  -0.319  1.00  0.00    -0.064 N 
HETATM   15  H   UNL     1      37.879 -13.130  -0.292  1.00  0.00     0.280 HD
HETATM   16  C   UNL     1      38.798 -12.137  -1.766  1.00  0.00     0.266 C 
HETATM   17  C   UNL     1      38.308 -13.266  -2.677  1.00  0.00     0.144 C 
HETATM   18  C   UNL     1      39.287 -14.433  -2.627  1.00  0.00     0.035 C 
HETATM   19  C   UNL     1      39.455 -14.946  -1.198  1.00  0.00     0.030 C 
HETATM   20  C   UNL     1      39.778 -13.843  -0.194  1.00  0.00     0.235 C 
BRANCH  17  21
HETATM   21  O   UNL     1      37.051 -13.692  -2.137  1.00  0.00    -0.394 OA
HETATM   22  H   UNL     1      36.346 -13.303  -2.697  1.00  0.00     0.210 HD
ENDBRANCH  17  21
ENDBRANCH  11  14
ENDBRANCH   6   7
ENDBRANCH   4   6
BRANCH   3  23
HETATM   23  C   UNL     1      43.203 -12.090   5.878  1.00  0.00    -0.005 A 
HETATM   24  C   UNL     1      42.179 -11.156   6.086  1.00  0.00     0.017 A 
HETATM   25  C   UNL     1      42.236 -10.284   7.176  1.00  0.00     0.043 A 
HETATM   26  C   UNL     1      43.319 -10.341   8.046  1.00  0.00     0.116 A 
HETATM   27  F   UNL     1      43.370  -9.510   9.093  1.00  0.00    -0.206 F 
HETATM   28  C   UNL     1      44.355 -11.245   7.840  1.00  0.00     0.043 A 
HETATM   29  C   UNL     1      44.303 -12.118   6.751  1.00  0.00     0.017 A 
ENDBRANCH   3  23
BRANCH   1  30
HETATM   30  C   UNL     1      43.281 -16.302   3.541  1.00  0.00     0.058 A 
HETATM   31  C   UNL     1      43.880 -17.069   4.549  1.00  0.00     0.032 A 
HETATM   32  C   UNL     1      44.038 -18.449   4.387  1.00  0.00     0.009 A 
HETATM   33  C   UNL     1      43.610 -19.080   3.216  1.00  0.00    -0.062 A 
HETATM   34  C   UNL     1      43.761 -20.564   3.040  1.00  0.00     0.048 C 
HETATM   35  C   UNL     1      43.002 -18.316   2.214  1.00  0.00     0.009 A 
HETATM   36  C   UNL     1      42.836 -16.935   2.372  1.00  0.00     0.032 A 
ENDBRANCH   1  30
TORSDOF 6
ENDMDL
MODEL 5
REMARK VINA RESULT:      -9.6      3.592      8.025
REMARK  6 active torsions:
REMARK  status: ('A' for Active; 'I' for Inactive)
REMARK    1  A    between atoms: C_5  and  N_6 
REMARK    2  A    between atoms: C_8  and  C_9 
REMARK    3  A    between atoms: C_16  and  C_17 
REMARK    4  A    between atoms: C_17  and  N_18 
REMARK    5  A    between atoms: C_22  and  N_23 
REMARK    6  A    between atoms: C_26  and  O_27 
ROOT
HETATM    1  N   UNL     1      42.832 -15.125   4.751  1.00  0.00    -0.244 N 
HETATM    2  N   UNL     1      43.811 -14.384   5.315  1.00  0.00    -0.167 NA
HETATM    3  C   UNL     1      43.227 -13.287   5.798  1.00  0.00     0.097 A 
HETATM    4  C   UNL     1      41.857 -13.229   5.419  1.00  0.00     0.016 A 
HETATM    5  C   UNL     1      41.628 -14.448   4.805  1.00  0.00     0.130 A 
ENDROOT
BRANCH   4   6
HETATM    6  C   UNL     1      40.880 -12.138   5.642  1.00  0.00     0.277 C 
BRANCH   6   7
HETATM    7  N   UNL     1      40.612 -11.249   4.406  1.00  0.00    -0.067 N 
HETATM    8  H   UNL     1      40.690 -10.286   4.776  1.00  0.00     0.280 HD
HETATM    9  C   UNL     1      41.663 -11.418   3.345  1.00  0.00     0.237 C 
HETATM   10  C   UNL     1      41.344 -10.584   2.123  1.00  0.00     0.061 C 
HETATM   11  C   UNL     1      39.959 -10.836   1.534  1.00  0.00     0.191 C 
HETATM   12  C   UNL     1      38.887 -10.746   2.623  1.00  0.00     0.061 C 
HETATM   13  C   UNL     1      39.199 -11.468   3.932  1.00  0.00     0.237 C 
BRANCH  11  14
HETATM   14  N   UNL     1      39.857 -12.075   0.644  1.00  0.00    -0.064 N 
HETATM   15  H   UNL     1      38.857 -12.371   0.710  1.00  0.00     0.280 HD
HETATM   16  C   UNL     1      39.925 -11.759  -0.868  1.00  0.00     0.266 C 
HETATM   17  C   UNL     1      39.277 -12.927  -1.615  1.00  0.00     0.144 C 
HETATM   18  C   UNL     1      40.070 -14.205  -1.363  1.00  0.00     0.035 C 
HETATM   19  C   UNL     1      40.149 -14.515   0.130  1.00  0.00     0.030 C 
HETATM   20  C   UNL     1      40.627 -13.332   0.968  1.00  0.00     0.235 C 
BRANCH  17  21
HETATM   21  O   UNL     1      37.967 -13.077  -1.055  1.00  0.00    -0.394 OA
HETATM   22  H   UNL     1      37.728 -12.222  -0.638  1.00  0.00     0.210 HD
ENDBRANCH  17  21
ENDBRANCH  11  14
ENDBRANCH   6   7
ENDBRANCH   4   6
BRANCH   3  23
HETATM   23  C   UNL     1      43.996 -12.314   6.566  1.00  0.00    -0.005 A 
HETATM   24  C   UNL     1      45.174 -11.771   6.036  1.00  0.00     0.017 A 
HETATM   25  C   UNL     1      45.905 -10.832   6.768  1.00  0.00     0.043 A 
HETATM   26  C   UNL     1      45.462 -10.448   8.028  1.00  0.00     0.116 A 
HETATM   27  F   UNL     1      46.159  -9.544   8.726  1.00  0.00    -0.206 F 
HETATM   28  C   UNL     1      44.308 -10.994   8.579  1.00  0.00     0.043 A 
HETATM   29  C   UNL     1      43.576 -11.934   7.851  1.00  0.00     0.017 A 
ENDBRANCH   3  23
BRANCH   1  30
HETATM   30  C   UNL     1      43.100 -16.384   4.149  1.00  0.00     0.058 A 
HETATM   31  C   UNL     1      42.582 -16.662   2.876  1.00  0.00     0.032 A 
HETATM   32  C   UNL     1      42.822 -17.899   2.271  1.00  0.00     0.009 A 
HETATM   33  C   UNL     1      43.573 -18.877   2.929  1.00  0.00    -0.062 A 
HETATM   34  C   UNL     1      43.850 -20.203   2.280  1.00  0.00     0.048 C 
HETATM   35  C   UNL     1      44.098 -18.596   4.195  1.00  0.00     0.009 A 
HETATM   36  C   UNL     1      43.866 -17.357   4.804  1.00  0.00     0.032 A 
ENDBRANCH   1  30
TORSDOF 6
ENDMDL
MODEL 6
REMARK VINA RESULT:      -9.3      3.036      6.412
REMARK  6 active torsions:
REMARK  status: ('A' for Active; 'I' for Inactive)
REMARK    1  A    between atoms: C_5  and  N_6 
REMARK    2  A    between atoms: C_8  and  C_9 
REMARK    3  A    between atoms: C_16  and  C_17 
REMARK    4  A    between atoms: C_17  and  N_18 
REMARK    5  A    between atoms: C_22  and  N_23 
REMARK    6  A    between atoms: C_26  and  O_27 
ROOT
HETATM    1  N   UNL     1      41.458 -15.497   2.655  1.00  0.00    -0.244 N 
HETATM    2  N   UNL     1      41.500 -15.173   1.345  1.00  0.00    -0.167 NA
HETATM    3  C   UNL     1      40.687 -14.128   1.186  1.00  0.00     0.097 A 
HETATM    4  C   UNL     1      39.979 -13.845   2.386  1.00  0.00     0.016 A 
HETATM    5  C   UNL     1      40.543 -14.700   3.317  1.00  0.00     0.130 A 
ENDROOT
BRANCH   4   6
HETATM    6  C   UNL     1      38.903 -12.853   2.615  1.00  0.00     0.277 C 
BRANCH   6   7
HETATM    7  N   UNL     1      39.300 -11.667   3.524  1.00  0.00    -0.067 N 
HETATM    8  H   UNL     1      38.582 -10.950   3.318  1.00  0.00     0.280 HD
HETATM    9  C   UNL     1      39.198 -12.009   4.984  1.00  0.00     0.237 C 
HETATM   10  C   UNL     1      39.651 -10.852   5.849  1.00  0.00     0.061 C 
HETATM   11  C   UNL     1      41.050 -10.337   5.528  1.00  0.00     0.191 C 
HETATM   12  C   UNL     1      41.191 -10.061   4.028  1.00  0.00     0.061 C 
HETATM   13  C   UNL     1      40.643 -11.138   3.094  1.00  0.00     0.237 C 
BRANCH  11  14
HETATM   14  N   UNL     1      42.190 -11.160   6.130  1.00  0.00    -0.064 N 
HETATM   15  H   UNL     1      41.729 -11.788   6.825  1.00  0.00     0.280 HD
HETATM   16  C   UNL     1      42.759 -12.227   5.166  1.00  0.00     0.266 C 
HETATM   17  C   UNL     1      43.451 -13.296   6.015  1.00  0.00     0.144 C 
HETATM   18  C   UNL     1      44.617 -12.676   6.777  1.00  0.00     0.035 C 
HETATM   19  C   UNL     1      44.144 -11.526   7.663  1.00  0.00     0.030 C 
HETATM   20  C   UNL     1      43.295 -10.500   6.918  1.00  0.00     0.235 C 
BRANCH  17  21
HETATM   21  O   UNL     1      42.471 -13.748   6.957  1.00  0.00    -0.394 OA
HETATM   22  H   UNL     1      42.017 -12.953   7.311  1.00  0.00     0.210 HD
ENDBRANCH  17  21
ENDBRANCH  11  14
ENDBRANCH   6   7
ENDBRANCH   4   6
BRANCH   3  23
HETATM   23  C   UNL     1      40.578 -13.461  -0.107  1.00  0.00    -0.005 A 
HETATM   24  C   UNL     1      41.098 -12.171  -0.281  1.00  0.00     0.017 A 
HETATM   25  C   UNL     1      41.002 -11.537  -1.522  1.00  0.00     0.043 A 
HETATM   26  C   UNL     1      40.379 -12.189  -2.580  1.00  0.00     0.116 A 
HETATM   27  F   UNL     1      40.293 -11.583  -3.770  1.00  0.00    -0.206 F 
HETATM   28  C   UNL     1      39.837 -13.459  -2.418  1.00  0.00     0.043 A 
HETATM   29  C   UNL     1      39.929 -14.095  -1.179  1.00  0.00     0.017 A 
ENDBRANCH   3  23
BRANCH   1  30
HETATM   30  C   UNL     1      42.229 -16.566   3.186  1.00  0.00     0.058 A 
HETATM   31  C   UNL     1      42.480 -16.617   4.564  1.00  0.00     0.032 A 
HETATM   32  C   UNL     1      43.247 -17.652   5.105  1.00  0.00     0.009 A 
HETATM   33  C   UNL     1      43.782 -18.645   4.279  1.00  0.00    -0.062 A 
HETATM   34  C   UNL     1      44.595 -19.771   4.853  1.00  0.00     0.048 C 
HETATM   35  C   UNL     1      43.524 -18.600   2.905  1.00  0.00     0.009 A 
HETATM   36  C   UNL     1      42.752 -17.569   2.358  1.00  0.00     0.032 A 
ENDBRANCH   1  30
TORSDOF 6
ENDMDL
MODEL 7
REMARK VINA RESULT:      -9.2      2.690      6.121
REMARK  6 active torsions:
REMARK  status: ('A' for Active; 'I' for Inactive)
REMARK    1  A    between atoms: C_5  and  N_6 
REMARK    2  A    between atoms: C_8  and  C_9 
REMARK    3  A    between atoms: C_16  and  C_17 
REMARK    4  A    between atoms: C_17  and  N_18 
REMARK    5  A    between atoms: C_22  and  N_23 
REMARK    6  A    between atoms: C_26  and  O_27 
ROOT
HETATM    1  N   UNL     1      42.465 -15.493   2.618  1.00  0.00    -0.244 N 
HETATM    2  N   UNL     1      41.424 -15.439   1.759  1.00  0.00    -0.167 NA
HETATM    3  C   UNL     1      41.241 -14.152   1.464  1.00  0.00     0.097 A 
HETATM    4  C   UNL     1      42.082 -13.323   2.255  1.00  0.00     0.016 A 
HETATM    5  C   UNL     1      42.891 -14.218   2.935  1.00  0.00     0.130 A 
ENDROOT
BRANCH   4   6
HETATM    6  C   UNL     1      42.118 -11.843   2.332  1.00  0.00     0.277 C 
BRANCH   6   7
HETATM    7  N   UNL     1      41.305 -11.237   3.499  1.00  0.00    -0.067 N 
HETATM    8  H   UNL     1      40.372 -11.069   3.085  1.00  0.00     0.280 HD
HETATM    9  C   UNL     1      41.132 -12.206   4.635  1.00  0.00     0.237 C 
HETATM   10  C   UNL     1      40.387 -11.568   5.788  1.00  0.00     0.061 C 
HETATM   11  C   UNL     1      41.007 -10.270   6.296  1.00  0.00     0.191 C 
HETATM   12  C   UNL     1      41.262  -9.306   5.134  1.00  0.00     0.061 C 
HETATM   13  C   UNL     1      41.905  -9.912   3.889  1.00  0.00     0.237 C 
BRANCH  11  14
HETATM   14  N   UNL     1      42.196 -10.453   7.240  1.00  0.00    -0.064 N 
HETATM   15  H   UNL     1      42.008 -11.353   7.736  1.00  0.00     0.280 HD
HETATM   16  C   UNL     1      43.508 -10.835   6.515  1.00  0.00     0.266 C 
HETATM   17  C   UNL     1      44.423 -11.510   7.540  1.00  0.00     0.144 C 
HETATM   18  C   UNL     1      44.767 -10.525   8.653  1.00  0.00     0.035 C 
HETATM   19  C   UNL     1      43.503 -10.008   9.337  1.00  0.00     0.030 C 
HETATM   20  C   UNL     1      42.462  -9.473   8.357  1.00  0.00     0.235 C 
BRANCH  17  21
HETATM   21  O   UNL     1      43.665 -12.591   8.097  1.00  0.00    -0.394 OA
HETATM   22  H   UNL     1      43.658 -12.471   9.070  1.00  0.00     0.210 HD
ENDBRANCH  17  21
ENDBRANCH  11  14
ENDBRANCH   6   7
ENDBRANCH   4   6
BRANCH   3  23
HETATM   23  C   UNL     1      40.248 -13.751   0.473  1.00  0.00    -0.005 A 
HETATM   24  C   UNL     1      40.023 -14.544  -0.660  1.00  0.00     0.017 A 
HETATM   25  C   UNL     1      39.066 -14.165  -1.604  1.00  0.00     0.043 A 
HETATM   26  C   UNL     1      38.345 -12.991  -1.417  1.00  0.00     0.116 A 
HETATM   27  F   UNL     1      37.423 -12.631  -2.317  1.00  0.00    -0.206 F 
HETATM   28  C   UNL     1      38.572 -12.180  -0.310  1.00  0.00     0.043 A 
HETATM   29  C   UNL     1      39.529 -12.555   0.634  1.00  0.00     0.017 A 
ENDBRANCH   3  23
BRANCH   1  30
HETATM   30  C   UNL     1      42.949 -16.728   3.129  1.00  0.00     0.058 A 
HETATM   31  C   UNL     1      43.315 -16.818   4.479  1.00  0.00     0.032 A 
HETATM   32  C   UNL     1      43.806 -18.019   4.999  1.00  0.00     0.009 A 
HETATM   33  C   UNL     1      43.948 -19.142   4.180  1.00  0.00    -0.062 A 
HETATM   34  C   UNL     1      44.459 -20.441   4.733  1.00  0.00     0.048 C 
HETATM   35  C   UNL     1      43.573 -19.055   2.834  1.00  0.00     0.009 A 
HETATM   36  C   UNL     1      43.076 -17.857   2.309  1.00  0.00     0.032 A 
ENDBRANCH   1  30
TORSDOF 6
ENDMDL
MODEL 8
REMARK VINA RESULT:      -9.1      2.805      8.552
REMARK  6 active torsions:
REMARK  status: ('A' for Active; 'I' for Inactive)
REMARK    1  A    between atoms: C_5  and  N_6 
REMARK    2  A    between atoms: C_8  and  C_9 
REMARK    3  A    between atoms: C_16  and  C_17 
REMARK    4  A    between atoms: C_17  and  N_18 
REMARK    5  A    between atoms: C_22  and  N_23 
REMARK    6  A    between atoms: C_26  and  O_27 
ROOT
HETATM    1  N   UNL     1      43.025 -12.686   5.408  1.00  0.00    -0.244 N 
HETATM    2  N   UNL     1      43.457 -13.960   5.282  1.00  0.00    -0.167 NA
HETATM    3  C   UNL     1      42.714 -14.521   4.328  1.00  0.00     0.097 A 
HETATM    4  C   UNL     1      41.671 -13.648   3.914  1.00  0.00     0.016 A 
HETATM    5  C   UNL     1      41.940 -12.465   4.581  1.00  0.00     0.130 A 
ENDROOT
BRANCH   4   6
HETATM    6  C   UNL     1      40.560 -13.914   2.970  1.00  0.00     0.277 C 
BRANCH   6   7
HETATM    7  N   UNL     1      40.923 -13.734   1.478  1.00  0.00    -0.067 N 
HETATM    8  H   UNL     1      41.874 -14.135   1.408  1.00  0.00     0.280 HD
HETATM    9  C   UNL     1      40.024 -14.530   0.574  1.00  0.00     0.237 C 
HETATM   10  C   UNL     1      40.361 -14.287  -0.882  1.00  0.00     0.061 C 
HETATM   11  C   UNL     1      40.351 -12.818  -1.294  1.00  0.00     0.191 C 
HETATM   12  C   UNL     1      41.200 -11.984  -0.330  1.00  0.00     0.061 C 
HETATM   13  C   UNL     1      40.996 -12.264   1.157  1.00  0.00     0.237 C 
BRANCH  11  14
HETATM   14  N   UNL     1      38.963 -12.241  -1.578  1.00  0.00    -0.064 N 
HETATM   15  H   UNL     1      38.391 -12.497  -0.742  1.00  0.00     0.280 HD
HETATM   16  C   UNL     1      38.900 -10.700  -1.463  1.00  0.00     0.266 C 
HETATM   17  C   UNL     1      37.438 -10.315  -1.217  1.00  0.00     0.144 C 
HETATM   18  C   UNL     1      36.585 -10.737  -2.408  1.00  0.00     0.035 C 
HETATM   19  C   UNL     1      36.697 -12.239  -2.658  1.00  0.00     0.030 C 
HETATM   20  C   UNL     1      38.140 -12.731  -2.744  1.00  0.00     0.235 C 
BRANCH  17  21
HETATM   21  O   UNL     1      37.023 -11.056  -0.064  1.00  0.00    -0.394 OA
HETATM   22  H   UNL     1      36.550 -10.434   0.529  1.00  0.00     0.210 HD
ENDBRANCH  17  21
ENDBRANCH  11  14
ENDBRANCH   6   7
ENDBRANCH   4   6
BRANCH   3  23
HETATM   23  C   UNL     1      42.993 -15.879   3.872  1.00  0.00    -0.005 A 
HETATM   24  C   UNL     1      43.327 -16.878   4.796  1.00  0.00     0.017 A 
HETATM   25  C   UNL     1      43.586 -18.179   4.360  1.00  0.00     0.043 A 
HETATM   26  C   UNL     1      43.519 -18.474   3.002  1.00  0.00     0.116 A 
HETATM   27  F   UNL     1      43.761 -19.723   2.586  1.00  0.00    -0.206 F 
HETATM   28  C   UNL     1      43.213 -17.490   2.070  1.00  0.00     0.043 A 
HETATM   29  C   UNL     1      42.956 -16.187   2.502  1.00  0.00     0.017 A 
ENDBRANCH   3  23
BRANCH   1  30
HETATM   30  C   UNL     1      43.616 -11.784   6.333  1.00  0.00     0.058 A 
HETATM   31  C   UNL     1      44.967 -11.934   6.673  1.00  0.00     0.032 A 
HETATM   32  C   UNL     1      45.565 -11.065   7.591  1.00  0.00     0.009 A 
HETATM   33  C   UNL     1      44.822 -10.043   8.189  1.00  0.00    -0.062 A 
HETATM   34  C   UNL     1      45.459  -9.095   9.164  1.00  0.00     0.048 C 
HETATM   35  C   UNL     1      43.476  -9.888   7.842  1.00  0.00     0.009 A 
HETATM   36  C   UNL     1      42.872 -10.751   6.920  1.00  0.00     0.032 A 
ENDBRANCH   1  30
TORSDOF 6
ENDMDL
MODEL 9
REMARK VINA RESULT:      -9.0      3.677      6.031
REMARK  6 active torsions:
REMARK  status: ('A' for Active; 'I' for Inactive)
REMARK    1  A    between atoms: C_5  and  N_6 
REMARK    2  A    between atoms: C_8  and  C_9 
REMARK    3  A    between atoms: C_16  and  C_17 
REMARK    4  A    between atoms: C_17  and  N_18 
REMARK    5  A    between atoms: C_22  and  N_23 
REMARK    6  A    between atoms: C_26  and  O_27 
ROOT
HETATM    1  N   UNL     1      43.145 -13.894   4.327  1.00  0.00    -0.244 N 
HETATM    2  N   UNL     1      43.925 -13.519   5.364  1.00  0.00    -0.167 NA
HETATM    3  C   UNL     1      43.649 -12.236   5.603  1.00  0.00     0.097 A 
HETATM    4  C   UNL     1      42.777 -11.709   4.611  1.00  0.00     0.016 A 
HETATM    5  C   UNL     1      42.430 -12.812   3.850  1.00  0.00     0.130 A 
ENDROOT
BRANCH   4   6
HETATM    6  C   UNL     1      42.315 -10.313   4.431  1.00  0.00     0.277 C 
BRANCH   6   7
HETATM    7  N   UNL     1      40.887 -10.032   4.952  1.00  0.00    -0.067 N 
HETATM    8  H   UNL     1      40.289 -10.193   4.123  1.00  0.00     0.280 HD
HETATM    9  C   UNL     1      40.467 -11.009   6.014  1.00  0.00     0.237 C 
HETATM   10  C   UNL     1      39.091 -10.675   6.550  1.00  0.00     0.061 C 
HETATM   11  C   UNL     1      38.947  -9.245   7.065  1.00  0.00     0.191 C 
HETATM   12  C   UNL     1      39.448  -8.245   6.019  1.00  0.00     0.061 C 
HETATM   13  C   UNL     1      40.778  -8.584   5.350  1.00  0.00     0.237 C 
BRANCH  11  14
HETATM   14  N   UNL     1      39.490  -9.014   8.475  1.00  0.00    -0.064 N 
HETATM   15  H   UNL     1      40.518  -9.181   8.397  1.00  0.00     0.280 HD
HETATM   16  C   UNL     1      39.508  -7.525   8.894  1.00  0.00     0.266 C 
HETATM   17  C   UNL     1      40.535  -7.373  10.019  1.00  0.00     0.144 C 
HETATM   18  C   UNL     1      40.106  -8.200  11.226  1.00  0.00     0.035 C 
HETATM   19  C   UNL     1      39.947  -9.672  10.855  1.00  0.00     0.030 C 
HETATM   20  C   UNL     1      39.068  -9.894   9.627  1.00  0.00     0.235 C 
BRANCH  17  21
HETATM   21  O   UNL     1      41.763  -7.906   9.507  1.00  0.00    -0.394 OA
HETATM   22  H   UNL     1      42.354  -8.066  10.274  1.00  0.00     0.210 HD
ENDBRANCH  17  21
ENDBRANCH  11  14
ENDBRANCH   6   7
ENDBRANCH   4   6
BRANCH   3  23
HETATM   23  C   UNL     1      44.254 -11.545   6.736  1.00  0.00    -0.005 A 
HETATM   24  C   UNL     1      45.618 -11.224   6.720  1.00  0.00     0.017 A 
HETATM   25  C   UNL     1      46.194 -10.555   7.802  1.00  0.00     0.043 A 
HETATM   26  C   UNL     1      45.409 -10.218   8.898  1.00  0.00     0.116 A 
HETATM   27  F   UNL     1      45.960  -9.571   9.932  1.00  0.00    -0.206 F 
HETATM   28  C   UNL     1      44.059 -10.549   8.941  1.00  0.00     0.043 A 
HETATM   29  C   UNL     1      43.480 -11.220   7.862  1.00  0.00     0.017 A 
ENDBRANCH   3  23
BRANCH   1  30
HETATM   30  C   UNL     1      43.168 -15.220   3.816  1.00  0.00     0.058 A 
HETATM   31  C   UNL     1      43.372 -16.292   4.694  1.00  0.00     0.032 A 
HETATM   32  C   UNL     1      43.412 -17.604   4.211  1.00  0.00     0.009 A 
HETATM   33  C   UNL     1      43.257 -17.862   2.846  1.00  0.00    -0.062 A 
HETATM   34  C   UNL     1      43.282 -19.268   2.319  1.00  0.00     0.048 C 
HETATM   35  C   UNL     1      43.043 -16.791   1.971  1.00  0.00     0.009 A 
HETATM   36  C   UNL     1      42.998 -15.477   2.449  1.00  0.00     0.032 A 
ENDBRANCH   1  30
TORSDOF 6
ENDMDL
MODEL 10
REMARK VINA RESULT:      -8.9      4.131      8.876
REMARK  6 active torsions:
REMARK  status: ('A' for Active; 'I' for Inactive)
REMARK    1  A    between atoms: C_5  and  N_6 
REMARK    2  A    between atoms: C_8  and  C_9 
REMARK    3  A    between atoms: C_16  and  C_17 
REMARK    4  A    between atoms: C_17  and  N_18 
REMARK    5  A    between atoms: C_22  and  N_23 
REMARK    6  A    between atoms: C_26  and  O_27 
ROOT
HETATM    1  N   UNL     1      42.437 -14.022   3.536  1.00  0.00    -0.244 N 
HETATM    2  N   UNL     1      42.028 -13.537   4.728  1.00  0.00    -0.167 NA
HETATM    3  C   UNL     1      41.726 -12.253   4.534  1.00  0.00     0.097 A 
HETATM    4  C   UNL     1      42.080 -11.840   3.220  1.00  0.00     0.016 A 
HETATM    5  C   UNL     1      42.474 -13.010   2.595  1.00  0.00     0.130 A 
ENDROOT
BRANCH   4   6
HETATM    6  C   UNL     1      42.026 -10.481   2.630  1.00  0.00     0.277 C 
BRANCH   6   7
HETATM    7  N   UNL     1      40.759 -10.192   1.792  1.00  0.00    -0.067 N 
HETATM    8  H   UNL     1      40.496  -9.231   2.071  1.00  0.00     0.280 HD
HETATM    9  C   UNL     1      41.044 -10.177   0.316  1.00  0.00     0.237 C 
HETATM   10  C   UNL     1      39.778  -9.952  -0.482  1.00  0.00     0.061 C 
HETATM   11  C   UNL     1      38.657 -10.941  -0.175  1.00  0.00     0.191 C 
HETATM   12  C   UNL     1      38.413 -11.024   1.335  1.00  0.00     0.061 C 
HETATM   13  C   UNL     1      39.659 -11.132   2.210  1.00  0.00     0.237 C 
BRANCH  11  14
HETATM   14  N   UNL     1      38.789 -12.296  -0.871  1.00  0.00    -0.064 N 
HETATM   15  H   UNL     1      37.849 -12.740  -0.774  1.00  0.00     0.280 HD
HETATM   16  C   UNL     1      38.860 -12.194  -2.413  1.00  0.00     0.266 C 
HETATM   17  C   UNL     1      38.437 -13.550  -2.986  1.00  0.00     0.144 C 
HETATM   18  C   UNL     1      39.416 -14.629  -2.537  1.00  0.00     0.035 C 
HETATM   19  C   UNL     1      39.490 -14.702  -1.014  1.00  0.00     0.030 C 
HETATM   20  C   UNL     1      39.740 -13.348  -0.355  1.00  0.00     0.235 C 
BRANCH  17  21
HETATM   21  O   UNL     1      37.149 -13.831  -2.425  1.00  0.00    -0.394 OA
HETATM   22  H   UNL     1      37.198 -13.630  -1.466  1.00  0.00     0.210 HD
ENDBRANCH  17  21
ENDBRANCH  11  14
ENDBRANCH   6   7
ENDBRANCH   4   6
BRANCH   3  23
HETATM   23  C   UNL     1      41.152 -11.454   5.611  1.00  0.00    -0.005 A 
HETATM   24  C   UNL     1      39.795 -11.583   5.937  1.00  0.00     0.017 A 
HETATM   25  C   UNL     1      39.247 -10.824   6.974  1.00  0.00     0.043 A 
HETATM   26  C   UNL     1      40.054  -9.933   7.673  1.00  0.00     0.116 A 
HETATM   27  F   UNL     1      39.531  -9.211   8.670  1.00  0.00    -0.206 F 
HETATM   28  C   UNL     1      41.396  -9.775   7.346  1.00  0.00     0.043 A 
HETATM   29  C   UNL     1      41.947 -10.530   6.309  1.00  0.00     0.017 A 
ENDBRANCH   3  23
BRANCH   1  30
HETATM   30  C   UNL     1      42.822 -15.380   3.373  1.00  0.00     0.058 A 
HETATM   31  C   UNL     1      42.845 -15.939   2.088  1.00  0.00     0.032 A 
HETATM   32  C   UNL     1      43.207 -17.278   1.907  1.00  0.00     0.009 A 
HETATM   33  C   UNL     1      43.543 -18.076   3.003  1.00  0.00    -0.062 A 
HETATM   34  C   UNL     1      43.949 -19.511   2.817  1.00  0.00     0.048 C 
HETATM   35  C   UNL     1      43.530 -17.515   4.284  1.00  0.00     0.009 A 
HETATM   36  C   UNL     1      43.172 -16.175   4.472  1.00  0.00     0.032 A 
ENDBRANCH   1  30
TORSDOF 6
ENDMDL
