MODEL 1
REMARK VINA RESULT:      -8.8      0.000      0.000
REMARK  10 active torsions:
REMARK  status: ('A' for Active; 'I' for Inactive)
REMARK    1  A    between atoms: C_3  and  N_4 
REMARK       I    between atoms: N_4  and  C_5 
REMARK    2  A    between atoms: C_5  and  C_6 
REMARK    3  A    between atoms: C_13  and  C_14 
REMARK    4  A    between atoms: C_14  and  O_15 
REMARK    5  A    between atoms: O_15  and  C_16 
REMARK    6  A    between atoms: C_16  and  C_17 
REMARK       I    between atoms: C_17  and  N_18 
REMARK    7  A    between atoms: N_18  and  C_19 
REMARK    8  A    between atoms: C_19  and  C_20 
REMARK    9  A    between atoms: C_20  and  C_21 
REMARK   10  A    between atoms: C_24  and  O_25 
ROOT
HETATM    1  C   UNL     1      42.531 -12.115   5.992  1.00  0.00     0.293 C 
HETATM    2  O   UNL     1      41.444 -11.638   6.288  1.00  0.00    -0.259 OA
ENDROOT
BRANCH   1   3
HETATM    3  C   UNL     1      42.741 -13.054   4.865  1.00  0.00     0.041 A 
HETATM    4  C   UNL     1      42.866 -14.434   5.071  1.00  0.00     0.047 A 
HETATM    5  C   UNL     1      43.081 -15.307   3.996  1.00  0.00     0.042 A 
HETATM    6  C   UNL     1      43.168 -14.776   2.689  1.00  0.00    -0.035 A 
HETATM    7  C   UNL     1      43.432 -15.620   1.469  1.00  0.00     0.050 C 
HETATM    8  C   UNL     1      43.040 -13.388   2.497  1.00  0.00     0.010 A 
HETATM    9  C   UNL     1      42.814 -12.533   3.573  1.00  0.00     0.018 A 
BRANCH   5  10
HETATM   10  N   UNL     1      43.231 -16.698   4.188  1.00  0.00    -0.321 N 
HETATM   11  C   UNL     1      44.084 -17.358   5.058  1.00  0.00     0.279 C 
HETATM   12  O   UNL     1      44.839 -16.817   5.859  1.00  0.00    -0.265 OA
HETATM   13  H   UNL     1      42.617 -17.317   3.671  1.00  0.00     0.169 HD
BRANCH  11  14
HETATM   14  C   UNL     1      43.979 -18.803   4.963  1.00  0.00     0.142 A 
HETATM   15  O   UNL     1      44.130 -19.414   3.744  1.00  0.00    -0.317 OA
HETATM   16  C   UNL     1      43.996 -20.750   3.950  1.00  0.00     0.143 A 
HETATM   17  C   UNL     1      43.748 -21.014   5.276  1.00  0.00     0.027 A 
HETATM   18  C   UNL     1      43.737 -19.760   5.929  1.00  0.00     0.045 A 
ENDBRANCH  11  14
ENDBRANCH   5  10
ENDBRANCH   1   3
BRANCH   1  19
HETATM   19  O   UNL     1      43.708 -11.835   6.597  1.00  0.00    -0.308 OA
BRANCH  19  20
HETATM   20  C   UNL     1      43.781 -10.574   7.263  1.00  0.00     0.281 C 
BRANCH  20  21
HETATM   21  C   UNL     1      44.124 -10.672   8.751  1.00  0.00     0.241 C 
HETATM   22  N   UNL     1      43.121 -10.246   9.596  1.00  0.00    -0.359 N 
HETATM   23  H   UNL     1      42.196 -10.104   9.191  1.00  0.00     0.162 HD
HETATM   24  O   UNL     1      45.216 -11.069   9.149  1.00  0.00    -0.271 OA
BRANCH  22  25
HETATM   25  C   UNL     1      43.255 -10.364  11.034  1.00  0.00     0.127 C 
BRANCH  25  26
HETATM   26  C   UNL     1      43.882  -9.115  11.651  1.00  0.00     0.058 C 
BRANCH  26  27
HETATM   27  C   UNL     1      43.107  -8.625  12.848  1.00  0.00    -0.057 A 
HETATM   28  C   UNL     1      42.058  -9.389  13.370  1.00  0.00     0.010 A 
HETATM   29  C   UNL     1      41.332  -8.929  14.470  1.00  0.00     0.037 A 
HETATM   30  C   UNL     1      41.634  -7.701  15.063  1.00  0.00     0.068 A 
HETATM   31  C   UNL     1      42.672  -6.931  14.539  1.00  0.00     0.037 A 
HETATM   32  C   UNL     1      43.403  -7.390  13.436  1.00  0.00     0.010 A 
BRANCH  30  33
HETATM   33  O   UNL     1      40.848  -7.375  16.133  1.00  0.00    -0.356 OA
HETATM   34  C   UNL     1      41.403  -7.585  17.425  1.00  0.00     0.210 C 
ENDBRANCH  30  33
ENDBRANCH  26  27
ENDBRANCH  25  26
ENDBRANCH  22  25
ENDBRANCH  20  21
ENDBRANCH  19  20
ENDBRANCH   1  19
TORSDOF 10
ENDMDL
MODEL 2
REMARK VINA RESULT:      -8.6      1.679      2.208
REMARK  10 active torsions:
REMARK  status: ('A' for Active; 'I' for Inactive)
REMARK    1  A    between atoms: C_3  and  N_4 
REMARK       I    between atoms: N_4  and  C_5 
REMARK    2  A    between atoms: C_5  and  C_6 
REMARK    3  A    between atoms: C_13  and  C_14 
REMARK    4  A    between atoms: C_14  and  O_15 
REMARK    5  A    between atoms: O_15  and  C_16 
REMARK    6  A    between atoms: C_16  and  C_17 
REMARK       I    between atoms: C_17  and  N_18 
REMARK    7  A    between atoms: N_18  and  C_19 
REMARK    8  A    between atoms: C_19  and  C_20 
REMARK    9  A    between atoms: C_20  and  C_21 
REMARK   10  A    between atoms: C_24  and  O_25 
ROOT
HETATM    1  C   UNL     1      43.954 -12.025   5.513  1.00  0.00     0.293 C 
HETATM    2  O   UNL     1      44.025 -11.203   4.609  1.00  0.00    -0.259 OA
ENDROOT
BRANCH   1   3
HETATM    3  C   UNL     1      42.992 -13.152   5.530  1.00  0.00     0.041 A 
HETATM    4  C   UNL     1      43.285 -14.378   4.921  1.00  0.00     0.047 A 
HETATM    5  C   UNL     1      42.358 -15.429   4.929  1.00  0.00     0.042 A 
HETATM    6  C   UNL     1      41.112 -15.236   5.569  1.00  0.00    -0.035 A 
HETATM    7  C   UNL     1      40.031 -16.285   5.608  1.00  0.00     0.050 C 
HETATM    8  C   UNL     1      40.831 -13.999   6.178  1.00  0.00     0.010 A 
HETATM    9  C   UNL     1      41.768 -12.968   6.172  1.00  0.00     0.018 A 
BRANCH   5  10
HETATM   10  N   UNL     1      42.628 -16.664   4.301  1.00  0.00    -0.321 N 
HETATM   11  C   UNL     1      43.722 -17.497   4.479  1.00  0.00     0.279 C 
HETATM   12  O   UNL     1      44.639 -17.305   5.271  1.00  0.00    -0.265 OA
HETATM   13  H   UNL     1      41.930 -17.038   3.670  1.00  0.00     0.169 HD
BRANCH  11  14
HETATM   14  C   UNL     1      43.672 -18.680   3.639  1.00  0.00     0.142 A 
HETATM   15  O   UNL     1      44.036 -19.896   4.159  1.00  0.00    -0.317 OA
HETATM   16  C   UNL     1      43.882 -20.814   3.169  1.00  0.00     0.143 A 
HETATM   17  C   UNL     1      43.437 -20.213   2.016  1.00  0.00     0.027 A 
HETATM   18  C   UNL     1      43.301 -18.838   2.317  1.00  0.00     0.045 A 
ENDBRANCH  11  14
ENDBRANCH   5  10
ENDBRANCH   1   3
BRANCH   1  19
HETATM   19  O   UNL     1      44.755 -12.072   6.603  1.00  0.00    -0.308 OA
BRANCH  19  20
HETATM   20  C   UNL     1      45.795 -11.095   6.653  1.00  0.00     0.281 C 
BRANCH  20  21
HETATM   21  C   UNL     1      45.720 -10.163   7.863  1.00  0.00     0.241 C 
HETATM   22  N   UNL     1      44.733 -10.487   8.771  1.00  0.00    -0.359 N 
HETATM   23  H   UNL     1      44.290 -11.401   8.674  1.00  0.00     0.162 HD
HETATM   24  O   UNL     1      46.461  -9.192   7.993  1.00  0.00    -0.271 OA
BRANCH  22  25
HETATM   25  C   UNL     1      44.595  -9.759  10.016  1.00  0.00     0.127 C 
BRANCH  25  26
HETATM   26  C   UNL     1      43.828 -10.565  11.063  1.00  0.00     0.058 C 
BRANCH  26  27
HETATM   27  C   UNL     1      43.150  -9.676  12.075  1.00  0.00    -0.057 A 
HETATM   28  C   UNL     1      42.023 -10.129  12.770  1.00  0.00     0.010 A 
HETATM   29  C   UNL     1      41.388  -9.301  13.697  1.00  0.00     0.037 A 
HETATM   30  C   UNL     1      41.859  -8.010  13.943  1.00  0.00     0.068 A 
HETATM   31  C   UNL     1      42.975  -7.549  13.244  1.00  0.00     0.037 A 
HETATM   32  C   UNL     1      43.615  -8.378  12.314  1.00  0.00     0.010 A 
BRANCH  30  33
HETATM   33  O   UNL     1      41.146  -7.310  14.876  1.00  0.00    -0.356 OA
HETATM   34  C   UNL     1      41.586  -5.988  15.162  1.00  0.00     0.210 C 
ENDBRANCH  30  33
ENDBRANCH  26  27
ENDBRANCH  25  26
ENDBRANCH  22  25
ENDBRANCH  20  21
ENDBRANCH  19  20
ENDBRANCH   1  19
TORSDOF 10
ENDMDL
MODEL 3
REMARK VINA RESULT:      -8.6      1.962     10.984
REMARK  10 active torsions:
REMARK  status: ('A' for Active; 'I' for Inactive)
REMARK    1  A    between atoms: C_3  and  N_4 
REMARK       I    between atoms: N_4  and  C_5 
REMARK    2  A    between atoms: C_5  and  C_6 
REMARK    3  A    between atoms: C_13  and  C_14 
REMARK    4  A    between atoms: C_14  and  O_15 
REMARK    5  A    between atoms: O_15  and  C_16 
REMARK    6  A    between atoms: C_16  and  C_17 
REMARK       I    between atoms: C_17  and  N_18 
REMARK    7  A    between atoms: N_18  and  C_19 
REMARK    8  A    between atoms: C_19  and  C_20 
REMARK    9  A    between atoms: C_20  and  C_21 
REMARK   10  A    between atoms: C_24  and  O_25 
ROOT
HETATM    1  C   UNL     1      42.725 -13.230   6.136  1.00  0.00     0.293 C 
HETATM    2  O   UNL     1      42.983 -14.424   6.073  1.00  0.00    -0.259 OA
ENDROOT
BRANCH   1   3
HETATM    3  C   UNL     1      43.609 -12.229   6.778  1.00  0.00     0.041 A 
HETATM    4  C   UNL     1      43.258 -11.601   7.981  1.00  0.00     0.047 A 
HETATM    5  C   UNL     1      44.097 -10.643   8.566  1.00  0.00     0.042 A 
HETATM    6  C   UNL     1      45.314 -10.316   7.927  1.00  0.00    -0.035 A 
HETATM    7  C   UNL     1      46.271  -9.277   8.451  1.00  0.00     0.050 C 
HETATM    8  C   UNL     1      45.654 -10.955   6.720  1.00  0.00     0.010 A 
HETATM    9  C   UNL     1      44.817 -11.914   6.155  1.00  0.00     0.018 A 
BRANCH   5  10
HETATM   10  N   UNL     1      43.748  -9.985   9.766  1.00  0.00    -0.321 N 
HETATM   11  C   UNL     1      43.704 -10.506  11.050  1.00  0.00     0.279 C 
HETATM   12  O   UNL     1      44.014 -11.650  11.362  1.00  0.00    -0.265 OA
HETATM   13  H   UNL     1      43.544  -8.993   9.721  1.00  0.00     0.169 HD
BRANCH  11  14
HETATM   14  C   UNL     1      43.275  -9.532  12.038  1.00  0.00     0.142 A 
HETATM   15  O   UNL     1      42.504  -9.938  13.098  1.00  0.00    -0.317 OA
HETATM   16  C   UNL     1      42.264  -8.837  13.858  1.00  0.00     0.143 A 
HETATM   17  C   UNL     1      42.855  -7.727  13.304  1.00  0.00     0.027 A 
HETATM   18  C   UNL     1      43.506  -8.173  12.131  1.00  0.00     0.045 A 
ENDBRANCH  11  14
ENDBRANCH   5  10
ENDBRANCH   1   3
BRANCH   1  19
HETATM   19  O   UNL     1      41.639 -12.626   5.602  1.00  0.00    -0.308 OA
BRANCH  19  20
HETATM   20  C   UNL     1      40.517 -13.473   5.351  1.00  0.00     0.281 C 
BRANCH  20  21
HETATM   21  C   UNL     1      40.382 -13.917   3.894  1.00  0.00     0.241 C 
HETATM   22  N   UNL     1      41.125 -15.033   3.567  1.00  0.00    -0.359 N 
HETATM   23  H   UNL     1      41.522 -15.573   4.336  1.00  0.00     0.162 HD
HETATM   24  O   UNL     1      39.692 -13.307   3.082  1.00  0.00    -0.271 OA
BRANCH  22  25
HETATM   25  C   UNL     1      41.031 -15.634   2.252  1.00  0.00     0.127 C 
BRANCH  25  26
HETATM   26  C   UNL     1      42.402 -16.040   1.714  1.00  0.00     0.058 C 
BRANCH  26  27
HETATM   27  C   UNL     1      43.040 -17.121   2.551  1.00  0.00    -0.057 A 
HETATM   28  C   UNL     1      43.067 -18.443   2.094  1.00  0.00     0.010 A 
HETATM   29  C   UNL     1      43.646 -19.445   2.875  1.00  0.00     0.037 A 
HETATM   30  C   UNL     1      44.200 -19.149   4.122  1.00  0.00     0.068 A 
HETATM   31  C   UNL     1      44.165 -17.834   4.586  1.00  0.00     0.037 A 
HETATM   32  C   UNL     1      43.587 -16.826   3.805  1.00  0.00     0.010 A 
BRANCH  30  33
HETATM   33  O   UNL     1      44.736 -20.223   4.778  1.00  0.00    -0.356 OA
HETATM   34  C   UNL     1      43.867 -20.947   5.640  1.00  0.00     0.210 C 
ENDBRANCH  30  33
ENDBRANCH  26  27
ENDBRANCH  25  26
ENDBRANCH  22  25
ENDBRANCH  20  21
ENDBRANCH  19  20
ENDBRANCH   1  19
TORSDOF 10
ENDMDL
MODEL 4
REMARK VINA RESULT:      -8.6      2.258     10.750
REMARK  10 active torsions:
REMARK  status: ('A' for Active; 'I' for Inactive)
REMARK    1  A    between atoms: C_3  and  N_4 
REMARK       I    between atoms: N_4  and  C_5 
REMARK    2  A    between atoms: C_5  and  C_6 
REMARK    3  A    between atoms: C_13  and  C_14 
REMARK    4  A    between atoms: C_14  and  O_15 
REMARK    5  A    between atoms: O_15  and  C_16 
REMARK    6  A    between atoms: C_16  and  C_17 
REMARK       I    between atoms: C_17  and  N_18 
REMARK    7  A    between atoms: N_18  and  C_19 
REMARK    8  A    between atoms: C_19  and  C_20 
REMARK    9  A    between atoms: C_20  and  C_21 
REMARK   10  A    between atoms: C_24  and  O_25 
ROOT
HETATM    1  C   UNL     1      43.629 -13.697   6.193  1.00  0.00     0.293 C 
HETATM    2  O   UNL     1      42.773 -13.666   5.319  1.00  0.00    -0.259 OA
ENDROOT
BRANCH   1   3
HETATM    3  C   UNL     1      44.176 -12.490   6.855  1.00  0.00     0.041 A 
HETATM    4  C   UNL     1      43.579 -11.944   7.999  1.00  0.00     0.047 A 
HETATM    5  C   UNL     1      44.098 -10.791   8.604  1.00  0.00     0.042 A 
HETATM    6  C   UNL     1      45.242 -10.180   8.043  1.00  0.00    -0.035 A 
HETATM    7  C   UNL     1      45.860  -8.920   8.592  1.00  0.00     0.050 C 
HETATM    8  C   UNL     1      45.832 -10.739   6.894  1.00  0.00     0.010 A 
HETATM    9  C   UNL     1      45.313 -11.893   6.311  1.00  0.00     0.018 A 
BRANCH   5  10
HETATM   10  N   UNL     1      43.496 -10.216   9.745  1.00  0.00    -0.321 N 
HETATM   11  C   UNL     1      43.629 -10.598  11.071  1.00  0.00     0.279 C 
HETATM   12  O   UNL     1      44.350 -11.501  11.480  1.00  0.00    -0.265 OA
HETATM   13  H   UNL     1      42.927  -9.389   9.614  1.00  0.00     0.169 HD
BRANCH  11  14
HETATM   14  C   UNL     1      42.836  -9.783  11.973  1.00  0.00     0.142 A 
HETATM   15  O   UNL     1      41.591 -10.213  12.358  1.00  0.00    -0.317 OA
HETATM   16  C   UNL     1      41.090  -9.273  13.201  1.00  0.00     0.143 A 
HETATM   17  C   UNL     1      41.980  -8.239  13.359  1.00  0.00     0.027 A 
HETATM   18  C   UNL     1      43.106  -8.566  12.569  1.00  0.00     0.045 A 
ENDBRANCH  11  14
ENDBRANCH   5  10
ENDBRANCH   1   3
BRANCH   1  19
HETATM   19  O   UNL     1      44.176 -14.815   6.724  1.00  0.00    -0.308 OA
BRANCH  19  20
HETATM   20  C   UNL     1      43.251 -15.815   7.155  1.00  0.00     0.281 C 
BRANCH  20  21
HETATM   21  C   UNL     1      43.328 -17.120   6.361  1.00  0.00     0.241 C 
HETATM   22  N   UNL     1      43.405 -16.952   4.994  1.00  0.00    -0.359 N 
HETATM   23  H   UNL     1      43.606 -16.013   4.649  1.00  0.00     0.162 HD
HETATM   24  O   UNL     1      43.293 -18.222   6.902  1.00  0.00    -0.271 OA
BRANCH  22  25
HETATM   25  C   UNL     1      43.579 -18.087   4.110  1.00  0.00     0.127 C 
BRANCH  25  26
HETATM   26  C   UNL     1      43.713 -17.654   2.651  1.00  0.00     0.058 C 
BRANCH  26  27
HETATM   27  C   UNL     1      42.754 -16.545   2.300  1.00  0.00    -0.057 A 
HETATM   28  C   UNL     1      43.237 -15.280   1.946  1.00  0.00     0.010 A 
HETATM   29  C   UNL     1      42.348 -14.250   1.633  1.00  0.00     0.037 A 
HETATM   30  C   UNL     1      40.968 -14.460   1.673  1.00  0.00     0.068 A 
HETATM   31  C   UNL     1      40.482 -15.716   2.036  1.00  0.00     0.037 A 
HETATM   32  C   UNL     1      41.370 -16.752   2.349  1.00  0.00     0.010 A 
BRANCH  30  33
HETATM   33  O   UNL     1      40.214 -13.368   1.341  1.00  0.00    -0.356 OA
HETATM   34  C   UNL     1      39.827 -13.245  -0.022  1.00  0.00     0.210 C 
ENDBRANCH  30  33
ENDBRANCH  26  27
ENDBRANCH  25  26
ENDBRANCH  22  25
ENDBRANCH  20  21
ENDBRANCH  19  20
ENDBRANCH   1  19
TORSDOF 10
ENDMDL
MODEL 5
REMARK VINA RESULT:      -8.6      1.460      1.726
REMARK  10 active torsions:
REMARK  status: ('A' for Active; 'I' for Inactive)
REMARK    1  A    between atoms: C_3  and  N_4 
REMARK       I    between atoms: N_4  and  C_5 
REMARK    2  A    between atoms: C_5  and  C_6 
REMARK    3  A    between atoms: C_13  and  C_14 
REMARK    4  A    between atoms: C_14  and  O_15 
REMARK    5  A    between atoms: O_15  and  C_16 
REMARK    6  A    between atoms: C_16  and  C_17 
REMARK       I    between atoms: C_17  and  N_18 
REMARK    7  A    between atoms: N_18  and  C_19 
REMARK    8  A    between atoms: C_19  and  C_20 
REMARK    9  A    between atoms: C_20  and  C_21 
REMARK   10  A    between atoms: C_24  and  O_25 
ROOT
HETATM    1  C   UNL     1      43.354 -11.755   5.271  1.00  0.00     0.293 C 
HETATM    2  O   UNL     1      44.289 -11.192   4.718  1.00  0.00    -0.259 OA
ENDROOT
BRANCH   1   3
HETATM    3  C   UNL     1      42.512 -12.786   4.620  1.00  0.00     0.041 A 
HETATM    4  C   UNL     1      42.941 -14.114   4.492  1.00  0.00     0.047 A 
HETATM    5  C   UNL     1      42.140 -15.073   3.858  1.00  0.00     0.042 A 
HETATM    6  C   UNL     1      40.881 -14.684   3.347  1.00  0.00    -0.035 A 
HETATM    7  C   UNL     1      39.957 -15.625   2.618  1.00  0.00     0.050 C 
HETATM    8  C   UNL     1      40.462 -13.347   3.483  1.00  0.00     0.010 A 
HETATM    9  C   UNL     1      41.264 -12.407   4.126  1.00  0.00     0.018 A 
BRANCH   5  10
HETATM   10  N   UNL     1      42.566 -16.410   3.702  1.00  0.00    -0.321 N 
HETATM   11  C   UNL     1      43.164 -16.998   2.598  1.00  0.00     0.279 C 
HETATM   12  O   UNL     1      43.468 -16.416   1.562  1.00  0.00    -0.265 OA
HETATM   13  H   UNL     1      42.478 -17.032   4.497  1.00  0.00     0.169 HD
BRANCH  11  14
HETATM   14  C   UNL     1      43.443 -18.409   2.793  1.00  0.00     0.142 A 
HETATM   15  O   UNL     1      43.169 -19.300   1.786  1.00  0.00    -0.317 OA
HETATM   16  C   UNL     1      43.535 -20.529   2.233  1.00  0.00     0.143 A 
HETATM   17  C   UNL     1      44.028 -20.453   3.513  1.00  0.00     0.027 A 
HETATM   18  C   UNL     1      43.970 -19.088   3.875  1.00  0.00     0.045 A 
ENDBRANCH  11  14
ENDBRANCH   5  10
ENDBRANCH   1   3
BRANCH   1  19
HETATM   19  O   UNL     1      42.969 -11.573   6.555  1.00  0.00    -0.308 OA
BRANCH  19  20
HETATM   20  C   UNL     1      43.368 -10.340   7.155  1.00  0.00     0.281 C 
BRANCH  20  21
HETATM   21  C   UNL     1      43.856 -10.476   8.598  1.00  0.00     0.241 C 
HETATM   22  N   UNL     1      42.959 -10.033   9.547  1.00  0.00    -0.359 N 
HETATM   23  H   UNL     1      42.003  -9.853   9.240  1.00  0.00     0.162 HD
HETATM   24  O   UNL     1      44.968 -10.917   8.877  1.00  0.00    -0.271 OA
BRANCH  22  25
HETATM   25  C   UNL     1      43.234 -10.182  10.962  1.00  0.00     0.127 C 
BRANCH  25  26
HETATM   26  C   UNL     1      43.769  -8.890  11.576  1.00  0.00     0.058 C 
BRANCH  26  27
HETATM   27  C   UNL     1      43.051  -8.530  12.852  1.00  0.00    -0.057 A 
HETATM   28  C   UNL     1      41.980  -9.310  13.303  1.00  0.00     0.010 A 
HETATM   29  C   UNL     1      41.306  -8.969  14.478  1.00  0.00     0.037 A 
HETATM   30  C   UNL     1      41.685  -7.847  15.218  1.00  0.00     0.068 A 
HETATM   31  C   UNL     1      42.745  -7.060  14.767  1.00  0.00     0.037 A 
HETATM   32  C   UNL     1      43.423  -7.400  13.589  1.00  0.00     0.010 A 
BRANCH  30  33
HETATM   33  O   UNL     1      40.944  -7.631  16.347  1.00  0.00    -0.356 OA
HETATM   34  C   UNL     1      41.415  -6.632  17.243  1.00  0.00     0.210 C 
ENDBRANCH  30  33
ENDBRANCH  26  27
ENDBRANCH  25  26
ENDBRANCH  22  25
ENDBRANCH  20  21
ENDBRANCH  19  20
ENDBRANCH   1  19
TORSDOF 10
ENDMDL
MODEL 6
REMARK VINA RESULT:      -8.5      2.886      4.650
REMARK  10 active torsions:
REMARK  status: ('A' for Active; 'I' for Inactive)
REMARK    1  A    between atoms: C_3  and  N_4 
REMARK       I    between atoms: N_4  and  C_5 
REMARK    2  A    between atoms: C_5  and  C_6 
REMARK    3  A    between atoms: C_13  and  C_14 
REMARK    4  A    between atoms: C_14  and  O_15 
REMARK    5  A    between atoms: O_15  and  C_16 
REMARK    6  A    between atoms: C_16  and  C_17 
REMARK       I    between atoms: C_17  and  N_18 
REMARK    7  A    between atoms: N_18  and  C_19 
REMARK    8  A    between atoms: C_19  and  C_20 
REMARK    9  A    between atoms: C_20  and  C_21 
REMARK   10  A    between atoms: C_24  and  O_25 
ROOT
HETATM    1  C   UNL     1      43.276 -14.128   6.841  1.00  0.00     0.293 C 
HETATM    2  O   UNL     1      43.301 -14.589   7.974  1.00  0.00    -0.259 OA
ENDROOT
BRANCH   1   3
HETATM    3  C   UNL     1      43.228 -14.959   5.615  1.00  0.00     0.041 A 
HETATM    4  C   UNL     1      42.607 -14.507   4.444  1.00  0.00     0.047 A 
HETATM    5  C   UNL     1      42.555 -15.312   3.297  1.00  0.00     0.042 A 
HETATM    6  C   UNL     1      43.145 -16.596   3.335  1.00  0.00    -0.035 A 
HETATM    7  C   UNL     1      43.116 -17.554   2.173  1.00  0.00     0.050 C 
HETATM    8  C   UNL     1      43.766 -17.036   4.518  1.00  0.00     0.010 A 
HETATM    9  C   UNL     1      43.821 -16.221   5.647  1.00  0.00     0.018 A 
BRANCH   5  10
HETATM   10  N   UNL     1      41.914 -14.880   2.115  1.00  0.00    -0.321 N 
HETATM   11  C   UNL     1      40.578 -15.005   1.769  1.00  0.00     0.279 C 
HETATM   12  O   UNL     1      39.702 -15.487   2.478  1.00  0.00    -0.265 OA
HETATM   13  H   UNL     1      42.466 -14.371   1.436  1.00  0.00     0.169 HD
BRANCH  11  14
HETATM   14  C   UNL     1      40.284 -14.462   0.455  1.00  0.00     0.142 A 
HETATM   15  O   UNL     1      39.550 -15.203  -0.437  1.00  0.00    -0.317 OA
HETATM   16  C   UNL     1      39.421 -14.456  -1.563  1.00  0.00     0.143 A 
HETATM   17  C   UNL     1      40.066 -13.251  -1.423  1.00  0.00     0.027 A 
HETATM   18  C   UNL     1      40.623 -13.253  -0.124  1.00  0.00     0.045 A 
ENDBRANCH  11  14
ENDBRANCH   5  10
ENDBRANCH   1   3
BRANCH   1  19
HETATM   19  O   UNL     1      43.239 -12.814   6.522  1.00  0.00    -0.308 OA
BRANCH  19  20
HETATM   20  C   UNL     1      44.481 -12.116   6.619  1.00  0.00     0.281 C 
BRANCH  20  21
HETATM   21  C   UNL     1      44.611 -11.241   7.867  1.00  0.00     0.241 C 
HETATM   22  N   UNL     1      45.263 -10.044   7.659  1.00  0.00    -0.359 N 
HETATM   23  H   UNL     1      45.416  -9.757   6.692  1.00  0.00     0.162 HD
HETATM   24  O   UNL     1      44.191 -11.596   8.966  1.00  0.00    -0.271 OA
BRANCH  22  25
HETATM   25  C   UNL     1      45.383  -9.063   8.719  1.00  0.00     0.127 C 
BRANCH  25  26
HETATM   26  C   UNL     1      44.135  -8.189   8.826  1.00  0.00     0.058 C 
BRANCH  26  27
HETATM   27  C   UNL     1      43.299  -8.541  10.030  1.00  0.00    -0.057 A 
HETATM   28  C   UNL     1      41.926  -8.773   9.893  1.00  0.00     0.010 A 
HETATM   29  C   UNL     1      41.150  -9.086  11.011  1.00  0.00     0.037 A 
HETATM   30  C   UNL     1      41.726  -9.168  12.280  1.00  0.00     0.068 A 
HETATM   31  C   UNL     1      43.092  -8.927  12.424  1.00  0.00     0.037 A 
HETATM   32  C   UNL     1      43.874  -8.613  11.305  1.00  0.00     0.010 A 
BRANCH  30  33
HETATM   33  O   UNL     1      40.853  -9.486  13.284  1.00  0.00    -0.356 OA
HETATM   34  C   UNL     1      39.863 -10.464  12.988  1.00  0.00     0.210 C 
ENDBRANCH  30  33
ENDBRANCH  26  27
ENDBRANCH  25  26
ENDBRANCH  22  25
ENDBRANCH  20  21
ENDBRANCH  19  20
ENDBRANCH   1  19
TORSDOF 10
ENDMDL
MODEL 7
REMARK VINA RESULT:      -8.4      2.627     10.539
REMARK  10 active torsions:
REMARK  status: ('A' for Active; 'I' for Inactive)
REMARK    1  A    between atoms: C_3  and  N_4 
REMARK       I    between atoms: N_4  and  C_5 
REMARK    2  A    between atoms: C_5  and  C_6 
REMARK    3  A    between atoms: C_13  and  C_14 
REMARK    4  A    between atoms: C_14  and  O_15 
REMARK    5  A    between atoms: O_15  and  C_16 
REMARK    6  A    between atoms: C_16  and  C_17 
REMARK       I    between atoms: C_17  and  N_18 
REMARK    7  A    between atoms: N_18  and  C_19 
REMARK    8  A    between atoms: C_19  and  C_20 
REMARK    9  A    between atoms: C_20  and  C_21 
REMARK   10  A    between atoms: C_24  and  O_25 
ROOT
HETATM    1  C   UNL     1      43.712 -12.099   5.086  1.00  0.00     0.293 C 
HETATM    2  O   UNL     1      43.364 -13.266   4.963  1.00  0.00    -0.259 OA
ENDROOT
BRANCH   1   3
HETATM    3  C   UNL     1      44.223 -11.520   6.351  1.00  0.00     0.041 A 
HETATM    4  C   UNL     1      43.384 -11.295   7.449  1.00  0.00     0.047 A 
HETATM    5  C   UNL     1      43.879 -10.730   8.632  1.00  0.00     0.042 A 
HETATM    6  C   UNL     1      45.248 -10.390   8.707  1.00  0.00    -0.035 A 
HETATM    7  C   UNL     1      45.876  -9.747   9.917  1.00  0.00     0.050 C 
HETATM    8  C   UNL     1      46.081 -10.623   7.597  1.00  0.00     0.010 A 
HETATM    9  C   UNL     1      45.578 -11.196   6.431  1.00  0.00     0.018 A 
BRANCH   5  10
HETATM   10  N   UNL     1      43.042 -10.476   9.741  1.00  0.00    -0.321 N 
HETATM   11  C   UNL     1      42.212  -9.387   9.960  1.00  0.00     0.279 C 
HETATM   12  O   UNL     1      42.036  -8.461   9.176  1.00  0.00    -0.265 OA
HETATM   13  H   UNL     1      42.984 -11.184  10.463  1.00  0.00     0.169 HD
BRANCH  11  14
HETATM   14  C   UNL     1      41.516  -9.456  11.231  1.00  0.00     0.142 A 
HETATM   15  O   UNL     1      40.226  -8.997  11.324  1.00  0.00    -0.317 OA
HETATM   16  C   UNL     1      39.826  -9.193  12.607  1.00  0.00     0.143 A 
HETATM   17  C   UNL     1      40.835  -9.759  13.349  1.00  0.00     0.027 A 
HETATM   18  C   UNL     1      41.924  -9.929  12.464  1.00  0.00     0.045 A 
ENDBRANCH  11  14
ENDBRANCH   5  10
ENDBRANCH   1   3
BRANCH   1  19
HETATM   19  O   UNL     1      43.735 -11.173   4.101  1.00  0.00    -0.308 OA
BRANCH  19  20
HETATM   20  C   UNL     1      42.460 -10.721   3.643  1.00  0.00     0.281 C 
BRANCH  20  21
HETATM   21  C   UNL     1      42.101 -11.188   2.231  1.00  0.00     0.241 C 
HETATM   22  N   UNL     1      41.779 -12.526   2.138  1.00  0.00    -0.359 N 
HETATM   23  H   UNL     1      41.609 -13.028   3.010  1.00  0.00     0.162 HD
HETATM   24  O   UNL     1      42.130 -10.434   1.261  1.00  0.00    -0.271 OA
BRANCH  22  25
HETATM   25  C   UNL     1      41.324 -13.100   0.888  1.00  0.00     0.127 C 
BRANCH  25  26
HETATM   26  C   UNL     1      40.651 -14.456   1.098  1.00  0.00     0.058 C 
BRANCH  26  27
HETATM   27  C   UNL     1      41.475 -15.366   1.973  1.00  0.00    -0.057 A 
HETATM   28  C   UNL     1      41.089 -15.614   3.295  1.00  0.00     0.010 A 
HETATM   29  C   UNL     1      41.859 -16.446   4.110  1.00  0.00     0.037 A 
HETATM   30  C   UNL     1      43.026 -17.040   3.623  1.00  0.00     0.068 A 
HETATM   31  C   UNL     1      43.421 -16.788   2.310  1.00  0.00     0.037 A 
HETATM   32  C   UNL     1      42.650 -15.954   1.490  1.00  0.00     0.010 A 
BRANCH  30  33
HETATM   33  O   UNL     1      43.681 -17.833   4.525  1.00  0.00    -0.356 OA
HETATM   34  C   UNL     1      44.257 -17.184   5.651  1.00  0.00     0.210 C 
ENDBRANCH  30  33
ENDBRANCH  26  27
ENDBRANCH  25  26
ENDBRANCH  22  25
ENDBRANCH  20  21
ENDBRANCH  19  20
ENDBRANCH   1  19
TORSDOF 10
ENDMDL
MODEL 8
REMARK VINA RESULT:      -8.3      2.315      3.406
REMARK  10 active torsions:
REMARK  status: ('A' for Active; 'I' for Inactive)
REMARK    1  A    between atoms: C_3  and  N_4 
REMARK       I    between atoms: N_4  and  C_5 
REMARK    2  A    between atoms: C_5  and  C_6 
REMARK    3  A    between atoms: C_13  and  C_14 
REMARK    4  A    between atoms: C_14  and  O_15 
REMARK    5  A    between atoms: O_15  and  C_16 
REMARK    6  A    between atoms: C_16  and  C_17 
REMARK       I    between atoms: C_17  and  N_18 
REMARK    7  A    between atoms: N_18  and  C_19 
REMARK    8  A    between atoms: C_19  and  C_20 
REMARK    9  A    between atoms: C_20  and  C_21 
REMARK   10  A    between atoms: C_24  and  O_25 
ROOT
HETATM    1  C   UNL     1      41.390 -11.759   5.332  1.00  0.00     0.293 C 
HETATM    2  O   UNL     1      40.784 -11.556   6.376  1.00  0.00    -0.259 OA
ENDROOT
BRANCH   1   3
HETATM    3  C   UNL     1      41.029 -12.819   4.362  1.00  0.00     0.041 A 
HETATM    4  C   UNL     1      41.635 -14.081   4.391  1.00  0.00     0.047 A 
HETATM    5  C   UNL     1      41.296 -15.067   3.455  1.00  0.00     0.042 A 
HETATM    6  C   UNL     1      40.322 -14.772   2.473  1.00  0.00    -0.035 A 
HETATM    7  C   UNL     1      39.908 -15.746   1.400  1.00  0.00     0.050 C 
HETATM    8  C   UNL     1      39.720 -13.500   2.456  1.00  0.00     0.010 A 
HETATM    9  C   UNL     1      40.059 -12.534   3.400  1.00  0.00     0.018 A 
BRANCH   5  10
HETATM   10  N   UNL     1      41.913 -16.337   3.456  1.00  0.00    -0.321 N 
HETATM   11  C   UNL     1      42.999 -16.765   2.709  1.00  0.00     0.279 C 
HETATM   12  O   UNL     1      43.644 -16.070   1.932  1.00  0.00    -0.265 OA
HETATM   13  H   UNL     1      41.570 -17.030   4.110  1.00  0.00     0.169 HD
BRANCH  11  14
HETATM   14  C   UNL     1      43.342 -18.154   2.959  1.00  0.00     0.142 A 
HETATM   15  O   UNL     1      43.913 -18.506   4.155  1.00  0.00    -0.317 OA
HETATM   16  C   UNL     1      44.114 -19.849   4.120  1.00  0.00     0.143 A 
HETATM   17  C   UNL     1      43.694 -20.370   2.920  1.00  0.00     0.027 A 
HETATM   18  C   UNL     1      43.197 -19.279   2.171  1.00  0.00     0.045 A 
ENDBRANCH  11  14
ENDBRANCH   5  10
ENDBRANCH   1   3
BRANCH   1  19
HETATM   19  O   UNL     1      42.438 -11.038   4.874  1.00  0.00    -0.308 OA
BRANCH  19  20
HETATM   20  C   UNL     1      43.671 -11.747   4.744  1.00  0.00     0.281 C 
BRANCH  20  21
HETATM   21  C   UNL     1      44.453 -11.886   6.051  1.00  0.00     0.241 C 
HETATM   22  N   UNL     1      45.352 -10.867   6.289  1.00  0.00    -0.359 N 
HETATM   23  H   UNL     1      45.278 -10.033   5.708  1.00  0.00     0.162 HD
HETATM   24  O   UNL     1      44.308 -12.845   6.805  1.00  0.00    -0.271 OA
BRANCH  22  25
HETATM   25  C   UNL     1      46.099 -10.805   7.529  1.00  0.00     0.127 C 
BRANCH  25  26
HETATM   26  C   UNL     1      46.272  -9.367   8.016  1.00  0.00     0.058 C 
BRANCH  26  27
HETATM   27  C   UNL     1      45.206  -8.974   9.007  1.00  0.00    -0.057 A 
HETATM   28  C   UNL     1      44.337  -7.914   8.724  1.00  0.00     0.010 A 
HETATM   29  C   UNL     1      43.358  -7.541   9.648  1.00  0.00     0.037 A 
HETATM   30  C   UNL     1      43.233  -8.213  10.866  1.00  0.00     0.068 A 
HETATM   31  C   UNL     1      44.104  -9.262  11.156  1.00  0.00     0.037 A 
HETATM   32  C   UNL     1      45.086  -9.639  10.232  1.00  0.00     0.010 A 
BRANCH  30  33
HETATM   33  O   UNL     1      42.232  -7.748  11.673  1.00  0.00    -0.356 OA
HETATM   34  C   UNL     1      42.626  -7.111  12.883  1.00  0.00     0.210 C 
ENDBRANCH  30  33
ENDBRANCH  26  27
ENDBRANCH  25  26
ENDBRANCH  22  25
ENDBRANCH  20  21
ENDBRANCH  19  20
ENDBRANCH   1  19
TORSDOF 10
ENDMDL
MODEL 9
REMARK VINA RESULT:      -8.2      1.766      2.204
REMARK  10 active torsions:
REMARK  status: ('A' for Active; 'I' for Inactive)
REMARK    1  A    between atoms: C_3  and  N_4 
REMARK       I    between atoms: N_4  and  C_5 
REMARK    2  A    between atoms: C_5  and  C_6 
REMARK    3  A    between atoms: C_13  and  C_14 
REMARK    4  A    between atoms: C_14  and  O_15 
REMARK    5  A    between atoms: O_15  and  C_16 
REMARK    6  A    between atoms: C_16  and  C_17 
REMARK       I    between atoms: C_17  and  N_18 
REMARK    7  A    between atoms: N_18  and  C_19 
REMARK    8  A    between atoms: C_19  and  C_20 
REMARK    9  A    between atoms: C_20  and  C_21 
REMARK   10  A    between atoms: C_24  and  O_25 
ROOT
HETATM    1  C   UNL     1      44.984 -11.898   6.797  1.00  0.00     0.293 C 
HETATM    2  O   UNL     1      45.910 -11.548   6.079  1.00  0.00    -0.259 OA
ENDROOT
BRANCH   1   3
HETATM    3  C   UNL     1      43.897 -12.804   6.359  1.00  0.00     0.041 A 
HETATM    4  C   UNL     1      44.136 -14.154   6.070  1.00  0.00     0.047 A 
HETATM    5  C   UNL     1      43.101 -14.995   5.638  1.00  0.00     0.042 A 
HETATM    6  C   UNL     1      41.800 -14.462   5.500  1.00  0.00    -0.035 A 
HETATM    7  C   UNL     1      40.623 -15.267   5.012  1.00  0.00     0.050 C 
HETATM    8  C   UNL     1      41.573 -13.104   5.795  1.00  0.00     0.010 A 
HETATM    9  C   UNL     1      42.609 -12.283   6.234  1.00  0.00     0.018 A 
BRANCH   5  10
HETATM   10  N   UNL     1      43.329 -16.352   5.322  1.00  0.00    -0.321 N 
HETATM   11  C   UNL     1      43.391 -17.436   6.183  1.00  0.00     0.279 C 
HETATM   12  O   UNL     1      43.207 -17.391   7.395  1.00  0.00    -0.265 OA
HETATM   13  H   UNL     1      43.417 -16.602   4.344  1.00  0.00     0.169 HD
BRANCH  11  14
HETATM   14  C   UNL     1      43.669 -18.685   5.497  1.00  0.00     0.142 A 
HETATM   15  O   UNL     1      43.871 -18.682   4.140  1.00  0.00    -0.317 OA
HETATM   16  C   UNL     1      44.118 -19.967   3.773  1.00  0.00     0.143 A 
HETATM   17  C   UNL     1      44.069 -20.801   4.864  1.00  0.00     0.027 A 
HETATM   18  C   UNL     1      43.779 -19.977   5.975  1.00  0.00     0.045 A 
ENDBRANCH  11  14
ENDBRANCH   5  10
ENDBRANCH   1   3
BRANCH   1  19
HETATM   19  O   UNL     1      44.822 -11.563   8.098  1.00  0.00    -0.308 OA
BRANCH  19  20
HETATM   20  C   UNL     1      45.641 -10.492   8.571  1.00  0.00     0.281 C 
BRANCH  20  21
HETATM   21  C   UNL     1      44.863  -9.364   9.251  1.00  0.00     0.241 C 
HETATM   22  N   UNL     1      44.176  -9.748  10.384  1.00  0.00    -0.359 N 
HETATM   23  H   UNL     1      44.400 -10.662  10.779  1.00  0.00     0.162 HD
HETATM   24  O   UNL     1      44.833  -8.222   8.801  1.00  0.00    -0.271 OA
BRANCH  22  25
HETATM   25  C   UNL     1      43.469  -8.777  11.195  1.00  0.00     0.127 C 
BRANCH  25  26
HETATM   26  C   UNL     1      42.571  -9.450  12.231  1.00  0.00     0.058 C 
BRANCH  26  27
HETATM   27  C   UNL     1      42.407  -8.606  13.470  1.00  0.00    -0.057 A 
HETATM   28  C   UNL     1      43.243  -7.506  13.690  1.00  0.00     0.010 A 
HETATM   29  C   UNL     1      43.099  -6.732  14.844  1.00  0.00     0.037 A 
HETATM   30  C   UNL     1      42.127  -7.044  15.796  1.00  0.00     0.068 A 
HETATM   31  C   UNL     1      41.299  -8.146  15.587  1.00  0.00     0.037 A 
HETATM   32  C   UNL     1      41.439  -8.923  14.430  1.00  0.00     0.010 A 
BRANCH  30  33
HETATM   33  O   UNL     1      42.094  -6.203  16.874  1.00  0.00    -0.356 OA
HETATM   34  C   UNL     1      41.961  -6.806  18.155  1.00  0.00     0.210 C 
ENDBRANCH  30  33
ENDBRANCH  26  27
ENDBRANCH  25  26
ENDBRANCH  22  25
ENDBRANCH  20  21
ENDBRANCH  19  20
ENDBRANCH   1  19
TORSDOF 10
ENDMDL
MODEL 10
REMARK VINA RESULT:      -7.9      3.496      5.370
REMARK  10 active torsions:
REMARK  status: ('A' for Active; 'I' for Inactive)
REMARK    1  A    between atoms: C_3  and  N_4 
REMARK       I    between atoms: N_4  and  C_5 
REMARK    2  A    between atoms: C_5  and  C_6 
REMARK    3  A    between atoms: C_13  and  C_14 
REMARK    4  A    between atoms: C_14  and  O_15 
REMARK    5  A    between atoms: O_15  and  C_16 
REMARK    6  A    between atoms: C_16  and  C_17 
REMARK       I    between atoms: C_17  and  N_18 
REMARK    7  A    between atoms: N_18  and  C_19 
REMARK    8  A    between atoms: C_19  and  C_20 
REMARK    9  A    between atoms: C_20  and  C_21 
REMARK   10  A    between atoms: C_24  and  O_25 
ROOT
HETATM    1  C   UNL     1      39.895 -11.850   5.772  1.00  0.00     0.293 C 
HETATM    2  O   UNL     1      38.962 -11.836   6.563  1.00  0.00    -0.259 OA
ENDROOT
BRANCH   1   3
HETATM    3  C   UNL     1      40.210 -12.998   4.890  1.00  0.00     0.041 A 
HETATM    4  C   UNL     1      39.799 -13.033   3.551  1.00  0.00     0.047 A 
HETATM    5  C   UNL     1      40.089 -14.134   2.735  1.00  0.00     0.042 A 
HETATM    6  C   UNL     1      40.810 -15.220   3.281  1.00  0.00    -0.035 A 
HETATM    7  C   UNL     1      41.145 -16.466   2.503  1.00  0.00     0.050 C 
HETATM    8  C   UNL     1      41.218 -15.172   4.627  1.00  0.00     0.010 A 
HETATM    9  C   UNL     1      40.933 -14.065   5.424  1.00  0.00     0.018 A 
BRANCH   5  10
HETATM   10  N   UNL     1      39.663 -14.194   1.389  1.00  0.00    -0.321 N 
HETATM   11  C   UNL     1      40.092 -13.427   0.318  1.00  0.00     0.279 C 
HETATM   12  O   UNL     1      40.972 -12.575   0.363  1.00  0.00    -0.265 OA
HETATM   13  H   UNL     1      38.994 -14.911   1.136  1.00  0.00     0.169 HD
BRANCH  11  14
HETATM   14  C   UNL     1      39.408 -13.756  -0.920  1.00  0.00     0.142 A 
HETATM   15  O   UNL     1      38.565 -12.838  -1.492  1.00  0.00    -0.317 OA
HETATM   16  C   UNL     1      38.079 -13.401  -2.630  1.00  0.00     0.143 A 
HETATM   17  C   UNL     1      38.583 -14.668  -2.798  1.00  0.00     0.027 A 
HETATM   18  C   UNL     1      39.439 -14.899  -1.697  1.00  0.00     0.045 A 
ENDBRANCH  11  14
ENDBRANCH   5  10
ENDBRANCH   1   3
BRANCH   1  19
HETATM   19  O   UNL     1      40.749 -10.828   5.537  1.00  0.00    -0.308 OA
BRANCH  19  20
HETATM   20  C   UNL     1      41.358 -10.248   6.691  1.00  0.00     0.281 C 
BRANCH  20  21
HETATM   21  C   UNL     1      42.819 -10.650   6.895  1.00  0.00     0.241 C 
HETATM   22  N   UNL     1      43.525  -9.823   7.744  1.00  0.00    -0.359 N 
HETATM   23  H   UNL     1      42.988  -9.162   8.306  1.00  0.00     0.162 HD
HETATM   24  O   UNL     1      43.322 -11.614   6.324  1.00  0.00    -0.271 OA
BRANCH  22  25
HETATM   25  C   UNL     1      44.893 -10.123   8.114  1.00  0.00     0.127 C 
BRANCH  25  26
HETATM   26  C   UNL     1      45.337  -9.327   9.340  1.00  0.00     0.058 C 
BRANCH  26  27
HETATM   27  C   UNL     1      44.318  -9.383  10.450  1.00  0.00    -0.057 A 
HETATM   28  C   UNL     1      44.086 -10.581  11.134  1.00  0.00     0.010 A 
HETATM   29  C   UNL     1      43.132 -10.636  12.153  1.00  0.00     0.037 A 
HETATM   30  C   UNL     1      42.394  -9.503  12.503  1.00  0.00     0.068 A 
HETATM   31  C   UNL     1      42.615  -8.309  11.816  1.00  0.00     0.037 A 
HETATM   32  C   UNL     1      43.571  -8.250  10.794  1.00  0.00     0.010 A 
BRANCH  30  33
HETATM   33  O   UNL     1      41.499  -9.696  13.518  1.00  0.00    -0.356 OA
HETATM   34  C   UNL     1      40.185 -10.096  13.148  1.00  0.00     0.210 C 
ENDBRANCH  30  33
ENDBRANCH  26  27
ENDBRANCH  25  26
ENDBRANCH  22  25
ENDBRANCH  20  21
ENDBRANCH  19  20
ENDBRANCH   1  19
TORSDOF 10
ENDMDL
