MODEL 1
REMARK VINA RESULT:      -8.2      0.000      0.000
REMARK  9 active torsions:
REMARK  status: ('A' for Active; 'I' for Inactive)
REMARK    1  A    between atoms: S_2  and  C_3 
REMARK    2  A    between atoms: C_3  and  C_4 
REMARK    3  A    between atoms: C_4  and  C_5 
REMARK    4  A    between atoms: C_5  and  N_6 
REMARK    5  A    between atoms: C_5  and  C_16 
REMARK       I    between atoms: N_6  and  C_7 
REMARK    6  A    between atoms: C_7  and  C_8 
REMARK       I    between atoms: C_16  and  N_17 
REMARK    7  A    between atoms: N_17  and  N_18 
REMARK       I    between atoms: N_18  and  C_19 
REMARK    8  A    between atoms: C_19  and  C_20 
REMARK    9  A    between atoms: C_23  and  O_24 
ROOT
HETATM    1  C   UNL     1      42.813 -14.421   3.185  1.00  0.00     0.179 C 
ENDROOT
BRANCH   1   2
HETATM    2  C   UNL     1      42.667 -13.436   4.357  1.00  0.00     0.045 C 
BRANCH   2   3
HETATM    3  C   UNL     1      42.418 -14.076   5.724  1.00  0.00     0.076 C 
BRANCH   3   4
HETATM    4  S   UNL     1      40.649 -14.124   6.160  1.00  0.00    -0.173 SA
HETATM    5  C   UNL     1      40.446 -15.919   6.276  1.00  0.00     0.089 C 
ENDBRANCH   3   4
ENDBRANCH   2   3
ENDBRANCH   1   2
BRANCH   1   6
HETATM    6  N   UNL     1      43.111 -15.804   3.580  1.00  0.00    -0.344 N 
HETATM    7  C   UNL     1      43.454 -16.818   2.723  1.00  0.00     0.254 C 
HETATM    8  O   UNL     1      43.574 -16.627   1.516  1.00  0.00    -0.268 OA
HETATM    9  H   UNL     1      43.088 -15.998   4.575  1.00  0.00     0.163 HD
BRANCH   7  10
HETATM   10  C   UNL     1      43.652 -18.185   3.284  1.00  0.00     0.053 A 
HETATM   11  C   UNL     1      44.022 -18.484   4.604  1.00  0.00     0.049 A 
HETATM   12 CL   UNL     1      44.364 -17.286   5.803  1.00  0.00    -0.083 Cl
HETATM   13  C   UNL     1      44.163 -19.819   5.008  1.00  0.00     0.025 A 
HETATM   14  C   UNL     1      43.946 -20.862   4.107  1.00  0.00     0.002 A 
HETATM   15  C   UNL     1      43.593 -20.577   2.793  1.00  0.00     0.001 A 
HETATM   16  C   UNL     1      43.450 -19.251   2.384  1.00  0.00     0.019 A 
ENDBRANCH   7  10
ENDBRANCH   1   6
BRANCH   1  17
HETATM   17  C   UNL     1      41.595 -14.299   2.245  1.00  0.00     0.259 C 
HETATM   18  N   UNL     1      41.876 -14.146   0.906  1.00  0.00    -0.265 N 
HETATM   19  H   UNL     1      42.830 -14.134   0.531  1.00  0.00     0.190 HD
HETATM   20  O   UNL     1      40.440 -14.474   2.644  1.00  0.00    -0.269 OA
BRANCH  18  21
HETATM   21  N   UNL     1      40.814 -14.129  -0.003  1.00  0.00    -0.263 N 
HETATM   22  C   UNL     1      40.415 -12.915  -0.528  1.00  0.00     0.270 C 
HETATM   23  O   UNL     1      41.000 -11.860  -0.297  1.00  0.00    -0.266 OA
HETATM   24  H   UNL     1      40.217 -14.953   0.013  1.00  0.00     0.190 HD
BRANCH  22  25
HETATM   25  C   UNL     1      39.202 -12.931  -1.397  1.00  0.00     0.033 A 
HETATM   26  C   UNL     1      38.874 -14.023  -2.215  1.00  0.00     0.020 A 
HETATM   27  C   UNL     1      37.734 -13.977  -3.027  1.00  0.00     0.037 A 
HETATM   28  C   UNL     1      36.934 -12.840  -3.024  1.00  0.00     0.065 A 
HETATM   29  C   UNL     1      37.251 -11.748  -2.226  1.00  0.00     0.037 A 
HETATM   30  C   UNL     1      38.385 -11.791  -1.414  1.00  0.00     0.020 A 
BRANCH  28  31
HETATM   31  O   UNL     1      35.820 -12.754  -3.805  1.00  0.00    -0.361 OA
HETATM   32  H   UNL     1      35.597 -11.818  -3.934  1.00  0.00     0.217 HD
ENDBRANCH  28  31
ENDBRANCH  22  25
ENDBRANCH  18  21
ENDBRANCH   1  17
TORSDOF 9
ENDMDL
MODEL 2
REMARK VINA RESULT:      -8.2      3.988      8.538
REMARK  9 active torsions:
REMARK  status: ('A' for Active; 'I' for Inactive)
REMARK    1  A    between atoms: S_2  and  C_3 
REMARK    2  A    between atoms: C_3  and  C_4 
REMARK    3  A    between atoms: C_4  and  C_5 
REMARK    4  A    between atoms: C_5  and  N_6 
REMARK    5  A    between atoms: C_5  and  C_16 
REMARK       I    between atoms: N_6  and  C_7 
REMARK    6  A    between atoms: C_7  and  C_8 
REMARK       I    between atoms: C_16  and  N_17 
REMARK    7  A    between atoms: N_17  and  N_18 
REMARK       I    between atoms: N_18  and  C_19 
REMARK    8  A    between atoms: C_19  and  C_20 
REMARK    9  A    between atoms: C_23  and  O_24 
ROOT
HETATM    1  C   UNL     1      41.464 -12.366   5.678  1.00  0.00     0.179 C 
ENDROOT
BRANCH   1   2
HETATM    2  C   UNL     1      39.956 -12.064   5.638  1.00  0.00     0.045 C 
BRANCH   2   3
HETATM    3  C   UNL     1      39.363 -11.873   4.242  1.00  0.00     0.076 C 
BRANCH   3   4
HETATM    4  S   UNL     1      40.566 -11.183   3.060  1.00  0.00    -0.173 SA
HETATM    5  C   UNL     1      40.784 -12.642   2.011  1.00  0.00     0.089 C 
ENDBRANCH   3   4
ENDBRANCH   2   3
ENDBRANCH   1   2
BRANCH   1   6
HETATM    6  N   UNL     1      42.171 -11.803   6.836  1.00  0.00    -0.344 N 
HETATM    7  C   UNL     1      42.625 -10.513   6.939  1.00  0.00     0.254 C 
HETATM    8  O   UNL     1      42.436  -9.692   6.047  1.00  0.00    -0.268 OA
HETATM    9  H   UNL     1      42.295 -12.426   7.626  1.00  0.00     0.163 HD
BRANCH   7  10
HETATM   10  C   UNL     1      43.392 -10.126   8.158  1.00  0.00     0.053 A 
HETATM   11  C   UNL     1      44.762 -10.341   8.366  1.00  0.00     0.049 A 
HETATM   12 CL   UNL     1      45.793 -11.150   7.239  1.00  0.00    -0.083 Cl
HETATM   13  C   UNL     1      45.365  -9.916   9.559  1.00  0.00     0.025 A 
HETATM   14  C   UNL     1      44.615  -9.284  10.550  1.00  0.00     0.002 A 
HETATM   15  C   UNL     1      43.253  -9.080  10.361  1.00  0.00     0.001 A 
HETATM   16  C   UNL     1      42.646  -9.500   9.176  1.00  0.00     0.019 A 
ENDBRANCH   7  10
ENDBRANCH   1   6
BRANCH   1  17
HETATM   17  C   UNL     1      41.700 -13.879   5.489  1.00  0.00     0.259 C 
HETATM   18  N   UNL     1      42.871 -14.236   4.860  1.00  0.00    -0.265 N 
HETATM   19  H   UNL     1      43.571 -13.554   4.548  1.00  0.00     0.190 HD
HETATM   20  O   UNL     1      40.959 -14.726   5.997  1.00  0.00    -0.269 OA
BRANCH  18  21
HETATM   21  N   UNL     1      43.184 -15.594   4.749  1.00  0.00    -0.263 N 
HETATM   22  C   UNL     1      43.282 -16.147   3.487  1.00  0.00     0.270 C 
HETATM   23  O   UNL     1      43.187 -15.486   2.456  1.00  0.00    -0.266 OA
HETATM   24  H   UNL     1      43.022 -16.146   5.588  1.00  0.00     0.190 HD
BRANCH  22  25
HETATM   25  C   UNL     1      43.497 -17.622   3.421  1.00  0.00     0.033 A 
HETATM   26  C   UNL     1      43.136 -18.388   2.301  1.00  0.00     0.020 A 
HETATM   27  C   UNL     1      43.341 -19.773   2.299  1.00  0.00     0.037 A 
HETATM   28  C   UNL     1      43.895 -20.387   3.418  1.00  0.00     0.065 A 
HETATM   29  C   UNL     1      44.248 -19.643   4.537  1.00  0.00     0.037 A 
HETATM   30  C   UNL     1      44.047 -18.262   4.541  1.00  0.00     0.020 A 
BRANCH  28  31
HETATM   31  O   UNL     1      44.103 -21.733   3.458  1.00  0.00    -0.361 OA
HETATM   32  H   UNL     1      43.254 -22.179   3.605  1.00  0.00     0.217 HD
ENDBRANCH  28  31
ENDBRANCH  22  25
ENDBRANCH  18  21
ENDBRANCH   1  17
TORSDOF 9
ENDMDL
MODEL 3
REMARK VINA RESULT:      -8.0      3.514      7.258
REMARK  9 active torsions:
REMARK  status: ('A' for Active; 'I' for Inactive)
REMARK    1  A    between atoms: S_2  and  C_3 
REMARK    2  A    between atoms: C_3  and  C_4 
REMARK    3  A    between atoms: C_4  and  C_5 
REMARK    4  A    between atoms: C_5  and  N_6 
REMARK    5  A    between atoms: C_5  and  C_16 
REMARK       I    between atoms: N_6  and  C_7 
REMARK    6  A    between atoms: C_7  and  C_8 
REMARK       I    between atoms: C_16  and  N_17 
REMARK    7  A    between atoms: N_17  and  N_18 
REMARK       I    between atoms: N_18  and  C_19 
REMARK    8  A    between atoms: C_19  and  C_20 
REMARK    9  A    between atoms: C_23  and  O_24 
ROOT
HETATM    1  C   UNL     1      41.152 -15.066   2.601  1.00  0.00     0.179 C 
ENDROOT
BRANCH   1   2
HETATM    2  C   UNL     1      40.935 -14.919   1.086  1.00  0.00     0.045 C 
BRANCH   2   3
HETATM    3  C   UNL     1      39.935 -13.841   0.668  1.00  0.00     0.076 C 
BRANCH   3   4
HETATM    4  S   UNL     1      40.640 -12.661  -0.529  1.00  0.00    -0.173 SA
HETATM    5  C   UNL     1      39.166 -12.390  -1.544  1.00  0.00     0.089 C 
ENDBRANCH   3   4
ENDBRANCH   2   3
ENDBRANCH   1   2
BRANCH   1   6
HETATM    6  N   UNL     1      41.744 -16.345   3.014  1.00  0.00    -0.344 N 
HETATM    7  C   UNL     1      42.914 -16.872   2.528  1.00  0.00     0.254 C 
HETATM    8  O   UNL     1      43.596 -16.272   1.702  1.00  0.00    -0.268 OA
HETATM    9  H   UNL     1      41.250 -16.850   3.742  1.00  0.00     0.163 HD
BRANCH   7  10
HETATM   10  C   UNL     1      43.335 -18.222   3.003  1.00  0.00     0.053 A 
HETATM   11  C   UNL     1      43.887 -18.513   4.259  1.00  0.00     0.049 A 
HETATM   12 CL   UNL     1      44.221 -17.320   5.465  1.00  0.00    -0.083 Cl
HETATM   13  C   UNL     1      44.230 -19.833   4.585  1.00  0.00     0.025 A 
HETATM   14  C   UNL     1      44.036 -20.866   3.669  1.00  0.00     0.002 A 
HETATM   15  C   UNL     1      43.503 -20.587   2.416  1.00  0.00     0.001 A 
HETATM   16  C   UNL     1      43.158 -19.276   2.084  1.00  0.00     0.019 A 
ENDBRANCH   7  10
ENDBRANCH   1   6
BRANCH   1  17
HETATM   17  C   UNL     1      41.909 -13.835   3.142  1.00  0.00     0.259 C 
HETATM   18  N   UNL     1      41.737 -13.557   4.480  1.00  0.00    -0.265 N 
HETATM   19  H   UNL     1      41.163 -14.135   5.103  1.00  0.00     0.190 HD
HETATM   20  O   UNL     1      42.733 -13.220   2.459  1.00  0.00    -0.269 OA
BRANCH  18  21
HETATM   21  N   UNL     1      42.474 -12.514   5.047  1.00  0.00    -0.263 N 
HETATM   22  C   UNL     1      43.390 -12.815   6.036  1.00  0.00     0.270 C 
HETATM   23  O   UNL     1      43.646 -13.964   6.385  1.00  0.00    -0.266 OA
HETATM   24  H   UNL     1      42.080 -11.585   4.915  1.00  0.00     0.190 HD
BRANCH  22  25
HETATM   25  C   UNL     1      44.063 -11.658   6.696  1.00  0.00     0.033 A 
HETATM   26  C   UNL     1      45.458 -11.559   6.807  1.00  0.00     0.020 A 
HETATM   27  C   UNL     1      46.037 -10.461   7.454  1.00  0.00     0.037 A 
HETATM   28  C   UNL     1      45.221  -9.473   7.995  1.00  0.00     0.065 A 
HETATM   29  C   UNL     1      43.838  -9.562   7.900  1.00  0.00     0.037 A 
HETATM   30  C   UNL     1      43.257 -10.654   7.254  1.00  0.00     0.020 A 
BRANCH  28  31
HETATM   31  O   UNL     1      45.746  -8.392   8.639  1.00  0.00    -0.361 OA
HETATM   32  H   UNL     1      45.643  -7.609   8.075  1.00  0.00     0.217 HD
ENDBRANCH  28  31
ENDBRANCH  22  25
ENDBRANCH  18  21
ENDBRANCH   1  17
TORSDOF 9
ENDMDL
MODEL 4
REMARK VINA RESULT:      -7.9      5.019      8.362
REMARK  9 active torsions:
REMARK  status: ('A' for Active; 'I' for Inactive)
REMARK    1  A    between atoms: S_2  and  C_3 
REMARK    2  A    between atoms: C_3  and  C_4 
REMARK    3  A    between atoms: C_4  and  C_5 
REMARK    4  A    between atoms: C_5  and  N_6 
REMARK    5  A    between atoms: C_5  and  C_16 
REMARK       I    between atoms: N_6  and  C_7 
REMARK    6  A    between atoms: C_7  and  C_8 
REMARK       I    between atoms: C_16  and  N_17 
REMARK    7  A    between atoms: N_17  and  N_18 
REMARK       I    between atoms: N_18  and  C_19 
REMARK    8  A    between atoms: C_19  and  C_20 
REMARK    9  A    between atoms: C_23  and  O_24 
ROOT
HETATM    1  C   UNL     1      40.988 -12.442   5.549  1.00  0.00     0.179 C 
ENDROOT
BRANCH   1   2
HETATM    2  C   UNL     1      39.521 -12.232   5.958  1.00  0.00     0.045 C 
BRANCH   2   3
HETATM    3  C   UNL     1      38.792 -11.106   5.225  1.00  0.00     0.076 C 
BRANCH   3   4
HETATM    4  S   UNL     1      39.092  -9.473   5.977  1.00  0.00    -0.173 SA
HETATM    5  C   UNL     1      37.980  -8.489   4.943  1.00  0.00     0.089 C 
ENDBRANCH   3   4
ENDBRANCH   2   3
ENDBRANCH   1   2
BRANCH   1   6
HETATM    6  N   UNL     1      41.967 -11.747   6.396  1.00  0.00    -0.344 N 
HETATM    7  C   UNL     1      43.078 -11.082   5.943  1.00  0.00     0.254 C 
HETATM    8  O   UNL     1      43.328 -10.988   4.745  1.00  0.00    -0.268 OA
HETATM    9  H   UNL     1      41.770 -11.742   7.391  1.00  0.00     0.163 HD
BRANCH   7  10
HETATM   10  C   UNL     1      44.010 -10.493   6.947  1.00  0.00     0.053 A 
HETATM   11  C   UNL     1      43.692  -9.479   7.863  1.00  0.00     0.049 A 
HETATM   12 CL   UNL     1      42.151  -8.698   7.941  1.00  0.00    -0.083 Cl
HETATM   13  C   UNL     1      44.663  -9.020   8.765  1.00  0.00     0.025 A 
HETATM   14  C   UNL     1      45.950  -9.557   8.761  1.00  0.00     0.002 A 
HETATM   15  C   UNL     1      46.279 -10.552   7.847  1.00  0.00     0.001 A 
HETATM   16  C   UNL     1      45.319 -11.014   6.947  1.00  0.00     0.019 A 
ENDBRANCH   7  10
ENDBRANCH   1   6
BRANCH   1  17
HETATM   17  C   UNL     1      41.276 -13.950   5.389  1.00  0.00     0.259 C 
HETATM   18  N   UNL     1      42.471 -14.280   4.790  1.00  0.00    -0.265 N 
HETATM   19  H   UNL     1      43.155 -13.581   4.482  1.00  0.00     0.190 HD
HETATM   20  O   UNL     1      40.551 -14.812   5.896  1.00  0.00    -0.269 OA
BRANCH  18  21
HETATM   21  N   UNL     1      42.828 -15.628   4.708  1.00  0.00    -0.263 N 
HETATM   22  C   UNL     1      43.196 -16.139   3.478  1.00  0.00     0.270 C 
HETATM   23  O   UNL     1      43.301 -15.446   2.469  1.00  0.00    -0.266 OA
HETATM   24  H   UNL     1      42.508 -16.209   5.479  1.00  0.00     0.190 HD
BRANCH  22  25
HETATM   25  C   UNL     1      43.450 -17.608   3.415  1.00  0.00     0.033 A 
HETATM   26  C   UNL     1      43.162 -18.376   2.276  1.00  0.00     0.020 A 
HETATM   27  C   UNL     1      43.401 -19.755   2.278  1.00  0.00     0.037 A 
HETATM   28  C   UNL     1      43.918 -20.361   3.418  1.00  0.00     0.065 A 
HETATM   29  C   UNL     1      44.200 -19.616   4.556  1.00  0.00     0.037 A 
HETATM   30  C   UNL     1      43.963 -18.240   4.557  1.00  0.00     0.020 A 
BRANCH  28  31
HETATM   31  O   UNL     1      44.158 -21.702   3.462  1.00  0.00    -0.361 OA
HETATM   32  H   UNL     1      45.109 -21.848   3.591  1.00  0.00     0.217 HD
ENDBRANCH  28  31
ENDBRANCH  22  25
ENDBRANCH  18  21
ENDBRANCH   1  17
TORSDOF 9
ENDMDL
MODEL 5
REMARK VINA RESULT:      -7.9      1.631      2.129
REMARK  9 active torsions:
REMARK  status: ('A' for Active; 'I' for Inactive)
REMARK    1  A    between atoms: S_2  and  C_3 
REMARK    2  A    between atoms: C_3  and  C_4 
REMARK    3  A    between atoms: C_4  and  C_5 
REMARK    4  A    between atoms: C_5  and  N_6 
REMARK    5  A    between atoms: C_5  and  C_16 
REMARK       I    between atoms: N_6  and  C_7 
REMARK    6  A    between atoms: C_7  and  C_8 
REMARK       I    between atoms: C_16  and  N_17 
REMARK    7  A    between atoms: N_17  and  N_18 
REMARK       I    between atoms: N_18  and  C_19 
REMARK    8  A    between atoms: C_19  and  C_20 
REMARK    9  A    between atoms: C_23  and  O_24 
ROOT
HETATM    1  C   UNL     1      43.075 -13.542   3.358  1.00  0.00     0.179 C 
ENDROOT
BRANCH   1   2
HETATM    2  C   UNL     1      42.758 -13.037   4.775  1.00  0.00     0.045 C 
BRANCH   2   3
HETATM    3  C   UNL     1      43.611 -11.865   5.260  1.00  0.00     0.076 C 
BRANCH   3   4
HETATM    4  S   UNL     1      44.431 -12.209   6.851  1.00  0.00    -0.173 SA
HETATM    5  C   UNL     1      45.881 -11.146   6.646  1.00  0.00     0.089 C 
ENDBRANCH   3   4
ENDBRANCH   2   3
ENDBRANCH   1   2
BRANCH   1   6
HETATM    6  N   UNL     1      43.397 -14.973   3.275  1.00  0.00    -0.344 N 
HETATM    7  C   UNL     1      42.523 -15.999   3.525  1.00  0.00     0.254 C 
HETATM    8  O   UNL     1      41.349 -15.787   3.816  1.00  0.00    -0.268 OA
HETATM    9  H   UNL     1      44.339 -15.200   2.976  1.00  0.00     0.163 HD
BRANCH   7  10
HETATM   10  C   UNL     1      43.035 -17.398   3.467  1.00  0.00     0.053 A 
HETATM   11  C   UNL     1      43.790 -18.036   4.463  1.00  0.00     0.049 A 
HETATM   12 CL   UNL     1      44.299 -17.268   5.926  1.00  0.00    -0.083 Cl
HETATM   13  C   UNL     1      44.202 -19.365   4.288  1.00  0.00     0.025 A 
HETATM   14  C   UNL     1      43.875 -20.064   3.127  1.00  0.00     0.002 A 
HETATM   15  C   UNL     1      43.140 -19.437   2.127  1.00  0.00     0.001 A 
HETATM   16  C   UNL     1      42.727 -18.115   2.294  1.00  0.00     0.019 A 
ENDBRANCH   7  10
ENDBRANCH   1   6
BRANCH   1  17
HETATM   17  C   UNL     1      41.960 -13.106   2.385  1.00  0.00     0.259 C 
HETATM   18  N   UNL     1      42.075 -13.556   1.089  1.00  0.00    -0.265 N 
HETATM   19  H   UNL     1      42.837 -14.165   0.773  1.00  0.00     0.190 HD
HETATM   20  O   UNL     1      40.948 -12.512   2.772  1.00  0.00    -0.269 OA
BRANCH  18  21
HETATM   21  N   UNL     1      41.044 -13.274   0.188  1.00  0.00    -0.263 N 
HETATM   22  C   UNL     1      40.101 -14.252  -0.061  1.00  0.00     0.270 C 
HETATM   23  O   UNL     1      40.078 -15.328   0.530  1.00  0.00    -0.266 OA
HETATM   24  H   UNL     1      41.222 -12.496  -0.444  1.00  0.00     0.190 HD
BRANCH  22  25
HETATM   25  C   UNL     1      39.092 -13.950  -1.119  1.00  0.00     0.033 A 
HETATM   26  C   UNL     1      38.891 -14.784  -2.230  1.00  0.00     0.020 A 
HETATM   27  C   UNL     1      37.945 -14.443  -3.204  1.00  0.00     0.037 A 
HETATM   28  C   UNL     1      37.213 -13.268  -3.069  1.00  0.00     0.065 A 
HETATM   29  C   UNL     1      37.407 -12.429  -1.980  1.00  0.00     0.037 A 
HETATM   30  C   UNL     1      38.348 -12.767  -1.006  1.00  0.00     0.020 A 
BRANCH  28  31
HETATM   31  O   UNL     1      36.288 -12.898  -4.000  1.00  0.00    -0.361 OA
HETATM   32  H   UNL     1      35.444 -12.723  -3.553  1.00  0.00     0.217 HD
ENDBRANCH  28  31
ENDBRANCH  22  25
ENDBRANCH  18  21
ENDBRANCH   1  17
TORSDOF 9
ENDMDL
MODEL 6
REMARK VINA RESULT:      -7.7      4.468      8.074
REMARK  9 active torsions:
REMARK  status: ('A' for Active; 'I' for Inactive)
REMARK    1  A    between atoms: S_2  and  C_3 
REMARK    2  A    between atoms: C_3  and  C_4 
REMARK    3  A    between atoms: C_4  and  C_5 
REMARK    4  A    between atoms: C_5  and  N_6 
REMARK    5  A    between atoms: C_5  and  C_16 
REMARK       I    between atoms: N_6  and  C_7 
REMARK    6  A    between atoms: C_7  and  C_8 
REMARK       I    between atoms: C_16  and  N_17 
REMARK    7  A    between atoms: N_17  and  N_18 
REMARK       I    between atoms: N_18  and  C_19 
REMARK    8  A    between atoms: C_19  and  C_20 
REMARK    9  A    between atoms: C_23  and  O_24 
ROOT
HETATM    1  C   UNL     1      40.476 -13.804   4.307  1.00  0.00     0.179 C 
ENDROOT
BRANCH   1   2
HETATM    2  C   UNL     1      40.694 -12.836   3.131  1.00  0.00     0.045 C 
BRANCH   2   3
HETATM    3  C   UNL     1      39.819 -13.089   1.903  1.00  0.00     0.076 C 
BRANCH   3   4
HETATM    4  S   UNL     1      40.689 -14.032   0.609  1.00  0.00    -0.173 SA
HETATM    5  C   UNL     1      39.954 -15.657   0.916  1.00  0.00     0.089 C 
ENDBRANCH   3   4
ENDBRANCH   2   3
ENDBRANCH   1   2
BRANCH   1   6
HETATM    6  N   UNL     1      41.198 -15.078   4.194  1.00  0.00    -0.344 N 
HETATM    7  C   UNL     1      42.524 -15.213   3.872  1.00  0.00     0.254 C 
HETATM    8  O   UNL     1      43.242 -14.236   3.680  1.00  0.00    -0.268 OA
HETATM    9  H   UNL     1      40.663 -15.913   4.406  1.00  0.00     0.163 HD
BRANCH   7  10
HETATM   10  C   UNL     1      43.083 -16.588   3.727  1.00  0.00     0.053 A 
HETATM   11  C   UNL     1      43.934 -17.227   4.640  1.00  0.00     0.049 A 
HETATM   12 CL   UNL     1      44.525 -16.488   6.087  1.00  0.00    -0.083 Cl
HETATM   13  C   UNL     1      44.380 -18.533   4.387  1.00  0.00     0.025 A 
HETATM   14  C   UNL     1      43.992 -19.206   3.230  1.00  0.00     0.002 A 
HETATM   15  C   UNL     1      43.160 -18.576   2.310  1.00  0.00     0.001 A 
HETATM   16  C   UNL     1      42.712 -17.277   2.555  1.00  0.00     0.019 A 
ENDBRANCH   7  10
ENDBRANCH   1   6
BRANCH   1  17
HETATM   17  C   UNL     1      40.727 -13.071   5.641  1.00  0.00     0.259 C 
HETATM   18  N   UNL     1      41.819 -12.233   5.677  1.00  0.00    -0.265 N 
HETATM   19  H   UNL     1      42.430 -12.072   4.868  1.00  0.00     0.190 HD
HETATM   20  O   UNL     1      39.921 -13.116   6.576  1.00  0.00    -0.269 OA
BRANCH  18  21
HETATM   21  N   UNL     1      42.040 -11.469   6.826  1.00  0.00    -0.263 N 
HETATM   22  C   UNL     1      43.327 -11.050   7.102  1.00  0.00     0.270 C 
HETATM   23  O   UNL     1      44.273 -11.247   6.345  1.00  0.00    -0.266 OA
HETATM   24  H   UNL     1      41.309 -11.528   7.532  1.00  0.00     0.190 HD
BRANCH  22  25
HETATM   25  C   UNL     1      43.533 -10.343   8.400  1.00  0.00     0.033 A 
HETATM   26  C   UNL     1      44.727 -10.442   9.132  1.00  0.00     0.020 A 
HETATM   27  C   UNL     1      44.860  -9.775  10.356  1.00  0.00     0.037 A 
HETATM   28  C   UNL     1      43.800  -9.020  10.846  1.00  0.00     0.065 A 
HETATM   29  C   UNL     1      42.609  -8.920  10.137  1.00  0.00     0.037 A 
HETATM   30  C   UNL     1      42.474  -9.583   8.916  1.00  0.00     0.020 A 
BRANCH  28  31
HETATM   31  O   UNL     1      43.888  -8.361  12.036  1.00  0.00    -0.361 OA
HETATM   32  H   UNL     1      44.628  -7.735  11.995  1.00  0.00     0.217 HD
ENDBRANCH  28  31
ENDBRANCH  22  25
ENDBRANCH  18  21
ENDBRANCH   1  17
TORSDOF 9
ENDMDL
MODEL 7
REMARK VINA RESULT:      -7.6      3.233      8.259
REMARK  9 active torsions:
REMARK  status: ('A' for Active; 'I' for Inactive)
REMARK    1  A    between atoms: S_2  and  C_3 
REMARK    2  A    between atoms: C_3  and  C_4 
REMARK    3  A    between atoms: C_4  and  C_5 
REMARK    4  A    between atoms: C_5  and  N_6 
REMARK    5  A    between atoms: C_5  and  C_16 
REMARK       I    between atoms: N_6  and  C_7 
REMARK    6  A    between atoms: C_7  and  C_8 
REMARK       I    between atoms: C_16  and  N_17 
REMARK    7  A    between atoms: N_17  and  N_18 
REMARK       I    between atoms: N_18  and  C_19 
REMARK    8  A    between atoms: C_19  and  C_20 
REMARK    9  A    between atoms: C_23  and  O_24 
ROOT
HETATM    1  C   UNL     1      39.644 -12.749   2.841  1.00  0.00     0.179 C 
ENDROOT
BRANCH   1   2
HETATM    2  C   UNL     1      40.557 -11.512   2.859  1.00  0.00     0.045 C 
BRANCH   2   3
HETATM    3  C   UNL     1      39.843 -10.173   3.045  1.00  0.00     0.076 C 
BRANCH   3   4
HETATM    4  S   UNL     1      39.738  -9.217   1.497  1.00  0.00    -0.173 SA
HETATM    5  C   UNL     1      41.331  -9.685   0.779  1.00  0.00     0.089 C 
ENDBRANCH   3   4
ENDBRANCH   2   3
ENDBRANCH   1   2
BRANCH   1   6
HETATM    6  N   UNL     1      39.093 -13.086   1.522  1.00  0.00    -0.344 N 
HETATM    7  C   UNL     1      39.823 -13.235   0.371  1.00  0.00     0.254 C 
HETATM    8  O   UNL     1      41.046 -13.127   0.367  1.00  0.00    -0.268 OA
HETATM    9  H   UNL     1      38.092 -13.248   1.486  1.00  0.00     0.163 HD
BRANCH   7  10
HETATM   10  C   UNL     1      39.095 -13.504  -0.902  1.00  0.00     0.053 A 
HETATM   11  C   UNL     1      38.129 -12.671  -1.485  1.00  0.00     0.049 A 
HETATM   12 CL   UNL     1      37.580 -11.191  -0.780  1.00  0.00    -0.083 Cl
HETATM   13  C   UNL     1      37.525 -13.038  -2.697  1.00  0.00     0.025 A 
HETATM   14  C   UNL     1      37.869 -14.232  -3.331  1.00  0.00     0.002 A 
HETATM   15  C   UNL     1      38.815 -15.072  -2.754  1.00  0.00     0.001 A 
HETATM   16  C   UNL     1      39.420 -14.713  -1.549  1.00  0.00     0.019 A 
ENDBRANCH   7  10
ENDBRANCH   1   6
BRANCH   1  17
HETATM   17  C   UNL     1      40.354 -13.933   3.530  1.00  0.00     0.259 C 
HETATM   18  N   UNL     1      40.546 -15.058   2.759  1.00  0.00    -0.265 N 
HETATM   19  H   UNL     1      40.261 -15.118   1.776  1.00  0.00     0.190 HD
HETATM   20  O   UNL     1      40.852 -13.833   4.656  1.00  0.00    -0.269 OA
BRANCH  18  21
HETATM   21  N   UNL     1      41.269 -16.124   3.299  1.00  0.00    -0.263 N 
HETATM   22  C   UNL     1      42.331 -16.634   2.577  1.00  0.00     0.270 C 
HETATM   23  O   UNL     1      42.719 -16.143   1.520  1.00  0.00    -0.266 OA
HETATM   24  H   UNL     1      40.791 -16.646   4.031  1.00  0.00     0.190 HD
BRANCH  22  25
HETATM   25  C   UNL     1      42.995 -17.848   3.135  1.00  0.00     0.033 A 
HETATM   26  C   UNL     1      43.164 -19.026   2.390  1.00  0.00     0.020 A 
HETATM   27  C   UNL     1      43.777 -20.144   2.970  1.00  0.00     0.037 A 
HETATM   28  C   UNL     1      44.208 -20.083   4.291  1.00  0.00     0.065 A 
HETATM   29  C   UNL     1      44.040 -18.927   5.043  1.00  0.00     0.037 A 
HETATM   30  C   UNL     1      43.431 -17.811   4.468  1.00  0.00     0.020 A 
BRANCH  28  31
HETATM   31  O   UNL     1      44.802 -21.152   4.893  1.00  0.00    -0.361 OA
HETATM   32  H   UNL     1      44.402 -21.284   5.767  1.00  0.00     0.217 HD
ENDBRANCH  28  31
ENDBRANCH  22  25
ENDBRANCH  18  21
ENDBRANCH   1  17
TORSDOF 9
ENDMDL
MODEL 8
REMARK VINA RESULT:      -7.5      4.680      8.330
REMARK  9 active torsions:
REMARK  status: ('A' for Active; 'I' for Inactive)
REMARK    1  A    between atoms: S_2  and  C_3 
REMARK    2  A    between atoms: C_3  and  C_4 
REMARK    3  A    between atoms: C_4  and  C_5 
REMARK    4  A    between atoms: C_5  and  N_6 
REMARK    5  A    between atoms: C_5  and  C_16 
REMARK       I    between atoms: N_6  and  C_7 
REMARK    6  A    between atoms: C_7  and  C_8 
REMARK       I    between atoms: C_16  and  N_17 
REMARK    7  A    between atoms: N_17  and  N_18 
REMARK       I    between atoms: N_18  and  C_19 
REMARK    8  A    between atoms: C_19  and  C_20 
REMARK    9  A    between atoms: C_23  and  O_24 
ROOT
HETATM    1  C   UNL     1      42.343 -13.157   4.020  1.00  0.00     0.179 C 
ENDROOT
BRANCH   1   2
HETATM    2  C   UNL     1      42.990 -12.044   3.179  1.00  0.00     0.045 C 
BRANCH   2   3
HETATM    3  C   UNL     1      42.029 -11.249   2.294  1.00  0.00     0.076 C 
BRANCH   3   4
HETATM    4  S   UNL     1      40.550 -12.208   1.832  1.00  0.00    -0.173 SA
HETATM    5  C   UNL     1      40.979 -12.556   0.109  1.00  0.00     0.089 C 
ENDBRANCH   3   4
ENDBRANCH   2   3
ENDBRANCH   1   2
BRANCH   1   6
HETATM    6  N   UNL     1      42.863 -14.505   3.757  1.00  0.00    -0.344 N 
HETATM    7  C   UNL     1      42.151 -15.670   3.888  1.00  0.00     0.254 C 
HETATM    8  O   UNL     1      40.968 -15.667   4.217  1.00  0.00    -0.268 OA
HETATM    9  H   UNL     1      43.819 -14.556   3.420  1.00  0.00     0.163 HD
BRANCH   7  10
HETATM   10  C   UNL     1      42.856 -16.963   3.652  1.00  0.00     0.053 A 
HETATM   11  C   UNL     1      43.861 -17.509   4.464  1.00  0.00     0.049 A 
HETATM   12 CL   UNL     1      44.491 -16.728   5.872  1.00  0.00    -0.083 Cl
HETATM   13  C   UNL     1      44.436 -18.744   4.133  1.00  0.00     0.025 A 
HETATM   14  C   UNL     1      44.025 -19.440   2.996  1.00  0.00     0.002 A 
HETATM   15  C   UNL     1      43.040 -18.900   2.176  1.00  0.00     0.001 A 
HETATM   16  C   UNL     1      42.463 -17.672   2.499  1.00  0.00     0.019 A 
ENDBRANCH   7  10
ENDBRANCH   1   6
BRANCH   1  17
HETATM   17  C   UNL     1      42.373 -12.768   5.513  1.00  0.00     0.259 C 
HETATM   18  N   UNL     1      43.420 -11.968   5.911  1.00  0.00    -0.265 N 
HETATM   19  H   UNL     1      44.137 -11.620   5.265  1.00  0.00     0.190 HD
HETATM   20  O   UNL     1      41.440 -13.033   6.278  1.00  0.00    -0.269 OA
BRANCH  18  21
HETATM   21  N   UNL     1      43.445 -11.504   7.229  1.00  0.00    -0.263 N 
HETATM   22  C   UNL     1      43.066 -10.199   7.476  1.00  0.00     0.270 C 
HETATM   23  O   UNL     1      42.632  -9.451   6.605  1.00  0.00    -0.266 OA
HETATM   24  H   UNL     1      44.019 -12.049   7.869  1.00  0.00     0.190 HD
BRANCH  22  25
HETATM   25  C   UNL     1      43.225  -9.713   8.878  1.00  0.00     0.033 A 
HETATM   26  C   UNL     1      43.939 -10.431   9.850  1.00  0.00     0.020 A 
HETATM   27  C   UNL     1      44.040  -9.939  11.157  1.00  0.00     0.037 A 
HETATM   28  C   UNL     1      43.422  -8.738  11.488  1.00  0.00     0.065 A 
HETATM   29  C   UNL     1      42.704  -8.021  10.540  1.00  0.00     0.037 A 
HETATM   30  C   UNL     1      42.603  -8.508   9.236  1.00  0.00     0.020 A 
BRANCH  28  31
HETATM   31  O   UNL     1      43.491  -8.229  12.751  1.00  0.00    -0.361 OA
HETATM   32  H   UNL     1      43.870  -7.336  12.711  1.00  0.00     0.217 HD
ENDBRANCH  28  31
ENDBRANCH  22  25
ENDBRANCH  18  21
ENDBRANCH   1  17
TORSDOF 9
ENDMDL
MODEL 9
REMARK VINA RESULT:      -7.4      2.700      8.231
REMARK  9 active torsions:
REMARK  status: ('A' for Active; 'I' for Inactive)
REMARK    1  A    between atoms: S_2  and  C_3 
REMARK    2  A    between atoms: C_3  and  C_4 
REMARK    3  A    between atoms: C_4  and  C_5 
REMARK    4  A    between atoms: C_5  and  N_6 
REMARK    5  A    between atoms: C_5  and  C_16 
REMARK       I    between atoms: N_6  and  C_7 
REMARK    6  A    between atoms: C_7  and  C_8 
REMARK       I    between atoms: C_16  and  N_17 
REMARK    7  A    between atoms: N_17  and  N_18 
REMARK       I    between atoms: N_18  and  C_19 
REMARK    8  A    between atoms: C_19  and  C_20 
REMARK    9  A    between atoms: C_23  and  O_24 
ROOT
HETATM    1  C   UNL     1      40.755 -12.388   3.027  1.00  0.00     0.179 C 
ENDROOT
BRANCH   1   2
HETATM    2  C   UNL     1      42.057 -11.571   2.988  1.00  0.00     0.045 C 
BRANCH   2   3
HETATM    3  C   UNL     1      42.137 -10.417   3.987  1.00  0.00     0.076 C 
BRANCH   3   4
HETATM    4  S   UNL     1      41.289 -10.792   5.556  1.00  0.00    -0.173 SA
HETATM    5  C   UNL     1      42.392  -9.902   6.681  1.00  0.00     0.089 C 
ENDBRANCH   3   4
ENDBRANCH   2   3
ENDBRANCH   1   2
BRANCH   1   6
HETATM    6  N   UNL     1      39.877 -12.198   1.865  1.00  0.00    -0.344 N 
HETATM    7  C   UNL     1      40.177 -12.561   0.576  1.00  0.00     0.254 C 
HETATM    8  O   UNL     1      41.231 -13.125   0.295  1.00  0.00    -0.268 OA
HETATM    9  H   UNL     1      38.967 -11.794   2.056  1.00  0.00     0.163 HD
BRANCH   7  10
HETATM   10  C   UNL     1      39.200 -12.227  -0.500  1.00  0.00     0.053 A 
HETATM   11  C   UNL     1      38.685 -13.125  -1.447  1.00  0.00     0.049 A 
HETATM   12 CL   UNL     1      39.150 -14.787  -1.551  1.00  0.00    -0.083 Cl
HETATM   13  C   UNL     1      37.760 -12.682  -2.403  1.00  0.00     0.025 A 
HETATM   14  C   UNL     1      37.346 -11.350  -2.430  1.00  0.00     0.002 A 
HETATM   15  C   UNL     1      37.862 -10.448  -1.505  1.00  0.00     0.001 A 
HETATM   16  C   UNL     1      38.782 -10.882  -0.551  1.00  0.00     0.019 A 
ENDBRANCH   7  10
ENDBRANCH   1   6
BRANCH   1  17
HETATM   17  C   UNL     1      41.076 -13.869   3.319  1.00  0.00     0.259 C 
HETATM   18  N   UNL     1      42.351 -14.287   3.010  1.00  0.00    -0.265 N 
HETATM   19  H   UNL     1      43.068 -13.661   2.628  1.00  0.00     0.190 HD
HETATM   20  O   UNL     1      40.290 -14.602   3.928  1.00  0.00    -0.269 OA
BRANCH  18  21
HETATM   21  N   UNL     1      42.728 -15.590   3.343  1.00  0.00    -0.263 N 
HETATM   22  C   UNL     1      43.112 -16.445   2.329  1.00  0.00     0.270 C 
HETATM   23  O   UNL     1      43.215 -16.092   1.157  1.00  0.00    -0.266 OA
HETATM   24  H   UNL     1      42.410 -15.914   4.254  1.00  0.00     0.190 HD
BRANCH  22  25
HETATM   25  C   UNL     1      43.387 -17.860   2.717  1.00  0.00     0.033 A 
HETATM   26  C   UNL     1      43.088 -18.945   1.879  1.00  0.00     0.020 A 
HETATM   27  C   UNL     1      43.348 -20.254   2.302  1.00  0.00     0.037 A 
HETATM   28  C   UNL     1      43.896 -20.473   3.561  1.00  0.00     0.065 A 
HETATM   29  C   UNL     1      44.188 -19.410   4.406  1.00  0.00     0.037 A 
HETATM   30  C   UNL     1      43.932 -18.103   3.987  1.00  0.00     0.020 A 
BRANCH  28  31
HETATM   31  O   UNL     1      44.157 -21.733   4.012  1.00  0.00    -0.361 OA
HETATM   32  H   UNL     1      45.087 -21.783   4.288  1.00  0.00     0.217 HD
ENDBRANCH  28  31
ENDBRANCH  22  25
ENDBRANCH  18  21
ENDBRANCH   1  17
TORSDOF 9
ENDMDL
MODEL 10
REMARK VINA RESULT:      -7.2      2.660      5.004
REMARK  9 active torsions:
REMARK  status: ('A' for Active; 'I' for Inactive)
REMARK    1  A    between atoms: S_2  and  C_3 
REMARK    2  A    between atoms: C_3  and  C_4 
REMARK    3  A    between atoms: C_4  and  C_5 
REMARK    4  A    between atoms: C_5  and  N_6 
REMARK    5  A    between atoms: C_5  and  C_16 
REMARK       I    between atoms: N_6  and  C_7 
REMARK    6  A    between atoms: C_7  and  C_8 
REMARK       I    between atoms: C_16  and  N_17 
REMARK    7  A    between atoms: N_17  and  N_18 
REMARK       I    between atoms: N_18  and  C_19 
REMARK    8  A    between atoms: C_19  and  C_20 
REMARK    9  A    between atoms: C_23  and  O_24 
ROOT
HETATM    1  C   UNL     1      42.297 -15.796   3.979  1.00  0.00     0.179 C 
ENDROOT
BRANCH   1   2
HETATM    2  C   UNL     1      43.402 -16.685   3.385  1.00  0.00     0.045 C 
BRANCH   2   3
HETATM    3  C   UNL     1      43.617 -18.024   4.090  1.00  0.00     0.076 C 
BRANCH   3   4
HETATM    4  S   UNL     1      43.879 -19.396   2.920  1.00  0.00    -0.173 SA
HETATM    5  C   UNL     1      43.931 -20.761   4.107  1.00  0.00     0.089 C 
ENDBRANCH   3   4
ENDBRANCH   2   3
ENDBRANCH   1   2
BRANCH   1   6
HETATM    6  N   UNL     1      42.775 -14.548   4.587  1.00  0.00    -0.344 N 
HETATM    7  C   UNL     1      42.613 -14.192   5.902  1.00  0.00     0.254 C 
HETATM    8  O   UNL     1      42.063 -14.938   6.707  1.00  0.00    -0.268 OA
HETATM    9  H   UNL     1      43.293 -13.925   3.977  1.00  0.00     0.163 HD
BRANCH   7  10
HETATM   10  C   UNL     1      43.096 -12.850   6.338  1.00  0.00     0.053 A 
HETATM   11  C   UNL     1      42.343 -11.667   6.331  1.00  0.00     0.049 A 
HETATM   12 CL   UNL     1      40.716 -11.562   5.754  1.00  0.00    -0.083 Cl
HETATM   13  C   UNL     1      42.916 -10.468   6.781  1.00  0.00     0.025 A 
HETATM   14  C   UNL     1      44.235 -10.435   7.232  1.00  0.00     0.002 A 
HETATM   15  C   UNL     1      44.995 -11.600   7.230  1.00  0.00     0.001 A 
HETATM   16  C   UNL     1      44.431 -12.796   6.784  1.00  0.00     0.019 A 
ENDBRANCH   7  10
ENDBRANCH   1   6
BRANCH   1  17
HETATM   17  C   UNL     1      41.180 -15.584   2.936  1.00  0.00     0.259 C 
HETATM   18  N   UNL     1      41.572 -15.061   1.724  1.00  0.00    -0.265 N 
HETATM   19  H   UNL     1      42.548 -14.841   1.498  1.00  0.00     0.190 HD
HETATM   20  O   UNL     1      40.028 -15.990   3.119  1.00  0.00    -0.269 OA
BRANCH  18  21
HETATM   21  N   UNL     1      40.620 -14.938   0.709  1.00  0.00    -0.263 N 
HETATM   22  C   UNL     1      40.524 -13.735   0.037  1.00  0.00     0.270 C 
HETATM   23  O   UNL     1      41.289 -12.794   0.235  1.00  0.00    -0.266 OA
HETATM   24  H   UNL     1      39.869 -15.624   0.734  1.00  0.00     0.190 HD
BRANCH  22  25
HETATM   25  C   UNL     1      39.414 -13.611  -0.953  1.00  0.00     0.033 A 
HETATM   26  C   UNL     1      39.193 -14.561  -1.962  1.00  0.00     0.020 A 
HETATM   27  C   UNL     1      38.148 -14.385  -2.878  1.00  0.00     0.037 A 
HETATM   28  C   UNL     1      37.337 -13.258  -2.787  1.00  0.00     0.065 A 
HETATM   29  C   UNL     1      37.550 -12.306  -1.799  1.00  0.00     0.037 A 
HETATM   30  C   UNL     1      38.589 -12.479  -0.883  1.00  0.00     0.020 A 
BRANCH  28  31
HETATM   31  O   UNL     1      36.315 -13.048  -3.664  1.00  0.00    -0.361 OA
HETATM   32  H   UNL     1      36.048 -12.115  -3.617  1.00  0.00     0.217 HD
ENDBRANCH  28  31
ENDBRANCH  22  25
ENDBRANCH  18  21
ENDBRANCH   1  17
TORSDOF 9
ENDMDL
