MODEL 1
REMARK VINA RESULT:      -9.1      0.000      0.000
REMARK  8 active torsions:
REMARK  status: ('A' for Active; 'I' for Inactive)
REMARK    1  A    between atoms: C_2  and  N_3 
REMARK       I    between atoms: N_3  and  C_4 
REMARK       I    between atoms: C_4  and  N_5 
REMARK       I    between atoms: N_5  and  C_6 
REMARK    2  A    between atoms: C_6  and  C_7 
REMARK    3  A    between atoms: C_7  and  S_8 
REMARK    4  A    between atoms: C_7  and  C_29 
REMARK    5  A    between atoms: S_8  and  C_9 
REMARK    6  A    between atoms: N_10  and  C_11 
REMARK    7  A    between atoms: C_18  and  C_19 
REMARK    8  A    between atoms: C_19  and  N_20 
ROOT
HETATM    1  C   UNL     1      42.461 -11.913   3.393  1.00  0.00     0.197 A 
HETATM    2  N   UNL     1      42.678 -12.556   4.601  1.00  0.00    -0.274 N 
HETATM    3  C   UNL     1      43.860 -11.983   5.055  1.00  0.00     0.161 A 
HETATM    4  N   UNL     1      44.318 -11.124   4.162  1.00  0.00    -0.132 NA
HETATM    5  N   UNL     1      43.446 -11.090   3.125  1.00  0.00    -0.122 NA
ENDROOT
BRANCH   1   6
HETATM    6  S   UNL     1      40.987 -11.921   2.488  1.00  0.00    -0.071 SA
BRANCH   6   7
HETATM    7  C   UNL     1      41.414 -13.026   1.079  1.00  0.00     0.175 C 
BRANCH   7   8
HETATM    8  C   UNL     1      40.444 -12.857  -0.107  1.00  0.00     0.224 C 
HETATM    9  N   UNL     1      41.007 -12.519  -1.326  1.00  0.00    -0.178 NA
HETATM   10  C   UNL     1      40.518 -13.091  -2.452  1.00  0.00     0.300 C 
HETATM   11  H   UNL     1      42.004 -12.703  -1.327  1.00  0.00     0.141 HD
HETATM   12  N   UNL     1      39.337 -12.665  -2.951  1.00  0.00    -0.348 N 
HETATM   13  O   UNL     1      41.177 -13.944  -3.041  1.00  0.00    -0.254 OA
HETATM   14  H   UNL     1      39.086 -13.125  -3.817  1.00  0.00     0.163 HD
HETATM   15  O   UNL     1      39.228 -12.844   0.097  1.00  0.00    -0.278 OA
BRANCH  12  16
HETATM   16  C   UNL     1      38.597 -11.467  -2.598  1.00  0.00     0.119 C 
HETATM   17  C   UNL     1      37.105 -11.734  -2.565  1.00  0.00     0.026 C 
ENDBRANCH  12  16
ENDBRANCH   7   8
BRANCH   7  18
HETATM   18  C   UNL     1      41.720 -14.466   1.495  1.00  0.00    -0.035 A 
HETATM   19  C   UNL     1      40.721 -15.385   1.856  1.00  0.00     0.009 A 
HETATM   20  C   UNL     1      41.045 -16.699   2.209  1.00  0.00     0.001 A 
HETATM   21  C   UNL     1      42.372 -17.116   2.216  1.00  0.00     0.000 A 
HETATM   22  C   UNL     1      43.379 -16.222   1.865  1.00  0.00     0.001 A 
HETATM   23  C   UNL     1      43.057 -14.911   1.502  1.00  0.00     0.009 A 
ENDBRANCH   7  18
ENDBRANCH   6   7
ENDBRANCH   1   6
BRANCH   2  24
HETATM   24  C   UNL     1      41.898 -13.566   5.219  1.00  0.00     0.043 A 
HETATM   25  C   UNL     1      40.691 -13.222   5.848  1.00  0.00     0.033 A 
HETATM   26  C   UNL     1      39.902 -14.215   6.434  1.00  0.00     0.044 A 
HETATM   27  C   UNL     1      40.323 -15.537   6.400  1.00  0.00     0.116 A 
HETATM   28  F   UNL     1      39.565 -16.488   6.961  1.00  0.00    -0.206 F 
HETATM   29  C   UNL     1      41.524 -15.887   5.797  1.00  0.00     0.044 A 
HETATM   30  C   UNL     1      42.320 -14.902   5.208  1.00  0.00     0.033 A 
ENDBRANCH   2  24
BRANCH   3  31
HETATM   31  C   UNL     1      44.639 -12.312   6.276  1.00  0.00     0.315 C 
BRANCH  31  32
HETATM   32  N   UNL     1      44.834 -11.046   7.107  1.00  0.00    -0.064 N 
HETATM   33  H   UNL     1      44.452 -10.297   6.501  1.00  0.00     0.280 HD
HETATM   34  C   UNL     1      43.988 -11.047   8.359  1.00  0.00     0.235 C 
HETATM   35  C   UNL     1      44.062  -9.678   9.019  1.00  0.00     0.028 C 
HETATM   36  C   UNL     1      45.504  -9.273   9.302  1.00  0.00     0.003 C 
HETATM   37  C   UNL     1      46.361  -9.351   8.043  1.00  0.00     0.028 C 
HETATM   38  C   UNL     1      46.274 -10.718   7.377  1.00  0.00     0.235 C 
ENDBRANCH  31  32
ENDBRANCH   3  31
TORSDOF 8
ENDMDL
MODEL 2
REMARK VINA RESULT:      -8.9      2.776      8.178
REMARK  8 active torsions:
REMARK  status: ('A' for Active; 'I' for Inactive)
REMARK    1  A    between atoms: C_2  and  N_3 
REMARK       I    between atoms: N_3  and  C_4 
REMARK       I    between atoms: C_4  and  N_5 
REMARK       I    between atoms: N_5  and  C_6 
REMARK    2  A    between atoms: C_6  and  C_7 
REMARK    3  A    between atoms: C_7  and  S_8 
REMARK    4  A    between atoms: C_7  and  C_29 
REMARK    5  A    between atoms: S_8  and  C_9 
REMARK    6  A    between atoms: N_10  and  C_11 
REMARK    7  A    between atoms: C_18  and  C_19 
REMARK    8  A    between atoms: C_19  and  N_20 
ROOT
HETATM    1  C   UNL     1      42.422 -11.923   2.469  1.00  0.00     0.197 A 
HETATM    2  N   UNL     1      41.954 -12.969   1.692  1.00  0.00    -0.274 N 
HETATM    3  C   UNL     1      41.311 -12.320   0.644  1.00  0.00     0.161 A 
HETATM    4  N   UNL     1      41.355 -11.012   0.828  1.00  0.00    -0.132 NA
HETATM    5  N   UNL     1      42.042 -10.770   1.970  1.00  0.00    -0.122 NA
ENDROOT
BRANCH   1   6
HETATM    6  S   UNL     1      43.595 -12.043   3.735  1.00  0.00    -0.071 SA
BRANCH   6   7
HETATM    7  C   UNL     1      42.526 -12.186   5.228  1.00  0.00     0.175 C 
BRANCH   7   8
HETATM    8  C   UNL     1      43.030 -11.307   6.390  1.00  0.00     0.224 C 
HETATM    9  N   UNL     1      44.050 -11.831   7.166  1.00  0.00    -0.178 NA
HETATM   10  C   UNL     1      45.038 -11.007   7.588  1.00  0.00     0.300 C 
HETATM   11  H   UNL     1      44.508 -12.600   6.689  1.00  0.00     0.141 HD
HETATM   12  N   UNL     1      44.794 -10.146   8.601  1.00  0.00    -0.348 N 
HETATM   13  O   UNL     1      46.159 -11.091   7.091  1.00  0.00    -0.254 OA
HETATM   14  H   UNL     1      45.612  -9.610   8.867  1.00  0.00     0.163 HD
HETATM   15  O   UNL     1      42.409 -10.286   6.696  1.00  0.00    -0.278 OA
BRANCH  12  16
HETATM   16  C   UNL     1      43.668 -10.139   9.517  1.00  0.00     0.119 C 
HETATM   17  C   UNL     1      44.121 -10.380  10.943  1.00  0.00     0.026 C 
ENDBRANCH  12  16
ENDBRANCH   7   8
BRANCH   7  18
HETATM   18  C   UNL     1      42.158 -13.627   5.588  1.00  0.00    -0.035 A 
HETATM   19  C   UNL     1      40.883 -13.999   6.042  1.00  0.00     0.009 A 
HETATM   20  C   UNL     1      40.585 -15.333   6.339  1.00  0.00     0.001 A 
HETATM   21  C   UNL     1      41.559 -16.317   6.196  1.00  0.00     0.000 A 
HETATM   22  C   UNL     1      42.831 -15.971   5.751  1.00  0.00     0.001 A 
HETATM   23  C   UNL     1      43.127 -14.640   5.444  1.00  0.00     0.009 A 
ENDBRANCH   7  18
ENDBRANCH   6   7
ENDBRANCH   1   6
BRANCH   2  24
HETATM   24  C   UNL     1      42.079 -14.363   1.915  1.00  0.00     0.043 A 
HETATM   25  C   UNL     1      40.971 -15.095   2.370  1.00  0.00     0.033 A 
HETATM   26  C   UNL     1      41.078 -16.474   2.566  1.00  0.00     0.044 A 
HETATM   27  C   UNL     1      42.286 -17.112   2.319  1.00  0.00     0.116 A 
HETATM   28  F   UNL     1      42.387 -18.434   2.505  1.00  0.00    -0.206 F 
HETATM   29  C   UNL     1      43.395 -16.396   1.886  1.00  0.00     0.044 A 
HETATM   30  C   UNL     1      43.299 -15.017   1.687  1.00  0.00     0.033 A 
ENDBRANCH   2  24
BRANCH   3  31
HETATM   31  C   UNL     1      40.549 -12.913  -0.485  1.00  0.00     0.315 C 
BRANCH  31  32
HETATM   32  N   UNL     1      39.726 -11.823  -1.167  1.00  0.00    -0.064 N 
HETATM   33  H   UNL     1      40.030 -10.955  -0.689  1.00  0.00     0.280 HD
HETATM   34  C   UNL     1      40.095 -11.654  -2.622  1.00  0.00     0.235 C 
HETATM   35  C   UNL     1      39.403 -10.418  -3.178  1.00  0.00     0.028 C 
HETATM   36  C   UNL     1      37.894 -10.486  -2.974  1.00  0.00     0.003 C 
HETATM   37  C   UNL     1      37.541 -10.733  -1.511  1.00  0.00     0.028 C 
HETATM   38  C   UNL     1      38.247 -11.963  -0.954  1.00  0.00     0.235 C 
ENDBRANCH  31  32
ENDBRANCH   3  31
TORSDOF 8
ENDMDL
MODEL 3
REMARK VINA RESULT:      -8.8      2.623      3.951
REMARK  8 active torsions:
REMARK  status: ('A' for Active; 'I' for Inactive)
REMARK    1  A    between atoms: C_2  and  N_3 
REMARK       I    between atoms: N_3  and  C_4 
REMARK       I    between atoms: C_4  and  N_5 
REMARK       I    between atoms: N_5  and  C_6 
REMARK    2  A    between atoms: C_6  and  C_7 
REMARK    3  A    between atoms: C_7  and  S_8 
REMARK    4  A    between atoms: C_7  and  C_29 
REMARK    5  A    between atoms: S_8  and  C_9 
REMARK    6  A    between atoms: N_10  and  C_11 
REMARK    7  A    between atoms: C_18  and  C_19 
REMARK    8  A    between atoms: C_19  and  N_20 
ROOT
HETATM    1  C   UNL     1      42.285 -13.956   6.147  1.00  0.00     0.197 A 
HETATM    2  N   UNL     1      42.574 -12.628   5.877  1.00  0.00    -0.274 N 
HETATM    3  C   UNL     1      43.653 -12.365   6.712  1.00  0.00     0.161 A 
HETATM    4  N   UNL     1      43.930 -13.431   7.442  1.00  0.00    -0.132 NA
HETATM    5  N   UNL     1      43.070 -14.417   7.091  1.00  0.00    -0.122 NA
ENDROOT
BRANCH   1   6
HETATM    6  S   UNL     1      41.271 -14.988   5.198  1.00  0.00    -0.071 SA
BRANCH   6   7
HETATM    7  C   UNL     1      42.283 -15.216   3.676  1.00  0.00     0.175 C 
BRANCH   7   8
HETATM    8  C   UNL     1      41.593 -14.632   2.427  1.00  0.00     0.224 C 
HETATM    9  N   UNL     1      40.213 -14.729   2.379  1.00  0.00    -0.178 NA
HETATM   10  C   UNL     1      39.502 -13.687   1.888  1.00  0.00     0.300 C 
HETATM   11  H   UNL     1      39.832 -14.921   3.299  1.00  0.00     0.141 HD
HETATM   12  N   UNL     1      39.471 -13.478   0.552  1.00  0.00    -0.348 N 
HETATM   13  O   UNL     1      38.846 -12.980   2.649  1.00  0.00    -0.254 OA
HETATM   14  H   UNL     1      38.875 -12.701   0.289  1.00  0.00     0.163 HD
HETATM   15  O   UNL     1      42.275 -14.279   1.462  1.00  0.00    -0.278 OA
BRANCH  12  16
HETATM   16  C   UNL     1      39.891 -14.380  -0.504  1.00  0.00     0.119 C 
HETATM   17  C   UNL     1      39.019 -14.225  -1.735  1.00  0.00     0.026 C 
ENDBRANCH  12  16
ENDBRANCH   7   8
BRANCH   7  18
HETATM   18  C   UNL     1      42.861 -16.624   3.525  1.00  0.00    -0.035 A 
HETATM   19  C   UNL     1      42.546 -17.468   2.448  1.00  0.00     0.009 A 
HETATM   20  C   UNL     1      43.116 -18.740   2.340  1.00  0.00     0.001 A 
HETATM   21  C   UNL     1      44.004 -19.196   3.310  1.00  0.00     0.000 A 
HETATM   22  C   UNL     1      44.328 -18.378   4.388  1.00  0.00     0.001 A 
HETATM   23  C   UNL     1      43.768 -17.102   4.493  1.00  0.00     0.009 A 
ENDBRANCH   7  18
ENDBRANCH   6   7
ENDBRANCH   1   6
BRANCH   2  24
HETATM   24  C   UNL     1      41.920 -11.744   4.983  1.00  0.00     0.043 A 
HETATM   25  C   UNL     1      42.490 -11.480   3.727  1.00  0.00     0.033 A 
HETATM   26  C   UNL     1      41.837 -10.632   2.829  1.00  0.00     0.044 A 
HETATM   27  C   UNL     1      40.631 -10.046   3.188  1.00  0.00     0.116 A 
HETATM   28  F   UNL     1      40.005  -9.235   2.326  1.00  0.00    -0.206 F 
HETATM   29  C   UNL     1      40.066 -10.285   4.435  1.00  0.00     0.044 A 
HETATM   30  C   UNL     1      40.710 -11.131   5.341  1.00  0.00     0.033 A 
ENDBRANCH   2  24
BRANCH   3  31
HETATM   31  C   UNL     1      44.370 -11.081   6.922  1.00  0.00     0.315 C 
BRANCH  31  32
HETATM   32  N   UNL     1      44.179 -10.626   8.367  1.00  0.00    -0.064 N 
HETATM   33  H   UNL     1      44.001 -11.510   8.877  1.00  0.00     0.280 HD
HETATM   34  C   UNL     1      45.444 -10.046   8.956  1.00  0.00     0.235 C 
HETATM   35  C   UNL     1      45.248  -9.820  10.447  1.00  0.00     0.028 C 
HETATM   36  C   UNL     1      44.033  -8.941  10.723  1.00  0.00     0.003 C 
HETATM   37  C   UNL     1      42.780  -9.500  10.057  1.00  0.00     0.028 C 
HETATM   38  C   UNL     1      42.985  -9.739   8.566  1.00  0.00     0.235 C 
ENDBRANCH  31  32
ENDBRANCH   3  31
TORSDOF 8
ENDMDL
MODEL 4
REMARK VINA RESULT:      -8.7      1.561      2.123
REMARK  8 active torsions:
REMARK  status: ('A' for Active; 'I' for Inactive)
REMARK    1  A    between atoms: C_2  and  N_3 
REMARK       I    between atoms: N_3  and  C_4 
REMARK       I    between atoms: C_4  and  N_5 
REMARK       I    between atoms: N_5  and  C_6 
REMARK    2  A    between atoms: C_6  and  C_7 
REMARK    3  A    between atoms: C_7  and  S_8 
REMARK    4  A    between atoms: C_7  and  C_29 
REMARK    5  A    between atoms: S_8  and  C_9 
REMARK    6  A    between atoms: N_10  and  C_11 
REMARK    7  A    between atoms: C_18  and  C_19 
REMARK    8  A    between atoms: C_19  and  N_20 
ROOT
HETATM    1  C   UNL     1      40.535 -11.797   4.222  1.00  0.00     0.197 A 
HETATM    2  N   UNL     1      41.157 -12.323   5.342  1.00  0.00    -0.274 N 
HETATM    3  C   UNL     1      41.453 -11.194   6.097  1.00  0.00     0.161 A 
HETATM    4  N   UNL     1      41.085 -10.105   5.445  1.00  0.00    -0.132 NA
HETATM    5  N   UNL     1      40.520 -10.486   4.274  1.00  0.00    -0.122 NA
ENDROOT
BRANCH   1   6
HETATM    6  S   UNL     1      39.622 -12.688   3.054  1.00  0.00    -0.071 SA
BRANCH   6   7
HETATM    7  C   UNL     1      40.901 -13.072   1.786  1.00  0.00     0.175 C 
BRANCH   7   8
HETATM    8  C   UNL     1      40.425 -12.733   0.359  1.00  0.00     0.224 C 
HETATM    9  N   UNL     1      39.125 -13.085   0.040  1.00  0.00    -0.178 NA
HETATM   10  C   UNL     1      38.386 -12.236  -0.712  1.00  0.00     0.300 C 
HETATM   11  H   UNL     1      38.583 -13.264   0.877  1.00  0.00     0.141 HD
HETATM   12  N   UNL     1      38.622 -12.150  -2.040  1.00  0.00    -0.348 N 
HETATM   13  O   UNL     1      37.470 -11.599  -0.195  1.00  0.00    -0.254 OA
HETATM   14  H   UNL     1      37.985 -11.521  -2.514  1.00  0.00     0.163 HD
HETATM   15  O   UNL     1      41.242 -12.344  -0.479  1.00  0.00    -0.278 OA
BRANCH  12  16
HETATM   16  C   UNL     1      39.408 -13.047  -2.868  1.00  0.00     0.119 C 
HETATM   17  C   UNL     1      38.614 -14.283  -3.242  1.00  0.00     0.026 C 
ENDBRANCH  12  16
ENDBRANCH   7   8
BRANCH   7  18
HETATM   18  C   UNL     1      41.556 -14.443   1.966  1.00  0.00    -0.035 A 
HETATM   19  C   UNL     1      40.847 -15.578   2.392  1.00  0.00     0.009 A 
HETATM   20  C   UNL     1      41.482 -16.817   2.521  1.00  0.00     0.001 A 
HETATM   21  C   UNL     1      42.839 -16.943   2.237  1.00  0.00     0.000 A 
HETATM   22  C   UNL     1      43.562 -15.830   1.817  1.00  0.00     0.001 A 
HETATM   23  C   UNL     1      42.927 -14.594   1.677  1.00  0.00     0.009 A 
ENDBRANCH   7  18
ENDBRANCH   6   7
ENDBRANCH   1   6
BRANCH   2  24
HETATM   24  C   UNL     1      41.442 -13.679   5.641  1.00  0.00     0.043 A 
HETATM   25  C   UNL     1      40.446 -14.487   6.211  1.00  0.00     0.033 A 
HETATM   26  C   UNL     1      40.710 -15.832   6.484  1.00  0.00     0.044 A 
HETATM   27  C   UNL     1      41.961 -16.359   6.197  1.00  0.00     0.116 A 
HETATM   28  F   UNL     1      42.212 -17.649   6.456  1.00  0.00    -0.206 F 
HETATM   29  C   UNL     1      42.961 -15.565   5.650  1.00  0.00     0.044 A 
HETATM   30  C   UNL     1      42.708 -14.219   5.374  1.00  0.00     0.033 A 
ENDBRANCH   2  24
BRANCH   3  31
HETATM   31  C   UNL     1      42.186 -11.108   7.386  1.00  0.00     0.315 C 
BRANCH  31  32
HETATM   32  N   UNL     1      43.638 -10.722   7.118  1.00  0.00    -0.064 N 
HETATM   33  H   UNL     1      43.573 -10.093   6.297  1.00  0.00     0.280 HD
HETATM   34  C   UNL     1      44.224  -9.893   8.237  1.00  0.00     0.235 C 
HETATM   35  C   UNL     1      45.585  -9.361   7.811  1.00  0.00     0.028 C 
HETATM   36  C   UNL     1      46.516 -10.490   7.386  1.00  0.00     0.003 C 
HETATM   37  C   UNL     1      45.878 -11.363   6.310  1.00  0.00     0.028 C 
HETATM   38  C   UNL     1      44.509 -11.881   6.734  1.00  0.00     0.235 C 
ENDBRANCH  31  32
ENDBRANCH   3  31
TORSDOF 8
ENDMDL
MODEL 5
REMARK VINA RESULT:      -8.7      4.453      7.667
REMARK  8 active torsions:
REMARK  status: ('A' for Active; 'I' for Inactive)
REMARK    1  A    between atoms: C_2  and  N_3 
REMARK       I    between atoms: N_3  and  C_4 
REMARK       I    between atoms: C_4  and  N_5 
REMARK       I    between atoms: N_5  and  C_6 
REMARK    2  A    between atoms: C_6  and  C_7 
REMARK    3  A    between atoms: C_7  and  S_8 
REMARK    4  A    between atoms: C_7  and  C_29 
REMARK    5  A    between atoms: S_8  and  C_9 
REMARK    6  A    between atoms: N_10  and  C_11 
REMARK    7  A    between atoms: C_18  and  C_19 
REMARK    8  A    between atoms: C_19  and  N_20 
ROOT
HETATM    1  C   UNL     1      41.782 -14.965   6.321  1.00  0.00     0.197 A 
HETATM    2  N   UNL     1      42.409 -15.535   5.226  1.00  0.00    -0.274 N 
HETATM    3  C   UNL     1      43.438 -16.272   5.801  1.00  0.00     0.161 A 
HETATM    4  N   UNL     1      43.440 -16.100   7.111  1.00  0.00    -0.132 NA
HETATM    5  N   UNL     1      42.410 -15.279   7.429  1.00  0.00    -0.122 NA
ENDROOT
BRANCH   1   6
HETATM    6  S   UNL     1      40.226 -14.208   6.321  1.00  0.00    -0.071 SA
BRANCH   6   7
HETATM    7  C   UNL     1      40.634 -12.506   5.750  1.00  0.00     0.175 C 
BRANCH   7   8
HETATM    8  C   UNL     1      40.094 -11.426   6.709  1.00  0.00     0.224 C 
HETATM    9  N   UNL     1      41.008 -10.497   7.174  1.00  0.00    -0.178 NA
HETATM   10  C   UNL     1      40.624  -9.204   7.288  1.00  0.00     0.300 C 
HETATM   11  H   UNL     1      41.843 -10.492   6.599  1.00  0.00     0.141 HD
HETATM   12  N   UNL     1      39.825  -8.839   8.316  1.00  0.00    -0.348 N 
HETATM   13  O   UNL     1      41.050  -8.366   6.497  1.00  0.00    -0.254 OA
HETATM   14  H   UNL     1      39.635  -7.844   8.333  1.00  0.00     0.163 HD
HETATM   15  O   UNL     1      38.952 -11.530   7.162  1.00  0.00    -0.278 OA
BRANCH  12  16
HETATM   16  C   UNL     1      39.504  -9.596   9.512  1.00  0.00     0.119 C 
HETATM   17  C   UNL     1      39.210  -8.676  10.680  1.00  0.00     0.026 C 
ENDBRANCH  12  16
ENDBRANCH   7   8
BRANCH   7  18
HETATM   18  C   UNL     1      40.367 -12.274   4.261  1.00  0.00    -0.035 A 
HETATM   19  C   UNL     1      39.293 -12.865   3.577  1.00  0.00     0.009 A 
HETATM   20  C   UNL     1      39.075 -12.607   2.220  1.00  0.00     0.001 A 
HETATM   21  C   UNL     1      39.931 -11.762   1.520  1.00  0.00     0.000 A 
HETATM   22  C   UNL     1      41.004 -11.167   2.178  1.00  0.00     0.001 A 
HETATM   23  C   UNL     1      41.218 -11.415   3.536  1.00  0.00     0.009 A 
ENDBRANCH   7  18
ENDBRANCH   6   7
ENDBRANCH   1   6
BRANCH   2  24
HETATM   24  C   UNL     1      42.096 -15.389   3.851  1.00  0.00     0.043 A 
HETATM   25  C   UNL     1      42.894 -14.566   3.041  1.00  0.00     0.033 A 
HETATM   26  C   UNL     1      42.609 -14.439   1.680  1.00  0.00     0.044 A 
HETATM   27  C   UNL     1      41.530 -15.122   1.136  1.00  0.00     0.116 A 
HETATM   28  F   UNL     1      41.258 -15.003  -0.169  1.00  0.00    -0.206 F 
HETATM   29  C   UNL     1      40.721 -15.926   1.931  1.00  0.00     0.044 A 
HETATM   30  C   UNL     1      40.998 -16.060   3.294  1.00  0.00     0.033 A 
ENDBRANCH   2  24
BRANCH   3  31
HETATM   31  C   UNL     1      44.503 -17.058   5.127  1.00  0.00     0.315 C 
BRANCH  31  32
HETATM   32  N   UNL     1      43.875 -18.251   4.412  1.00  0.00    -0.064 N 
HETATM   33  H   UNL     1      42.872 -18.181   4.660  1.00  0.00     0.280 HD
HETATM   34  C   UNL     1      43.947 -18.119   2.908  1.00  0.00     0.235 C 
HETATM   35  C   UNL     1      43.117 -19.220   2.265  1.00  0.00     0.028 C 
HETATM   36  C   UNL     1      43.558 -20.600   2.740  1.00  0.00     0.003 C 
HETATM   37  C   UNL     1      43.553 -20.692   4.263  1.00  0.00     0.028 C 
HETATM   38  C   UNL     1      44.373 -19.579   4.904  1.00  0.00     0.235 C 
ENDBRANCH  31  32
ENDBRANCH   3  31
TORSDOF 8
ENDMDL
MODEL 6
REMARK VINA RESULT:      -8.4      1.795      2.121
REMARK  8 active torsions:
REMARK  status: ('A' for Active; 'I' for Inactive)
REMARK    1  A    between atoms: C_2  and  N_3 
REMARK       I    between atoms: N_3  and  C_4 
REMARK       I    between atoms: C_4  and  N_5 
REMARK       I    between atoms: N_5  and  C_6 
REMARK    2  A    between atoms: C_6  and  C_7 
REMARK    3  A    between atoms: C_7  and  S_8 
REMARK    4  A    between atoms: C_7  and  C_29 
REMARK    5  A    between atoms: S_8  and  C_9 
REMARK    6  A    between atoms: N_10  and  C_11 
REMARK    7  A    between atoms: C_18  and  C_19 
REMARK    8  A    between atoms: C_19  and  N_20 
ROOT
HETATM    1  C   UNL     1      41.121 -11.785   4.876  1.00  0.00     0.197 A 
HETATM    2  N   UNL     1      41.997 -12.398   5.758  1.00  0.00    -0.274 N 
HETATM    3  C   UNL     1      42.627 -11.323   6.373  1.00  0.00     0.161 A 
HETATM    4  N   UNL     1      42.195 -10.187   5.853  1.00  0.00    -0.132 NA
HETATM    5  N   UNL     1      41.262 -10.482   4.916  1.00  0.00    -0.122 NA
ENDROOT
BRANCH   1   6
HETATM    6  S   UNL     1      39.805 -12.552   4.055  1.00  0.00    -0.071 SA
BRANCH   6   7
HETATM    7  C   UNL     1      40.561 -12.958   2.426  1.00  0.00     0.175 C 
BRANCH   7   8
HETATM    8  C   UNL     1      39.570 -12.764   1.261  1.00  0.00     0.224 C 
HETATM    9  N   UNL     1      40.025 -13.099  -0.002  1.00  0.00    -0.178 NA
HETATM   10  C   UNL     1      39.179 -13.721  -0.857  1.00  0.00     0.300 C 
HETATM   11  H   UNL     1      40.850 -13.685   0.054  1.00  0.00     0.141 HD
HETATM   12  N   UNL     1      38.207 -13.006  -1.465  1.00  0.00    -0.348 N 
HETATM   13  O   UNL     1      39.339 -14.912  -1.118  1.00  0.00    -0.254 OA
HETATM   14  H   UNL     1      37.661 -13.557  -2.117  1.00  0.00     0.163 HD
HETATM   15  O   UNL     1      38.509 -12.165   1.456  1.00  0.00    -0.278 OA
BRANCH  12  16
HETATM   16  C   UNL     1      38.077 -11.562  -1.546  1.00  0.00     0.119 C 
HETATM   17  C   UNL     1      38.789 -11.015  -2.767  1.00  0.00     0.026 C 
ENDBRANCH  12  16
ENDBRANCH   7   8
BRANCH   7  18
HETATM   18  C   UNL     1      41.351 -14.267   2.422  1.00  0.00    -0.035 A 
HETATM   19  C   UNL     1      40.833 -15.474   2.920  1.00  0.00     0.009 A 
HETATM   20  C   UNL     1      41.584 -16.652   2.877  1.00  0.00     0.001 A 
HETATM   21  C   UNL     1      42.870 -16.646   2.343  1.00  0.00     0.000 A 
HETATM   22  C   UNL     1      43.405 -15.461   1.846  1.00  0.00     0.001 A 
HETATM   23  C   UNL     1      42.652 -14.284   1.880  1.00  0.00     0.009 A 
ENDBRANCH   7  18
ENDBRANCH   6   7
ENDBRANCH   1   6
BRANCH   2  24
HETATM   24  C   UNL     1      42.214 -13.782   5.971  1.00  0.00     0.043 A 
HETATM   25  C   UNL     1      43.432 -14.361   5.581  1.00  0.00     0.033 A 
HETATM   26  C   UNL     1      43.666 -15.719   5.814  1.00  0.00     0.044 A 
HETATM   27  C   UNL     1      42.686 -16.491   6.421  1.00  0.00     0.116 A 
HETATM   28  F   UNL     1      42.912 -17.792   6.646  1.00  0.00    -0.206 F 
HETATM   29  C   UNL     1      41.469 -15.934   6.795  1.00  0.00     0.044 A 
HETATM   30  C   UNL     1      41.225 -14.578   6.567  1.00  0.00     0.033 A 
ENDBRANCH   2  24
BRANCH   3  31
HETATM   31  C   UNL     1      43.724 -11.342   7.374  1.00  0.00     0.315 C 
BRANCH  31  32
HETATM   32  N   UNL     1      43.418 -10.333   8.478  1.00  0.00    -0.064 N 
HETATM   33  H   UNL     1      42.387 -10.233   8.436  1.00  0.00     0.280 HD
HETATM   34  C   UNL     1      43.730 -10.877   9.853  1.00  0.00     0.235 C 
HETATM   35  C   UNL     1      43.201  -9.917  10.908  1.00  0.00     0.028 C 
HETATM   36  C   UNL     1      43.754  -8.511  10.710  1.00  0.00     0.003 C 
HETATM   37  C   UNL     1      43.497  -8.007   9.293  1.00  0.00     0.028 C 
HETATM   38  C   UNL     1      44.015  -8.977   8.239  1.00  0.00     0.235 C 
ENDBRANCH  31  32
ENDBRANCH   3  31
TORSDOF 8
ENDMDL
MODEL 7
REMARK VINA RESULT:      -8.2      2.839      3.875
REMARK  8 active torsions:
REMARK  status: ('A' for Active; 'I' for Inactive)
REMARK    1  A    between atoms: C_2  and  N_3 
REMARK       I    between atoms: N_3  and  C_4 
REMARK       I    between atoms: C_4  and  N_5 
REMARK       I    between atoms: N_5  and  C_6 
REMARK    2  A    between atoms: C_6  and  C_7 
REMARK    3  A    between atoms: C_7  and  S_8 
REMARK    4  A    between atoms: C_7  and  C_29 
REMARK    5  A    between atoms: S_8  and  C_9 
REMARK    6  A    between atoms: N_10  and  C_11 
REMARK    7  A    between atoms: C_18  and  C_19 
REMARK    8  A    between atoms: C_19  and  N_20 
ROOT
HETATM    1  C   UNL     1      41.744 -11.447   3.091  1.00  0.00     0.197 A 
HETATM    2  N   UNL     1      42.563 -12.425   3.633  1.00  0.00    -0.274 N 
HETATM    3  C   UNL     1      43.280 -11.733   4.601  1.00  0.00     0.161 A 
HETATM    4  N   UNL     1      42.946 -10.455   4.585  1.00  0.00    -0.132 NA
HETATM    5  N   UNL     1      41.993 -10.281   3.637  1.00  0.00    -0.122 NA
ENDROOT
BRANCH   1   6
HETATM    6  S   UNL     1      40.370 -11.722   2.076  1.00  0.00    -0.071 SA
BRANCH   6   7
HETATM    7  C   UNL     1      41.073 -11.423   0.400  1.00  0.00     0.175 C 
BRANCH   7   8
HETATM    8  C   UNL     1      40.985  -9.940  -0.012  1.00  0.00     0.224 C 
HETATM    9  N   UNL     1      42.120  -9.173   0.186  1.00  0.00    -0.178 NA
HETATM   10  C   UNL     1      42.461  -8.259  -0.752  1.00  0.00     0.300 C 
HETATM   11  H   UNL     1      42.936  -9.762   0.315  1.00  0.00     0.141 HD
HETATM   12  N   UNL     1      41.768  -7.100  -0.830  1.00  0.00    -0.348 N 
HETATM   13  O   UNL     1      43.430  -8.460  -1.481  1.00  0.00    -0.254 OA
HETATM   14  H   UNL     1      42.133  -6.469  -1.533  1.00  0.00     0.163 HD
HETATM   15  O   UNL     1      39.892  -9.457  -0.318  1.00  0.00    -0.278 OA
BRANCH  12  16
HETATM   16  C   UNL     1      40.838  -6.548   0.138  1.00  0.00     0.119 C 
HETATM   17  C   UNL     1      41.503  -5.489   0.994  1.00  0.00     0.026 C 
ENDBRANCH  12  16
ENDBRANCH   7   8
BRANCH   7  18
HETATM   18  C   UNL     1      40.617 -12.439  -0.649  1.00  0.00    -0.035 A 
HETATM   19  C   UNL     1      39.855 -13.575  -0.332  1.00  0.00     0.009 A 
HETATM   20  C   UNL     1      39.442 -14.465  -1.328  1.00  0.00     0.001 A 
HETATM   21  C   UNL     1      39.790 -14.242  -2.657  1.00  0.00     0.000 A 
HETATM   22  C   UNL     1      40.548 -13.125  -2.994  1.00  0.00     0.001 A 
HETATM   23  C   UNL     1      40.953 -12.228  -2.002  1.00  0.00     0.009 A 
ENDBRANCH   7  18
ENDBRANCH   6   7
ENDBRANCH   1   6
BRANCH   2  24
HETATM   24  C   UNL     1      42.663 -13.793   3.276  1.00  0.00     0.043 A 
HETATM   25  C   UNL     1      42.077 -14.768   4.099  1.00  0.00     0.033 A 
HETATM   26  C   UNL     1      42.147 -16.117   3.740  1.00  0.00     0.044 A 
HETATM   27  C   UNL     1      42.806 -16.486   2.575  1.00  0.00     0.116 A 
HETATM   28  F   UNL     1      42.870 -17.778   2.231  1.00  0.00    -0.206 F 
HETATM   29  C   UNL     1      43.406 -15.532   1.763  1.00  0.00     0.044 A 
HETATM   30  C   UNL     1      43.342 -14.180   2.112  1.00  0.00     0.033 A 
ENDBRANCH   2  24
BRANCH   3  31
HETATM   31  C   UNL     1      44.369 -12.232   5.480  1.00  0.00     0.315 C 
BRANCH  31  32
HETATM   32  N   UNL     1      44.615 -11.226   6.602  1.00  0.00    -0.064 N 
HETATM   33  H   UNL     1      44.174 -10.357   6.249  1.00  0.00     0.280 HD
HETATM   34  C   UNL     1      43.874 -11.589   7.868  1.00  0.00     0.235 C 
HETATM   35  C   UNL     1      43.983 -10.442   8.862  1.00  0.00     0.028 C 
HETATM   36  C   UNL     1      45.437 -10.077   9.135  1.00  0.00     0.003 C 
HETATM   37  C   UNL     1      46.190  -9.788   7.840  1.00  0.00     0.028 C 
HETATM   38  C   UNL     1      46.067 -10.932   6.841  1.00  0.00     0.235 C 
ENDBRANCH  31  32
ENDBRANCH   3  31
TORSDOF 8
ENDMDL
MODEL 8
REMARK VINA RESULT:      -8.1      5.271      9.296
REMARK  8 active torsions:
REMARK  status: ('A' for Active; 'I' for Inactive)
REMARK    1  A    between atoms: C_2  and  N_3 
REMARK       I    between atoms: N_3  and  C_4 
REMARK       I    between atoms: C_4  and  N_5 
REMARK       I    between atoms: N_5  and  C_6 
REMARK    2  A    between atoms: C_6  and  C_7 
REMARK    3  A    between atoms: C_7  and  S_8 
REMARK    4  A    between atoms: C_7  and  C_29 
REMARK    5  A    between atoms: S_8  and  C_9 
REMARK    6  A    between atoms: N_10  and  C_11 
REMARK    7  A    between atoms: C_18  and  C_19 
REMARK    8  A    between atoms: C_19  and  N_20 
ROOT
HETATM    1  C   UNL     1      40.255 -10.744   6.904  1.00  0.00     0.197 A 
HETATM    2  N   UNL     1      41.054 -11.662   6.242  1.00  0.00    -0.274 N 
HETATM    3  C   UNL     1      40.134 -12.571   5.734  1.00  0.00     0.161 A 
HETATM    4  N   UNL     1      38.913 -12.240   6.115  1.00  0.00    -0.132 NA
HETATM    5  N   UNL     1      38.995 -11.104   6.850  1.00  0.00    -0.122 NA
ENDROOT
BRANCH   1   6
HETATM    6  S   UNL     1      40.750  -9.183   7.462  1.00  0.00    -0.071 SA
BRANCH   6   7
HETATM    7  C   UNL     1      41.433  -9.576   9.127  1.00  0.00     0.175 C 
BRANCH   7   8
HETATM    8  C   UNL     1      40.659  -8.864  10.254  1.00  0.00     0.224 C 
HETATM    9  N   UNL     1      39.683  -9.603  10.899  1.00  0.00    -0.178 NA
HETATM   10  C   UNL     1      39.542  -9.472  12.239  1.00  0.00     0.300 C 
HETATM   11  H   UNL     1      39.805 -10.594  10.724  1.00  0.00     0.141 HD
HETATM   12  N   UNL     1      38.946  -8.366  12.737  1.00  0.00    -0.348 N 
HETATM   13  O   UNL     1      39.902 -10.381  12.984  1.00  0.00    -0.254 OA
HETATM   14  H   UNL     1      38.852  -8.390  13.746  1.00  0.00     0.163 HD
HETATM   15  O   UNL     1      40.800  -7.649  10.417  1.00  0.00    -0.278 OA
BRANCH  12  16
HETATM   16  C   UNL     1      38.171  -7.369  12.022  1.00  0.00     0.119 C 
HETATM   17  C   UNL     1      37.720  -6.258  12.950  1.00  0.00     0.026 C 
ENDBRANCH  12  16
ENDBRANCH   7   8
BRANCH   7  18
HETATM   18  C   UNL     1      42.958  -9.492   9.203  1.00  0.00    -0.035 A 
HETATM   19  C   UNL     1      43.729  -8.758   8.287  1.00  0.00     0.009 A 
HETATM   20  C   UNL     1      45.121  -8.692   8.409  1.00  0.00     0.001 A 
HETATM   21  C   UNL     1      45.768  -9.364   9.441  1.00  0.00     0.000 A 
HETATM   22  C   UNL     1      45.024 -10.100  10.359  1.00  0.00     0.001 A 
HETATM   23  C   UNL     1      43.632 -10.159  10.245  1.00  0.00     0.009 A 
ENDBRANCH   7  18
ENDBRANCH   6   7
ENDBRANCH   1   6
BRANCH   2  24
HETATM   24  C   UNL     1      42.466 -11.684   6.125  1.00  0.00     0.043 A 
HETATM   25  C   UNL     1      43.074 -11.174   4.967  1.00  0.00     0.033 A 
HETATM   26  C   UNL     1      44.467 -11.166   4.856  1.00  0.00     0.044 A 
HETATM   27  C   UNL     1      45.243 -11.673   5.889  1.00  0.00     0.116 A 
HETATM   28  F   UNL     1      46.577 -11.663   5.782  1.00  0.00    -0.206 F 
HETATM   29  C   UNL     1      44.653 -12.198   7.032  1.00  0.00     0.044 A 
HETATM   30  C   UNL     1      43.261 -12.210   7.154  1.00  0.00     0.033 A 
ENDBRANCH   2  24
BRANCH   3  31
HETATM   31  C   UNL     1      40.391 -13.826   4.980  1.00  0.00     0.315 C 
BRANCH  31  32
HETATM   32  N   UNL     1      41.570 -14.562   5.610  1.00  0.00    -0.064 N 
HETATM   33  H   UNL     1      42.111 -13.806   6.068  1.00  0.00     0.280 HD
HETATM   34  C   UNL     1      41.137 -15.497   6.715  1.00  0.00     0.235 C 
HETATM   35  C   UNL     1      42.365 -16.026   7.440  1.00  0.00     0.028 C 
HETATM   36  C   UNL     1      43.338 -16.693   6.474  1.00  0.00     0.003 C 
HETATM   37  C   UNL     1      43.706 -15.761   5.324  1.00  0.00     0.028 C 
HETATM   38  C   UNL     1      42.473 -15.222   4.610  1.00  0.00     0.235 C 
ENDBRANCH  31  32
ENDBRANCH   3  31
TORSDOF 8
ENDMDL
MODEL 9
REMARK VINA RESULT:      -8.1      3.279      6.383
REMARK  8 active torsions:
REMARK  status: ('A' for Active; 'I' for Inactive)
REMARK    1  A    between atoms: C_2  and  N_3 
REMARK       I    between atoms: N_3  and  C_4 
REMARK       I    between atoms: C_4  and  N_5 
REMARK       I    between atoms: N_5  and  C_6 
REMARK    2  A    between atoms: C_6  and  C_7 
REMARK    3  A    between atoms: C_7  and  S_8 
REMARK    4  A    between atoms: C_7  and  C_29 
REMARK    5  A    between atoms: S_8  and  C_9 
REMARK    6  A    between atoms: N_10  and  C_11 
REMARK    7  A    between atoms: C_18  and  C_19 
REMARK    8  A    between atoms: C_19  and  N_20 
ROOT
HETATM    1  C   UNL     1      40.518 -14.691   2.635  1.00  0.00     0.197 A 
HETATM    2  N   UNL     1      41.773 -14.675   3.223  1.00  0.00    -0.274 N 
HETATM    3  C   UNL     1      42.241 -15.964   2.999  1.00  0.00     0.161 A 
HETATM    4  N   UNL     1      41.317 -16.681   2.384  1.00  0.00    -0.132 NA
HETATM    5  N   UNL     1      40.242 -15.885   2.166  1.00  0.00    -0.122 NA
ENDROOT
BRANCH   1   6
HETATM    6  S   UNL     1      39.551 -13.305   2.267  1.00  0.00    -0.071 SA
BRANCH   6   7
HETATM    7  C   UNL     1      40.251 -12.775   0.648  1.00  0.00     0.175 C 
BRANCH   7   8
HETATM    8  C   UNL     1      40.705 -11.302   0.666  1.00  0.00     0.224 C 
HETATM    9  N   UNL     1      40.053 -10.462   1.552  1.00  0.00    -0.178 NA
HETATM   10  C   UNL     1      40.773  -9.530   2.219  1.00  0.00     0.300 C 
HETATM   11  H   UNL     1      39.560 -10.996   2.259  1.00  0.00     0.141 HD
HETATM   12  N   UNL     1      41.183  -8.419   1.567  1.00  0.00    -0.348 N 
HETATM   13  O   UNL     1      40.995  -9.671   3.420  1.00  0.00    -0.254 OA
HETATM   14  H   UNL     1      41.674  -7.768   2.168  1.00  0.00     0.163 HD
HETATM   15  O   UNL     1      41.476 -10.891  -0.205  1.00  0.00    -0.278 OA
BRANCH  12  16
HETATM   16  C   UNL     1      40.741  -7.926   0.275  1.00  0.00     0.119 C 
HETATM   17  C   UNL     1      41.910  -7.420  -0.547  1.00  0.00     0.026 C 
ENDBRANCH  12  16
ENDBRANCH   7   8
BRANCH   7  18
HETATM   18  C   UNL     1      39.410 -13.202  -0.556  1.00  0.00    -0.035 A 
HETATM   19  C   UNL     1      38.341 -12.438  -1.051  1.00  0.00     0.009 A 
HETATM   20  C   UNL     1      37.613 -12.858  -2.169  1.00  0.00     0.001 A 
HETATM   21  C   UNL     1      37.934 -14.052  -2.807  1.00  0.00     0.000 A 
HETATM   22  C   UNL     1      38.987 -14.828  -2.331  1.00  0.00     0.001 A 
HETATM   23  C   UNL     1      39.722 -14.405  -1.221  1.00  0.00     0.009 A 
ENDBRANCH   7  18
ENDBRANCH   6   7
ENDBRANCH   1   6
BRANCH   2  24
HETATM   24  C   UNL     1      42.418 -13.613   3.904  1.00  0.00     0.043 A 
HETATM   25  C   UNL     1      42.257 -13.481   5.292  1.00  0.00     0.033 A 
HETATM   26  C   UNL     1      42.912 -12.453   5.976  1.00  0.00     0.044 A 
HETATM   27  C   UNL     1      43.711 -11.561   5.275  1.00  0.00     0.116 A 
HETATM   28  F   UNL     1      44.340 -10.578   5.932  1.00  0.00    -0.206 F 
HETATM   29  C   UNL     1      43.863 -11.670   3.898  1.00  0.00     0.044 A 
HETATM   30  C   UNL     1      43.213 -12.694   3.205  1.00  0.00     0.033 A 
ENDBRANCH   2  24
BRANCH   3  31
HETATM   31  C   UNL     1      43.515 -16.579   3.454  1.00  0.00     0.315 C 
BRANCH  31  32
HETATM   32  N   UNL     1      43.353 -18.096   3.506  1.00  0.00    -0.064 N 
HETATM   33  H   UNL     1      42.357 -18.226   3.758  1.00  0.00     0.280 HD
HETATM   34  C   UNL     1      43.530 -18.736   2.148  1.00  0.00     0.235 C 
HETATM   35  C   UNL     1      43.143 -20.205   2.229  1.00  0.00     0.028 C 
HETATM   36  C   UNL     1      43.933 -20.932   3.312  1.00  0.00     0.003 C 
HETATM   37  C   UNL     1      43.804 -20.229   4.659  1.00  0.00     0.028 C 
HETATM   38  C   UNL     1      44.179 -18.755   4.571  1.00  0.00     0.235 C 
ENDBRANCH  31  32
ENDBRANCH   3  31
TORSDOF 8
ENDMDL
MODEL 10
REMARK VINA RESULT:      -7.8      3.781      7.399
REMARK  8 active torsions:
REMARK  status: ('A' for Active; 'I' for Inactive)
REMARK    1  A    between atoms: C_2  and  N_3 
REMARK       I    between atoms: N_3  and  C_4 
REMARK       I    between atoms: C_4  and  N_5 
REMARK       I    between atoms: N_5  and  C_6 
REMARK    2  A    between atoms: C_6  and  C_7 
REMARK    3  A    between atoms: C_7  and  S_8 
REMARK    4  A    between atoms: C_7  and  C_29 
REMARK    5  A    between atoms: S_8  and  C_9 
REMARK    6  A    between atoms: N_10  and  C_11 
REMARK    7  A    between atoms: C_18  and  C_19 
REMARK    8  A    between atoms: C_19  and  N_20 
ROOT
HETATM    1  C   UNL     1      43.397 -12.903   5.792  1.00  0.00     0.197 A 
HETATM    2  N   UNL     1      42.631 -13.864   5.154  1.00  0.00    -0.274 N 
HETATM    3  C   UNL     1      42.765 -14.973   5.981  1.00  0.00     0.161 A 
HETATM    4  N   UNL     1      43.582 -14.695   6.981  1.00  0.00    -0.132 NA
HETATM    5  N   UNL     1      43.979 -13.406   6.855  1.00  0.00    -0.122 NA
ENDROOT
BRANCH   1   6
HETATM    6  S   UNL     1      43.377 -11.204   5.463  1.00  0.00    -0.071 SA
BRANCH   6   7
HETATM    7  C   UNL     1      42.145 -10.597   6.691  1.00  0.00     0.175 C 
BRANCH   7   8
HETATM    8  C   UNL     1      40.889 -10.015   6.013  1.00  0.00     0.224 C 
HETATM    9  N   UNL     1      39.896 -10.916   5.670  1.00  0.00    -0.178 NA
HETATM   10  C   UNL     1      38.602 -10.561   5.848  1.00  0.00     0.300 C 
HETATM   11  H   UNL     1      40.017 -11.793   6.164  1.00  0.00     0.141 HD
HETATM   12  N   UNL     1      38.028  -9.695   4.982  1.00  0.00    -0.348 N 
HETATM   13  O   UNL     1      37.945 -11.071   6.753  1.00  0.00    -0.254 OA
HETATM   14  H   UNL     1      37.047  -9.533   5.179  1.00  0.00     0.163 HD
HETATM   15  O   UNL     1      40.885  -8.838   5.643  1.00  0.00    -0.278 OA
BRANCH  12  16
HETATM   16  C   UNL     1      38.525  -9.261   3.690  1.00  0.00     0.119 C 
HETATM   17  C   UNL     1      38.291 -10.319   2.629  1.00  0.00     0.026 C 
ENDBRANCH  12  16
ENDBRANCH   7   8
BRANCH   7  18
HETATM   18  C   UNL     1      42.756  -9.751   7.810  1.00  0.00    -0.035 A 
HETATM   19  C   UNL     1      41.989  -9.173   8.835  1.00  0.00     0.009 A 
HETATM   20  C   UNL     1      42.593  -8.425   9.850  1.00  0.00     0.001 A 
HETATM   21  C   UNL     1      43.972  -8.234   9.856  1.00  0.00     0.000 A 
HETATM   22  C   UNL     1      44.751  -8.795   8.848  1.00  0.00     0.001 A 
HETATM   23  C   UNL     1      44.150  -9.551   7.838  1.00  0.00     0.009 A 
ENDBRANCH   7  18
ENDBRANCH   6   7
ENDBRANCH   1   6
BRANCH   2  24
HETATM   24  C   UNL     1      41.902 -13.754   3.944  1.00  0.00     0.043 A 
HETATM   25  C   UNL     1      42.592 -13.627   2.728  1.00  0.00     0.033 A 
HETATM   26  C   UNL     1      41.881 -13.547   1.527  1.00  0.00     0.044 A 
HETATM   27  C   UNL     1      40.494 -13.584   1.545  1.00  0.00     0.116 A 
HETATM   28  F   UNL     1      39.814 -13.510   0.394  1.00  0.00    -0.206 F 
HETATM   29  C   UNL     1      39.799 -13.691   2.743  1.00  0.00     0.044 A 
HETATM   30  C   UNL     1      40.500 -13.772   3.949  1.00  0.00     0.033 A 
ENDBRANCH   2  24
BRANCH   3  31
HETATM   31  C   UNL     1      42.222 -16.342   5.789  1.00  0.00     0.315 C 
BRANCH  31  32
HETATM   32  N   UNL     1      43.016 -17.052   4.696  1.00  0.00    -0.064 N 
HETATM   33  H   UNL     1      43.796 -16.398   4.499  1.00  0.00     0.280 HD
HETATM   34  C   UNL     1      43.654 -18.330   5.190  1.00  0.00     0.235 C 
HETATM   35  C   UNL     1      44.601 -18.865   4.127  1.00  0.00     0.028 C 
HETATM   36  C   UNL     1      43.888 -19.060   2.793  1.00  0.00     0.003 C 
HETATM   37  C   UNL     1      43.186 -17.782   2.346  1.00  0.00     0.028 C 
HETATM   38  C   UNL     1      42.250 -17.241   3.419  1.00  0.00     0.235 C 
ENDBRANCH  31  32
ENDBRANCH   3  31
TORSDOF 8
ENDMDL
