MODEL 1
REMARK VINA RESULT:      -9.1      0.000      0.000
REMARK  7 active torsions:
REMARK  status: ('A' for Active; 'I' for Inactive)
REMARK    1  A    between atoms: C_7  and  C_8 
REMARK    2  A    between atoms: C_8  and  N_9 
REMARK    3  A    between atoms: C_13  and  C_14 
REMARK    4  A    between atoms: C_14  and  C_15 
REMARK    5  A    between atoms: C_15  and  C_16 
REMARK    6  A    between atoms: N_26  and  C_27 
REMARK    7  A    between atoms: C_27  and  C_28 
ROOT
HETATM    1  C   UNL     1      42.133 -15.307   4.148  1.00  0.00     0.123 C 
HETATM    2  N   UNL     1      40.966 -16.099   3.791  1.00  0.00    -0.324 N 
HETATM    3  C   UNL     1      40.250 -15.570   2.742  1.00  0.00     0.326 C 
HETATM    4  O   UNL     1      39.303 -16.129   2.224  1.00  0.00    -0.247 OA
HETATM    5  N   UNL     1      40.762 -14.345   2.458  1.00  0.00    -0.268 N 
HETATM    6  C   UNL     1      41.806 -14.066   3.290  1.00  0.00     0.257 C 
HETATM    7  O   UNL     1      42.403 -13.000   3.355  1.00  0.00    -0.270 OA
HETATM    8  H   UNL     1      40.779 -17.050   4.093  1.00  0.00     0.165 HD
ENDROOT
BRANCH   1   9
HETATM    9  C   UNL     1      42.156 -15.048   5.691  1.00  0.00     0.027 C 
HETATM   10  C   UNL     1      41.008 -14.167   6.225  1.00  0.00     0.035 C 
HETATM   11  C   UNL     1      41.225 -12.674   6.037  1.00  0.00     0.235 C 
HETATM   12  N   UNL     1      42.510 -12.241   6.690  1.00  0.00    -0.067 N 
HETATM   13  H   UNL     1      42.376 -12.339   7.704  1.00  0.00     0.280 HD
HETATM   14  C   UNL     1      43.721 -13.041   6.300  1.00  0.00     0.235 C 
HETATM   15  C   UNL     1      43.471 -14.542   6.313  1.00  0.00     0.035 C 
BRANCH  12  16
HETATM   16  C   UNL     1      42.801 -10.763   6.453  1.00  0.00     0.277 C 
BRANCH  16  17
HETATM   17  C   UNL     1      43.279 -10.038   7.654  1.00  0.00     0.011 A 
HETATM   18  C   UNL     1      44.626  -9.885   8.087  1.00  0.00     0.060 A 
HETATM   19  C   UNL     1      45.870 -10.420   7.469  1.00  0.00     0.073 C 
HETATM   20  N   UNL     1      44.704  -9.132   9.184  1.00  0.00    -0.178 NA
HETATM   21  N   UNL     1      43.431  -8.867   9.508  1.00  0.00    -0.284 N 
HETATM   22  C   UNL     1      43.139  -8.109  10.702  1.00  0.00     0.179 C 
HETATM   23  C   UNL     1      42.535  -9.362   8.603  1.00  0.00     0.122 A 
ENDBRANCH  16  17
ENDBRANCH  12  16
ENDBRANCH   1   9
BRANCH   1  24
HETATM   24  C   UNL     1      43.430 -15.923   3.535  1.00  0.00     0.082 C 
BRANCH  24  25
HETATM   25  C   UNL     1      43.496 -17.438   3.462  1.00  0.00    -0.034 A 
HETATM   26  C   UNL     1      43.892 -18.260   4.532  1.00  0.00     0.040 A 
HETATM   27 CL   UNL     1      44.377 -17.629   6.062  1.00  0.00    -0.084 Cl
HETATM   28  C   UNL     1      43.941 -19.653   4.387  1.00  0.00     0.024 A 
HETATM   29  C   UNL     1      43.609 -20.249   3.174  1.00  0.00     0.002 A 
HETATM   30  C   UNL     1      43.244 -19.453   2.094  1.00  0.00     0.001 A 
HETATM   31  C   UNL     1      43.200 -18.064   2.234  1.00  0.00     0.009 A 
ENDBRANCH  24  25
ENDBRANCH   1  24
BRANCH   5  32
HETATM   32  C   UNL     1      40.227 -13.444   1.459  1.00  0.00     0.141 C 
BRANCH  32  33
HETATM   33  C   UNL     1      40.658 -13.881   0.092  1.00  0.00     0.004 A 
HETATM   34  C   UNL     1      39.650 -14.397  -0.904  1.00  0.00     0.007 A 
HETATM   35  C   UNL     1      40.302 -13.058  -1.118  1.00  0.00     0.007 A 
ENDBRANCH  32  33
ENDBRANCH   5  32
TORSDOF 7
ENDMDL
MODEL 2
REMARK VINA RESULT:      -8.9      1.761      2.300
REMARK  7 active torsions:
REMARK  status: ('A' for Active; 'I' for Inactive)
REMARK    1  A    between atoms: C_7  and  C_8 
REMARK    2  A    between atoms: C_8  and  N_9 
REMARK    3  A    between atoms: C_13  and  C_14 
REMARK    4  A    between atoms: C_14  and  C_15 
REMARK    5  A    between atoms: C_15  and  C_16 
REMARK    6  A    between atoms: N_26  and  C_27 
REMARK    7  A    between atoms: C_27  and  C_28 
ROOT
HETATM    1  C   UNL     1      41.976 -15.092   4.069  1.00  0.00     0.123 C 
HETATM    2  N   UNL     1      40.871 -15.964   3.698  1.00  0.00    -0.324 N 
HETATM    3  C   UNL     1      40.167 -15.514   2.606  1.00  0.00     0.326 C 
HETATM    4  O   UNL     1      39.274 -16.146   2.075  1.00  0.00    -0.247 OA
HETATM    5  N   UNL     1      40.616 -14.271   2.297  1.00  0.00    -0.268 N 
HETATM    6  C   UNL     1      41.610 -13.902   3.155  1.00  0.00     0.257 C 
HETATM    7  O   UNL     1      42.141 -12.801   3.203  1.00  0.00    -0.270 OA
HETATM    8  H   UNL     1      40.730 -16.914   4.027  1.00  0.00     0.165 HD
ENDROOT
BRANCH   1   9
HETATM    9  C   UNL     1      41.926 -14.781   5.602  1.00  0.00     0.027 C 
HETATM   10  C   UNL     1      40.600 -14.172   6.103  1.00  0.00     0.035 C 
HETATM   11  C   UNL     1      40.465 -12.677   5.861  1.00  0.00     0.235 C 
HETATM   12  N   UNL     1      41.608 -11.934   6.498  1.00  0.00    -0.067 N 
HETATM   13  H   UNL     1      41.493 -12.025   7.514  1.00  0.00     0.280 HD
HETATM   14  C   UNL     1      42.976 -12.445   6.136  1.00  0.00     0.235 C 
HETATM   15  C   UNL     1      43.081 -13.961   6.204  1.00  0.00     0.035 C 
BRANCH  12  16
HETATM   16  C   UNL     1      41.550 -10.439   6.207  1.00  0.00     0.277 C 
BRANCH  16  17
HETATM   17  C   UNL     1      40.610  -9.688   7.072  1.00  0.00     0.011 A 
HETATM   18  C   UNL     1      39.298  -9.250   6.737  1.00  0.00     0.060 A 
HETATM   19  C   UNL     1      38.559  -9.413   5.456  1.00  0.00     0.073 C 
HETATM   20  N   UNL     1      38.709  -8.641   7.766  1.00  0.00    -0.178 NA
HETATM   21  N   UNL     1      39.645  -8.609   8.726  1.00  0.00    -0.284 N 
HETATM   22  C   UNL     1      39.360  -7.954   9.981  1.00  0.00     0.179 C 
HETATM   23  C   UNL     1      40.796  -9.252   8.370  1.00  0.00     0.122 A 
ENDBRANCH  16  17
ENDBRANCH  12  16
ENDBRANCH   1   9
BRANCH   1  24
HETATM   24  C   UNL     1      43.329 -15.650   3.525  1.00  0.00     0.082 C 
BRANCH  24  25
HETATM   25  C   UNL     1      43.489 -17.160   3.514  1.00  0.00    -0.034 A 
HETATM   26  C   UNL     1      44.000 -17.903   4.592  1.00  0.00     0.040 A 
HETATM   27 CL   UNL     1      44.534 -17.171   6.060  1.00  0.00    -0.084 Cl
HETATM   28  C   UNL     1      44.131 -19.296   4.506  1.00  0.00     0.024 A 
HETATM   29  C   UNL     1      43.767 -19.968   3.343  1.00  0.00     0.002 A 
HETATM   30  C   UNL     1      43.287 -19.249   2.255  1.00  0.00     0.001 A 
HETATM   31  C   UNL     1      43.162 -17.861   2.336  1.00  0.00     0.009 A 
ENDBRANCH  24  25
ENDBRANCH   1  24
BRANCH   5  32
HETATM   32  C   UNL     1      40.068 -13.438   1.248  1.00  0.00     0.141 C 
BRANCH  32  33
HETATM   33  C   UNL     1      40.488 -13.960  -0.092  1.00  0.00     0.004 A 
HETATM   34  C   UNL     1      39.460 -14.431  -1.091  1.00  0.00     0.007 A 
HETATM   35  C   UNL     1      40.222 -13.157  -1.339  1.00  0.00     0.007 A 
ENDBRANCH  32  33
ENDBRANCH   5  32
TORSDOF 7
ENDMDL
MODEL 3
REMARK VINA RESULT:      -8.7      1.932      2.527
REMARK  7 active torsions:
REMARK  status: ('A' for Active; 'I' for Inactive)
REMARK    1  A    between atoms: C_7  and  C_8 
REMARK    2  A    between atoms: C_8  and  N_9 
REMARK    3  A    between atoms: C_13  and  C_14 
REMARK    4  A    between atoms: C_14  and  C_15 
REMARK    5  A    between atoms: C_15  and  C_16 
REMARK    6  A    between atoms: N_26  and  C_27 
REMARK    7  A    between atoms: C_27  and  C_28 
ROOT
HETATM    1  C   UNL     1      41.529 -14.341   4.806  1.00  0.00     0.123 C 
HETATM    2  N   UNL     1      40.771 -13.598   5.801  1.00  0.00    -0.324 N 
HETATM    3  C   UNL     1      39.652 -12.985   5.287  1.00  0.00     0.326 C 
HETATM    4  O   UNL     1      38.830 -12.402   5.968  1.00  0.00    -0.247 OA
HETATM    5  N   UNL     1      39.683 -13.116   3.936  1.00  0.00    -0.268 N 
HETATM    6  C   UNL     1      40.792 -13.814   3.556  1.00  0.00     0.257 C 
HETATM    7  O   UNL     1      41.157 -14.003   2.403  1.00  0.00    -0.270 OA
HETATM    8  H   UNL     1      40.880 -13.673   6.808  1.00  0.00     0.165 HD
ENDROOT
BRANCH   1   9
HETATM    9  C   UNL     1      43.043 -13.955   4.884  1.00  0.00     0.027 C 
HETATM   10  C   UNL     1      43.609 -13.811   6.312  1.00  0.00     0.035 C 
HETATM   11  C   UNL     1      43.303 -12.478   6.976  1.00  0.00     0.235 C 
HETATM   12  N   UNL     1      43.815 -11.340   6.137  1.00  0.00    -0.067 N 
HETATM   13  H   UNL     1      44.840 -11.390   6.161  1.00  0.00     0.280 HD
HETATM   14  C   UNL     1      43.380 -11.367   4.698  1.00  0.00     0.235 C 
HETATM   15  C   UNL     1      43.516 -12.743   4.062  1.00  0.00     0.035 C 
BRANCH  12  16
HETATM   16  C   UNL     1      43.455  -9.983   6.732  1.00  0.00     0.277 C 
BRANCH  16  17
HETATM   17  C   UNL     1      43.863  -9.812   8.146  1.00  0.00     0.011 A 
HETATM   18  C   UNL     1      45.189  -9.680   8.648  1.00  0.00     0.060 A 
HETATM   19  C   UNL     1      46.475  -9.701   7.900  1.00  0.00     0.073 C 
HETATM   20  N   UNL     1      45.195  -9.495   9.968  1.00  0.00    -0.178 NA
HETATM   21  N   UNL     1      43.909  -9.585  10.332  1.00  0.00    -0.284 N 
HETATM   22  C   UNL     1      43.551  -9.491  11.729  1.00  0.00     0.179 C 
HETATM   23  C   UNL     1      43.063  -9.744   9.271  1.00  0.00     0.122 A 
ENDBRANCH  16  17
ENDBRANCH  12  16
ENDBRANCH   1   9
BRANCH   1  24
HETATM   24  C   UNL     1      41.203 -15.866   4.885  1.00  0.00     0.082 C 
BRANCH  24  25
HETATM   25  C   UNL     1      42.288 -16.820   4.419  1.00  0.00    -0.034 A 
HETATM   26  C   UNL     1      43.173 -17.486   5.284  1.00  0.00     0.040 A 
HETATM   27 CL   UNL     1      43.143 -17.272   6.995  1.00  0.00    -0.084 Cl
HETATM   28  C   UNL     1      44.160 -18.343   4.780  1.00  0.00     0.024 A 
HETATM   29  C   UNL     1      44.288 -18.543   3.408  1.00  0.00     0.002 A 
HETATM   30  C   UNL     1      43.442 -17.871   2.534  1.00  0.00     0.001 A 
HETATM   31  C   UNL     1      42.462 -17.011   3.033  1.00  0.00     0.009 A 
ENDBRANCH  24  25
ENDBRANCH   1  24
BRANCH   5  32
HETATM   32  C   UNL     1      38.711 -12.538   3.033  1.00  0.00     0.141 C 
BRANCH  32  33
HETATM   33  C   UNL     1      39.220 -11.234   2.499  1.00  0.00     0.004 A 
HETATM   34  C   UNL     1      38.290 -10.059   2.324  1.00  0.00     0.007 A 
HETATM   35  C   UNL     1      39.339 -10.035   3.403  1.00  0.00     0.007 A 
ENDBRANCH  32  33
ENDBRANCH   5  32
TORSDOF 7
ENDMDL
MODEL 4
REMARK VINA RESULT:      -8.5      2.340      3.057
REMARK  7 active torsions:
REMARK  status: ('A' for Active; 'I' for Inactive)
REMARK    1  A    between atoms: C_7  and  C_8 
REMARK    2  A    between atoms: C_8  and  N_9 
REMARK    3  A    between atoms: C_13  and  C_14 
REMARK    4  A    between atoms: C_14  and  C_15 
REMARK    5  A    between atoms: C_15  and  C_16 
REMARK    6  A    between atoms: N_26  and  C_27 
REMARK    7  A    between atoms: C_27  and  C_28 
ROOT
HETATM    1  C   UNL     1      41.438 -14.428   3.341  1.00  0.00     0.123 C 
HETATM    2  N   UNL     1      40.326 -13.504   3.502  1.00  0.00    -0.324 N 
HETATM    3  C   UNL     1      39.602 -13.318   2.347  1.00  0.00     0.326 C 
HETATM    4  O   UNL     1      38.576 -12.667   2.293  1.00  0.00    -0.247 OA
HETATM    5  N   UNL     1      40.261 -13.934   1.333  1.00  0.00    -0.268 N 
HETATM    6  C   UNL     1      41.395 -14.530   1.801  1.00  0.00     0.257 C 
HETATM    7  O   UNL     1      42.253 -15.071   1.117  1.00  0.00    -0.270 OA
HETATM    8  H   UNL     1      39.945 -13.181   4.387  1.00  0.00     0.165 HD
ENDROOT
BRANCH   1   9
HETATM    9  C   UNL     1      42.749 -13.798   3.918  1.00  0.00     0.027 C 
HETATM   10  C   UNL     1      42.698 -13.439   5.418  1.00  0.00     0.035 C 
HETATM   11  C   UNL     1      42.007 -12.120   5.724  1.00  0.00     0.235 C 
HETATM   12  N   UNL     1      42.669 -10.992   4.980  1.00  0.00    -0.067 N 
HETATM   13  H   UNL     1      43.604 -10.874   5.389  1.00  0.00     0.280 HD
HETATM   14  C   UNL     1      42.831 -11.216   3.502  1.00  0.00     0.235 C 
HETATM   15  C   UNL     1      43.360 -12.602   3.166  1.00  0.00     0.035 C 
BRANCH  12  16
HETATM   16  C   UNL     1      41.953  -9.665   5.199  1.00  0.00     0.277 C 
BRANCH  16  17
HETATM   17  C   UNL     1      40.862  -9.720   6.201  1.00  0.00     0.011 A 
HETATM   18  C   UNL     1      39.476  -9.931   5.952  1.00  0.00     0.060 A 
HETATM   19  C   UNL     1      38.783 -10.125   4.650  1.00  0.00     0.073 C 
HETATM   20  N   UNL     1      38.777  -9.970   7.086  1.00  0.00    -0.178 NA
HETATM   21  N   UNL     1      39.672  -9.708   8.049  1.00  0.00    -0.284 N 
HETATM   22  C   UNL     1      39.237  -9.610   9.423  1.00  0.00     0.179 C 
HETATM   23  C   UNL     1      40.946  -9.581   7.573  1.00  0.00     0.122 A 
ENDBRANCH  16  17
ENDBRANCH  12  16
ENDBRANCH   1   9
BRANCH   1  24
HETATM   24  C   UNL     1      41.063 -15.846   3.876  1.00  0.00     0.082 C 
BRANCH  24  25
HETATM   25  C   UNL     1      42.215 -16.796   4.154  1.00  0.00    -0.034 A 
HETATM   26  C   UNL     1      42.691 -17.097   5.442  1.00  0.00     0.040 A 
HETATM   27 CL   UNL     1      42.027 -16.393   6.870  1.00  0.00    -0.084 Cl
HETATM   28  C   UNL     1      43.768 -17.975   5.622  1.00  0.00     0.024 A 
HETATM   29  C   UNL     1      44.395 -18.557   4.524  1.00  0.00     0.002 A 
HETATM   30  C   UNL     1      43.959 -18.250   3.241  1.00  0.00     0.001 A 
HETATM   31  C   UNL     1      42.890 -17.370   3.058  1.00  0.00     0.009 A 
ENDBRANCH  24  25
ENDBRANCH   1  24
BRANCH   5  32
HETATM   32  C   UNL     1      39.848 -13.899  -0.054  1.00  0.00     0.141 C 
BRANCH  32  33
HETATM   33  C   UNL     1      40.501 -12.746  -0.754  1.00  0.00     0.004 A 
HETATM   34  C   UNL     1      40.542 -12.685  -2.261  1.00  0.00     0.007 A 
HETATM   35  C   UNL     1      39.667 -11.733  -1.493  1.00  0.00     0.007 A 
ENDBRANCH  32  33
ENDBRANCH   5  32
TORSDOF 7
ENDMDL
MODEL 5
REMARK VINA RESULT:      -8.4      2.311      3.458
REMARK  7 active torsions:
REMARK  status: ('A' for Active; 'I' for Inactive)
REMARK    1  A    between atoms: C_7  and  C_8 
REMARK    2  A    between atoms: C_8  and  N_9 
REMARK    3  A    between atoms: C_13  and  C_14 
REMARK    4  A    between atoms: C_14  and  C_15 
REMARK    5  A    between atoms: C_15  and  C_16 
REMARK    6  A    between atoms: N_26  and  C_27 
REMARK    7  A    between atoms: C_27  and  C_28 
ROOT
HETATM    1  C   UNL     1      41.907 -14.652   4.144  1.00  0.00     0.123 C 
HETATM    2  N   UNL     1      40.861 -15.617   3.839  1.00  0.00    -0.324 N 
HETATM    3  C   UNL     1      40.125 -15.288   2.725  1.00  0.00     0.326 C 
HETATM    4  O   UNL     1      39.274 -16.011   2.243  1.00  0.00    -0.247 OA
HETATM    5  N   UNL     1      40.490 -14.041   2.332  1.00  0.00    -0.268 N 
HETATM    6  C   UNL     1      41.459 -13.551   3.157  1.00  0.00     0.257 C 
HETATM    7  O   UNL     1      41.916 -12.416   3.129  1.00  0.00    -0.270 OA
HETATM    8  H   UNL     1      40.784 -16.551   4.231  1.00  0.00     0.165 HD
ENDROOT
BRANCH   1   9
HETATM    9  C   UNL     1      41.840 -14.244   5.653  1.00  0.00     0.027 C 
HETATM   10  C   UNL     1      40.429 -14.262   6.275  1.00  0.00     0.035 C 
HETATM   11  C   UNL     1      39.594 -13.028   5.972  1.00  0.00     0.235 C 
HETATM   12  N   UNL     1      40.306 -11.784   6.428  1.00  0.00    -0.067 N 
HETATM   13  H   UNL     1      40.328 -11.813   7.455  1.00  0.00     0.280 HD
HETATM   14  C   UNL     1      41.720 -11.645   5.935  1.00  0.00     0.235 C 
HETATM   15  C   UNL     1      42.525 -12.929   6.070  1.00  0.00     0.035 C 
BRANCH  12  16
HETATM   16  C   UNL     1      39.535 -10.519   6.068  1.00  0.00     0.277 C 
BRANCH  16  17
HETATM   17  C   UNL     1      39.719 -10.073   4.668  1.00  0.00     0.011 A 
HETATM   18  C   UNL     1      40.577  -9.037   4.201  1.00  0.00     0.060 A 
HETATM   19  C   UNL     1      41.474  -8.146   4.984  1.00  0.00     0.073 C 
HETATM   20  N   UNL     1      40.533  -8.928   2.873  1.00  0.00    -0.178 NA
HETATM   21  N   UNL     1      39.606  -9.816   2.487  1.00  0.00    -0.284 N 
HETATM   22  C   UNL     1      39.254  -9.922   1.091  1.00  0.00     0.179 C 
HETATM   23  C   UNL     1      39.108 -10.552   3.524  1.00  0.00     0.122 A 
ENDBRANCH  16  17
ENDBRANCH  12  16
ENDBRANCH   1   9
BRANCH   1  24
HETATM   24  C   UNL     1      43.293 -15.153   3.627  1.00  0.00     0.082 C 
BRANCH  24  25
HETATM   25  C   UNL     1      43.523 -16.654   3.643  1.00  0.00    -0.034 A 
HETATM   26  C   UNL     1      44.073 -17.353   4.732  1.00  0.00     0.040 A 
HETATM   27 CL   UNL     1      44.576 -16.570   6.184  1.00  0.00    -0.084 Cl
HETATM   28  C   UNL     1      44.269 -18.739   4.671  1.00  0.00     0.024 A 
HETATM   29  C   UNL     1      43.932 -19.448   3.521  1.00  0.00     0.002 A 
HETATM   30  C   UNL     1      43.415 -18.773   2.423  1.00  0.00     0.001 A 
HETATM   31  C   UNL     1      43.225 -17.390   2.479  1.00  0.00     0.009 A 
ENDBRANCH  24  25
ENDBRANCH   1  24
BRANCH   5  32
HETATM   32  C   UNL     1      39.884 -13.317   1.235  1.00  0.00     0.141 C 
BRANCH  32  33
HETATM   33  C   UNL     1      40.442 -13.802  -0.069  1.00  0.00     0.004 A 
HETATM   34  C   UNL     1      39.537 -14.390  -1.122  1.00  0.00     0.007 A 
HETATM   35  C   UNL     1      40.171 -13.044  -1.342  1.00  0.00     0.007 A 
ENDBRANCH  32  33
ENDBRANCH   5  32
TORSDOF 7
ENDMDL
MODEL 6
REMARK VINA RESULT:      -8.4      2.268      5.007
REMARK  7 active torsions:
REMARK  status: ('A' for Active; 'I' for Inactive)
REMARK    1  A    between atoms: C_7  and  C_8 
REMARK    2  A    between atoms: C_8  and  N_9 
REMARK    3  A    between atoms: C_13  and  C_14 
REMARK    4  A    between atoms: C_14  and  C_15 
REMARK    5  A    between atoms: C_15  and  C_16 
REMARK    6  A    between atoms: N_26  and  C_27 
REMARK    7  A    between atoms: C_27  and  C_28 
ROOT
HETATM    1  C   UNL     1      41.889 -13.163   2.414  1.00  0.00     0.123 C 
HETATM    2  N   UNL     1      42.693 -14.082   1.622  1.00  0.00    -0.324 N 
HETATM    3  C   UNL     1      42.806 -15.331   2.186  1.00  0.00     0.326 C 
HETATM    4  O   UNL     1      43.347 -16.271   1.637  1.00  0.00    -0.247 OA
HETATM    5  N   UNL     1      42.265 -15.282   3.431  1.00  0.00    -0.268 N 
HETATM    6  C   UNL     1      41.787 -14.030   3.687  1.00  0.00     0.257 C 
HETATM    7  O   UNL     1      41.341 -13.641   4.758  1.00  0.00    -0.270 OA
HETATM    8  H   UNL     1      42.971 -13.944   0.655  1.00  0.00     0.165 HD
ENDROOT
BRANCH   1   9
HETATM    9  C   UNL     1      42.650 -11.809   2.603  1.00  0.00     0.027 C 
HETATM   10  C   UNL     1      43.977 -11.907   3.383  1.00  0.00     0.035 C 
HETATM   11  C   UNL     1      43.814 -11.951   4.894  1.00  0.00     0.235 C 
HETATM   12  N   UNL     1      43.057 -10.745   5.379  1.00  0.00    -0.067 N 
HETATM   13  H   UNL     1      43.664  -9.931   5.227  1.00  0.00     0.280 HD
HETATM   14  C   UNL     1      41.752 -10.491   4.677  1.00  0.00     0.235 C 
HETATM   15  C   UNL     1      41.857 -10.615   3.164  1.00  0.00     0.035 C 
BRANCH  12  16
HETATM   16  C   UNL     1      42.804 -10.795   6.881  1.00  0.00     0.277 C 
BRANCH  16  17
HETATM   17  C   UNL     1      43.288  -9.605   7.620  1.00  0.00     0.011 A 
HETATM   18  C   UNL     1      44.626  -9.329   8.022  1.00  0.00     0.060 A 
HETATM   19  C   UNL     1      45.847 -10.154   7.826  1.00  0.00     0.073 C 
HETATM   20  N   UNL     1      44.718  -8.145   8.629  1.00  0.00    -0.178 NA
HETATM   21  N   UNL     1      43.457  -7.695   8.695  1.00  0.00    -0.284 N 
HETATM   22  C   UNL     1      43.178  -6.442   9.357  1.00  0.00     0.179 C 
HETATM   23  C   UNL     1      42.562  -8.520   8.075  1.00  0.00     0.122 A 
ENDBRANCH  16  17
ENDBRANCH  12  16
ENDBRANCH   1   9
BRANCH   1  24
HETATM   24  C   UNL     1      40.438 -13.064   1.845  1.00  0.00     0.082 C 
BRANCH  24  25
HETATM   25  C   UNL     1      40.277 -13.269   0.350  1.00  0.00    -0.034 A 
HETATM   26  C   UNL     1      39.935 -14.498  -0.242  1.00  0.00     0.040 A 
HETATM   27 CL   UNL     1      39.682 -15.936   0.676  1.00  0.00    -0.084 Cl
HETATM   28  C   UNL     1      39.815 -14.617  -1.633  1.00  0.00     0.024 A 
HETATM   29  C   UNL     1      40.045 -13.518  -2.457  1.00  0.00     0.002 A 
HETATM   30  C   UNL     1      40.413 -12.302  -1.895  1.00  0.00     0.001 A 
HETATM   31  C   UNL     1      40.539 -12.183  -0.509  1.00  0.00     0.009 A 
ENDBRANCH  24  25
ENDBRANCH   1  24
BRANCH   5  32
HETATM   32  C   UNL     1      42.260 -16.385   4.367  1.00  0.00     0.141 C 
BRANCH  32  33
HETATM   33  C   UNL     1      43.605 -16.512   5.016  1.00  0.00     0.004 A 
HETATM   34  C   UNL     1      43.783 -17.342   6.262  1.00  0.00     0.007 A 
HETATM   35  C   UNL     1      44.361 -17.814   4.955  1.00  0.00     0.007 A 
ENDBRANCH  32  33
ENDBRANCH   5  32
TORSDOF 7
ENDMDL
MODEL 7
REMARK VINA RESULT:      -8.2      3.704      7.349
REMARK  7 active torsions:
REMARK  status: ('A' for Active; 'I' for Inactive)
REMARK    1  A    between atoms: C_7  and  C_8 
REMARK    2  A    between atoms: C_8  and  N_9 
REMARK    3  A    between atoms: C_13  and  C_14 
REMARK    4  A    between atoms: C_14  and  C_15 
REMARK    5  A    between atoms: C_15  and  C_16 
REMARK    6  A    between atoms: N_26  and  C_27 
REMARK    7  A    between atoms: C_27  and  C_28 
ROOT
HETATM    1  C   UNL     1      40.746 -13.296   3.138  1.00  0.00     0.123 C 
HETATM    2  N   UNL     1      39.910 -13.840   2.079  1.00  0.00    -0.324 N 
HETATM    3  C   UNL     1      40.421 -14.986   1.516  1.00  0.00     0.326 C 
HETATM    4  O   UNL     1      39.829 -15.651   0.688  1.00  0.00    -0.247 OA
HETATM    5  N   UNL     1      41.671 -15.177   2.011  1.00  0.00    -0.268 N 
HETATM    6  C   UNL     1      41.984 -14.188   2.896  1.00  0.00     0.257 C 
HETATM    7  O   UNL     1      43.073 -14.022   3.427  1.00  0.00    -0.270 OA
HETATM    8  H   UNL     1      38.947 -13.577   1.889  1.00  0.00     0.165 HD
ENDROOT
BRANCH   1   9
HETATM    9  C   UNL     1      40.985 -11.768   2.904  1.00  0.00     0.027 C 
HETATM   10  C   UNL     1      39.725 -10.884   3.007  1.00  0.00     0.035 C 
HETATM   11  C   UNL     1      38.863 -10.874   1.756  1.00  0.00     0.235 C 
HETATM   12  N   UNL     1      39.667 -10.430   0.564  1.00  0.00    -0.067 N 
HETATM   13  H   UNL     1      39.891  -9.438   0.709  1.00  0.00     0.280 HD
HETATM   14  C   UNL     1      40.956 -11.175   0.356  1.00  0.00     0.235 C 
HETATM   15  C   UNL     1      41.755 -11.349   1.639  1.00  0.00     0.035 C 
BRANCH  12  16
HETATM   16  C   UNL     1      38.856 -10.484  -0.725  1.00  0.00     0.277 C 
BRANCH  16  17
HETATM   17  C   UNL     1      39.092 -11.698  -1.542  1.00  0.00     0.011 A 
HETATM   18  C   UNL     1      39.934 -11.815  -2.684  1.00  0.00     0.060 A 
HETATM   19  C   UNL     1      40.757 -10.768  -3.346  1.00  0.00     0.073 C 
HETATM   20  N   UNL     1      39.952 -13.063  -3.151  1.00  0.00    -0.178 NA
HETATM   21  N   UNL     1      39.078 -13.729  -2.383  1.00  0.00    -0.284 N 
HETATM   22  C   UNL     1      38.799 -15.120  -2.655  1.00  0.00     0.179 C 
HETATM   23  C   UNL     1      38.556 -12.962  -1.380  1.00  0.00     0.122 A 
ENDBRANCH  16  17
ENDBRANCH  12  16
ENDBRANCH   1   9
BRANCH   1  24
HETATM   24  C   UNL     1      40.195 -13.700   4.542  1.00  0.00     0.082 C 
BRANCH  24  25
HETATM   25  C   UNL     1      41.173 -14.365   5.493  1.00  0.00    -0.034 A 
HETATM   26  C   UNL     1      42.148 -13.671   6.231  1.00  0.00     0.040 A 
HETATM   27 CL   UNL     1      42.361 -11.963   6.118  1.00  0.00    -0.084 Cl
HETATM   28  C   UNL     1      43.027 -14.354   7.081  1.00  0.00     0.024 A 
HETATM   29  C   UNL     1      42.958 -15.740   7.201  1.00  0.00     0.002 A 
HETATM   30  C   UNL     1      42.021 -16.448   6.459  1.00  0.00     0.001 A 
HETATM   31  C   UNL     1      41.148 -15.770   5.606  1.00  0.00     0.009 A 
ENDBRANCH  24  25
ENDBRANCH   1  24
BRANCH   5  32
HETATM   32  C   UNL     1      42.561 -16.242   1.601  1.00  0.00     0.141 C 
BRANCH  32  33
HETATM   33  C   UNL     1      42.426 -17.409   2.533  1.00  0.00     0.004 A 
HETATM   34  C   UNL     1      43.170 -18.694   2.268  1.00  0.00     0.007 A 
HETATM   35  C   UNL     1      43.576 -17.813   3.418  1.00  0.00     0.007 A 
ENDBRANCH  32  33
ENDBRANCH   5  32
TORSDOF 7
ENDMDL
MODEL 8
REMARK VINA RESULT:      -8.1      1.791      2.431
REMARK  7 active torsions:
REMARK  status: ('A' for Active; 'I' for Inactive)
REMARK    1  A    between atoms: C_7  and  C_8 
REMARK    2  A    between atoms: C_8  and  N_9 
REMARK    3  A    between atoms: C_13  and  C_14 
REMARK    4  A    between atoms: C_14  and  C_15 
REMARK    5  A    between atoms: C_15  and  C_16 
REMARK    6  A    between atoms: N_26  and  C_27 
REMARK    7  A    between atoms: C_27  and  C_28 
ROOT
HETATM    1  C   UNL     1      41.515 -14.127   3.588  1.00  0.00     0.123 C 
HETATM    2  N   UNL     1      40.580 -13.179   4.175  1.00  0.00    -0.324 N 
HETATM    3  C   UNL     1      39.700 -12.647   3.262  1.00  0.00     0.326 C 
HETATM    4  O   UNL     1      38.776 -11.916   3.564  1.00  0.00    -0.247 OA
HETATM    5  N   UNL     1      40.087 -13.044   2.022  1.00  0.00    -0.268 N 
HETATM    6  C   UNL     1      41.194 -13.836   2.106  1.00  0.00     0.257 C 
HETATM    7  O   UNL     1      41.842 -14.261   1.159  1.00  0.00    -0.270 OA
HETATM    8  H   UNL     1      40.404 -13.056   5.168  1.00  0.00     0.165 HD
ENDROOT
BRANCH   1   9
HETATM    9  C   UNL     1      42.978 -13.779   4.021  1.00  0.00     0.027 C 
HETATM   10  C   UNL     1      43.257 -13.889   5.534  1.00  0.00     0.035 C 
HETATM   11  C   UNL     1      42.800 -12.688   6.345  1.00  0.00     0.235 C 
HETATM   12  N   UNL     1      43.439 -11.428   5.828  1.00  0.00    -0.067 N 
HETATM   13  H   UNL     1      44.442 -11.494   6.040  1.00  0.00     0.280 HD
HETATM   14  C   UNL     1      43.289 -11.202   4.349  1.00  0.00     0.235 C 
HETATM   15  C   UNL     1      43.574 -12.449   3.525  1.00  0.00     0.035 C 
BRANCH  12  16
HETATM   16  C   UNL     1      42.943 -10.190   6.566  1.00  0.00     0.277 C 
BRANCH  16  17
HETATM   17  C   UNL     1      43.498 -10.032   7.931  1.00  0.00     0.011 A 
HETATM   18  C   UNL     1      44.855 -10.190   8.331  1.00  0.00     0.060 A 
HETATM   19  C   UNL     1      46.033 -10.564   7.502  1.00  0.00     0.073 C 
HETATM   20  N   UNL     1      45.016  -9.928   9.628  1.00  0.00    -0.178 NA
HETATM   21  N   UNL     1      43.778  -9.686  10.084  1.00  0.00    -0.284 N 
HETATM   22  C   UNL     1      43.572  -9.421  11.488  1.00  0.00     0.179 C 
HETATM   23  C   UNL     1      42.833  -9.705   9.098  1.00  0.00     0.122 A 
ENDBRANCH  16  17
ENDBRANCH  12  16
ENDBRANCH   1   9
BRANCH   1  24
HETATM   24  C   UNL     1      41.052 -15.595   3.847  1.00  0.00     0.082 C 
BRANCH  24  25
HETATM   25  C   UNL     1      42.092 -16.549   4.408  1.00  0.00    -0.034 A 
HETATM   26  C   UNL     1      43.048 -17.218   3.623  1.00  0.00     0.040 A 
HETATM   27 CL   UNL     1      43.132 -17.048   1.909  1.00  0.00    -0.084 Cl
HETATM   28  C   UNL     1      43.971 -18.095   4.209  1.00  0.00     0.024 A 
HETATM   29  C   UNL     1      43.949 -18.328   5.581  1.00  0.00     0.002 A 
HETATM   30  C   UNL     1      42.994 -17.700   6.371  1.00  0.00     0.001 A 
HETATM   31  C   UNL     1      42.069 -16.830   5.789  1.00  0.00     0.009 A 
ENDBRANCH  24  25
ENDBRANCH   1  24
BRANCH   5  32
HETATM   32  C   UNL     1      39.449 -12.628   0.792  1.00  0.00     0.141 C 
BRANCH  32  33
HETATM   33  C   UNL     1      40.174 -11.451   0.212  1.00  0.00     0.004 A 
HETATM   34  C   UNL     1      40.900 -11.567  -1.105  1.00  0.00     0.007 A 
HETATM   35  C   UNL     1      39.639 -10.752  -1.010  1.00  0.00     0.007 A 
ENDBRANCH  32  33
ENDBRANCH   5  32
TORSDOF 7
ENDMDL
MODEL 9
REMARK VINA RESULT:      -8.1      2.110      2.857
REMARK  7 active torsions:
REMARK  status: ('A' for Active; 'I' for Inactive)
REMARK    1  A    between atoms: C_7  and  C_8 
REMARK    2  A    between atoms: C_8  and  N_9 
REMARK    3  A    between atoms: C_13  and  C_14 
REMARK    4  A    between atoms: C_14  and  C_15 
REMARK    5  A    between atoms: C_15  and  C_16 
REMARK    6  A    between atoms: N_26  and  C_27 
REMARK    7  A    between atoms: C_27  and  C_28 
ROOT
HETATM    1  C   UNL     1      41.229 -13.915   3.571  1.00  0.00     0.123 C 
HETATM    2  N   UNL     1      39.995 -13.155   3.703  1.00  0.00    -0.324 N 
HETATM    3  C   UNL     1      39.511 -12.691   2.502  1.00  0.00     0.326 C 
HETATM    4  O   UNL     1      38.442 -12.124   2.382  1.00  0.00    -0.247 OA
HETATM    5  N   UNL     1      40.444 -12.939   1.548  1.00  0.00    -0.268 N 
HETATM    6  C   UNL     1      41.523 -13.568   2.095  1.00  0.00     0.257 C 
HETATM    7  O   UNL     1      42.570 -13.826   1.516  1.00  0.00    -0.270 OA
HETATM    8  H   UNL     1      39.399 -13.131   4.525  1.00  0.00     0.165 HD
ENDROOT
BRANCH   1   9
HETATM    9  C   UNL     1      42.295 -13.392   4.591  1.00  0.00     0.027 C 
HETATM   10  C   UNL     1      41.737 -12.977   5.967  1.00  0.00     0.035 C 
HETATM   11  C   UNL     1      41.119 -11.589   6.001  1.00  0.00     0.235 C 
HETATM   12  N   UNL     1      42.118 -10.556   5.555  1.00  0.00    -0.067 N 
HETATM   13  H   UNL     1      42.845 -10.513   6.278  1.00  0.00     0.280 HD
HETATM   14  C   UNL     1      42.785 -10.846   4.239  1.00  0.00     0.235 C 
HETATM   15  C   UNL     1      43.257 -12.287   4.117  1.00  0.00     0.035 C 
BRANCH  12  16
HETATM   16  C   UNL     1      41.509  -9.159   5.499  1.00  0.00     0.277 C 
BRANCH  16  17
HETATM   17  C   UNL     1      41.935  -8.265   6.600  1.00  0.00     0.011 A 
HETATM   18  C   UNL     1      41.981  -6.843   6.585  1.00  0.00     0.060 A 
HETATM   19  C   UNL     1      41.639  -5.912   5.476  1.00  0.00     0.073 C 
HETATM   20  N   UNL     1      42.370  -6.354   7.762  1.00  0.00    -0.178 NA
HETATM   21  N   UNL     1      42.650  -7.433   8.506  1.00  0.00    -0.284 N 
HETATM   22  C   UNL     1      43.166  -7.267   9.844  1.00  0.00     0.179 C 
HETATM   23  C   UNL     1      42.377  -8.608   7.865  1.00  0.00     0.122 A 
ENDBRANCH  16  17
ENDBRANCH  12  16
ENDBRANCH   1   9
BRANCH   1  24
HETATM   24  C   UNL     1      40.943 -15.449   3.602  1.00  0.00     0.082 C 
BRANCH  24  25
HETATM   25  C   UNL     1      41.967 -16.320   4.307  1.00  0.00    -0.034 A 
HETATM   26  C   UNL     1      43.027 -16.972   3.653  1.00  0.00     0.040 A 
HETATM   27 CL   UNL     1      43.271 -16.876   1.949  1.00  0.00    -0.084 Cl
HETATM   28  C   UNL     1      43.929 -17.772   4.368  1.00  0.00     0.024 A 
HETATM   29  C   UNL     1      43.783 -17.943   5.742  1.00  0.00     0.002 A 
HETATM   30  C   UNL     1      42.725 -17.331   6.404  1.00  0.00     0.001 A 
HETATM   31  C   UNL     1      41.822 -16.539   5.692  1.00  0.00     0.009 A 
ENDBRANCH  24  25
ENDBRANCH   1  24
BRANCH   5  32
HETATM   32  C   UNL     1      40.329 -12.531   0.164  1.00  0.00     0.141 C 
BRANCH  32  33
HETATM   33  C   UNL     1      39.407 -13.458  -0.569  1.00  0.00     0.004 A 
HETATM   34  C   UNL     1      39.826 -14.089  -1.873  1.00  0.00     0.007 A 
HETATM   35  C   UNL     1      39.703 -14.933  -0.634  1.00  0.00     0.007 A 
ENDBRANCH  32  33
ENDBRANCH   5  32
TORSDOF 7
ENDMDL
MODEL 10
REMARK VINA RESULT:      -8.0      2.337      3.195
REMARK  7 active torsions:
REMARK  status: ('A' for Active; 'I' for Inactive)
REMARK    1  A    between atoms: C_7  and  C_8 
REMARK    2  A    between atoms: C_8  and  N_9 
REMARK    3  A    between atoms: C_13  and  C_14 
REMARK    4  A    between atoms: C_14  and  C_15 
REMARK    5  A    between atoms: C_15  and  C_16 
REMARK    6  A    between atoms: N_26  and  C_27 
REMARK    7  A    between atoms: C_27  and  C_28 
ROOT
HETATM    1  C   UNL     1      41.593 -14.223   5.059  1.00  0.00     0.123 C 
HETATM    2  N   UNL     1      40.916 -13.475   6.107  1.00  0.00    -0.324 N 
HETATM    3  C   UNL     1      39.796 -12.811   5.665  1.00  0.00     0.326 C 
HETATM    4  O   UNL     1      39.033 -12.214   6.401  1.00  0.00    -0.247 OA
HETATM    5  N   UNL     1      39.752 -12.913   4.312  1.00  0.00    -0.268 N 
HETATM    6  C   UNL     1      40.813 -13.641   3.860  1.00  0.00     0.257 C 
HETATM    7  O   UNL     1      41.110 -13.818   2.686  1.00  0.00    -0.270 OA
HETATM    8  H   UNL     1      41.074 -13.577   7.105  1.00  0.00     0.165 HD
ENDROOT
BRANCH   1   9
HETATM    9  C   UNL     1      43.123 -13.894   5.065  1.00  0.00     0.027 C 
HETATM   10  C   UNL     1      43.757 -13.757   6.465  1.00  0.00     0.035 C 
HETATM   11  C   UNL     1      43.531 -12.407   7.126  1.00  0.00     0.235 C 
HETATM   12  N   UNL     1      44.048 -11.297   6.251  1.00  0.00    -0.067 N 
HETATM   13  H   UNL     1      45.071 -11.386   6.230  1.00  0.00     0.280 HD
HETATM   14  C   UNL     1      43.548 -11.323   4.833  1.00  0.00     0.235 C 
HETATM   15  C   UNL     1      43.604 -12.709   4.209  1.00  0.00     0.035 C 
BRANCH  12  16
HETATM   16  C   UNL     1      43.766  -9.922   6.846  1.00  0.00     0.277 C 
BRANCH  16  17
HETATM   17  C   UNL     1      42.337  -9.673   7.151  1.00  0.00     0.011 A 
HETATM   18  C   UNL     1      41.362  -9.095   6.289  1.00  0.00     0.060 A 
HETATM   19  C   UNL     1      41.530  -8.586   4.901  1.00  0.00     0.073 C 
HETATM   20  N   UNL     1      40.161  -9.059   6.866  1.00  0.00    -0.178 NA
HETATM   21  N   UNL     1      40.362  -9.528   8.106  1.00  0.00    -0.284 N 
HETATM   22  C   UNL     1      39.263  -9.572   9.042  1.00  0.00     0.179 C 
HETATM   23  C   UNL     1      41.647  -9.940   8.318  1.00  0.00     0.122 A 
ENDBRANCH  16  17
ENDBRANCH  12  16
ENDBRANCH   1   9
BRANCH   1  24
HETATM   24  C   UNL     1      41.214 -15.736   5.124  1.00  0.00     0.082 C 
BRANCH  24  25
HETATM   25  C   UNL     1      42.244 -16.719   4.595  1.00  0.00    -0.034 A 
HETATM   26  C   UNL     1      43.146 -17.426   5.409  1.00  0.00     0.040 A 
HETATM   27 CL   UNL     1      43.203 -17.235   7.122  1.00  0.00    -0.084 Cl
HETATM   28  C   UNL     1      44.078 -18.309   4.849  1.00  0.00     0.024 A 
HETATM   29  C   UNL     1      44.135 -18.494   3.470  1.00  0.00     0.002 A 
HETATM   30  C   UNL     1      43.272 -17.783   2.645  1.00  0.00     0.001 A 
HETATM   31  C   UNL     1      42.346 -16.897   3.200  1.00  0.00     0.009 A 
ENDBRANCH  24  25
ENDBRANCH   1  24
BRANCH   5  32
HETATM   32  C   UNL     1      38.757 -12.279   3.474  1.00  0.00     0.141 C 
BRANCH  32  33
HETATM   33  C   UNL     1      39.170 -10.874   3.160  1.00  0.00     0.004 A 
HETATM   34  C   UNL     1      38.372 -10.035   2.194  1.00  0.00     0.007 A 
HETATM   35  C   UNL     1      38.358  -9.710   3.663  1.00  0.00     0.007 A 
ENDBRANCH  32  33
ENDBRANCH   5  32
TORSDOF 7
ENDMDL
