MODEL 1
REMARK VINA RESULT:      -9.3      0.000      0.000
REMARK  4 active torsions:
REMARK  status: ('A' for Active; 'I' for Inactive)
REMARK       I    between atoms: C_2  and  N_3 
REMARK    1  A    between atoms: N_3  and  C_4 
REMARK    2  A    between atoms: C_7  and  C_8 
REMARK    3  A    between atoms: C_12  and  N_13 
REMARK    4  A    between atoms: C_20  and  C_21 
ROOT
HETATM    1  C   UNL     1      43.624 -16.798   4.293  1.00  0.00     0.105 C 
HETATM    2  C   UNL     1      43.731 -18.318   4.425  1.00  0.00     0.067 C 
HETATM    3  C   UNL     1      43.805 -19.143   3.151  1.00  0.00     0.020 C 
HETATM    4  N   UNL     1      43.867 -19.828   2.093  1.00  0.00    -0.096 N 
HETATM    5  C   UNL     1      43.728 -18.961   5.623  1.00  0.00     0.139 C 
HETATM    6  O   UNL     1      43.595 -18.263   6.834  1.00  0.00    -0.279 OA
HETATM    7  C   UNL     1      43.299 -16.972   6.737  1.00  0.00     0.175 A 
HETATM    8  C   UNL     1      43.249 -16.189   5.609  1.00  0.00     0.040 A 
HETATM    9  N   UNL     1      42.932 -16.196   7.783  1.00  0.00    -0.256 N 
HETATM   10  H   UNL     1      42.852 -16.454   8.760  1.00  0.00     0.191 HD
HETATM   11  N   UNL     1      42.606 -14.947   7.414  1.00  0.00    -0.172 NA
HETATM   12  C   UNL     1      42.788 -14.923   6.078  1.00  0.00     0.099 A 
ENDROOT
BRANCH   1  13
HETATM   13  C   UNL     1      42.649 -16.317   3.234  1.00  0.00    -0.044 A 
HETATM   14  C   UNL     1      41.262 -16.518   3.310  1.00  0.00     0.010 A 
HETATM   15  C   UNL     1      40.403 -15.981   2.341  1.00  0.00     0.030 A 
HETATM   16  C   UNL     1      40.912 -15.258   1.262  1.00  0.00     0.034 A 
HETATM   17  C   UNL     1      42.298 -15.112   1.144  1.00  0.00     0.030 A 
HETATM   18  C   UNL     1      43.155 -15.636   2.114  1.00  0.00     0.010 A 
BRANCH  16  19
HETATM   19  N   UNL     1      40.123 -14.635   0.273  1.00  0.00    -0.328 N 
HETATM   20  C   UNL     1      39.864 -13.285   0.127  1.00  0.00     0.218 C 
HETATM   21  C   UNL     1      39.046 -12.988  -1.107  1.00  0.00     0.117 C 
HETATM   22  O   UNL     1      40.256 -12.375   0.849  1.00  0.00    -0.274 OA
HETATM   23  H   UNL     1      39.747 -15.248  -0.438  1.00  0.00     0.169 HD
ENDBRANCH  16  19
ENDBRANCH   1  13
BRANCH   5  24
HETATM   24  N   UNL     1      43.840 -20.320   5.805  1.00  0.00    -0.282 NA
HETATM   25  H   UNL     1      44.773 -20.712   5.702  1.00  0.00     0.126 HD
HETATM   26  H   UNL     1      43.358 -20.640   6.641  1.00  0.00     0.126 HD
ENDBRANCH   5  24
BRANCH  12  27
HETATM   27  C   UNL     1      42.448 -13.722   5.322  1.00  0.00    -0.005 A 
HETATM   28  C   UNL     1      43.433 -12.940   4.710  1.00  0.00     0.014 A 
HETATM   29  C   UNL     1      43.071 -11.820   3.955  1.00  0.00     0.001 A 
HETATM   30  C   UNL     1      41.727 -11.472   3.815  1.00  0.00     0.000 A 
HETATM   31  C   UNL     1      40.741 -12.236   4.436  1.00  0.00     0.001 A 
HETATM   32  C   UNL     1      41.101 -13.353   5.190  1.00  0.00     0.014 A 
ENDBRANCH  12  27
TORSDOF 4
ENDMDL
MODEL 2
REMARK VINA RESULT:      -9.1      2.125      6.018
REMARK  4 active torsions:
REMARK  status: ('A' for Active; 'I' for Inactive)
REMARK       I    between atoms: C_2  and  N_3 
REMARK    1  A    between atoms: N_3  and  C_4 
REMARK    2  A    between atoms: C_7  and  C_8 
REMARK    3  A    between atoms: C_12  and  N_13 
REMARK    4  A    between atoms: C_20  and  C_21 
ROOT
HETATM    1  C   UNL     1      41.630 -13.072   3.343  1.00  0.00     0.105 C 
HETATM    2  C   UNL     1      41.571 -12.063   2.195  1.00  0.00     0.067 C 
HETATM    3  C   UNL     1      40.913 -12.496   0.896  1.00  0.00     0.020 C 
HETATM    4  N   UNL     1      40.367 -12.855  -0.183  1.00  0.00    -0.096 N 
HETATM    5  C   UNL     1      42.108 -10.816   2.275  1.00  0.00     0.139 C 
HETATM    6  O   UNL     1      42.789 -10.378   3.422  1.00  0.00    -0.279 OA
HETATM    7  C   UNL     1      43.028 -11.299   4.348  1.00  0.00     0.175 A 
HETATM    8  C   UNL     1      42.573 -12.594   4.405  1.00  0.00     0.040 A 
HETATM    9  N   UNL     1      43.843 -11.111   5.412  1.00  0.00    -0.256 N 
HETATM   10  H   UNL     1      44.354 -10.276   5.674  1.00  0.00     0.191 HD
HETATM   11  N   UNL     1      43.985 -12.218   6.159  1.00  0.00    -0.172 NA
HETATM   12  C   UNL     1      43.216 -13.145   5.552  1.00  0.00     0.099 A 
ENDROOT
BRANCH   1  13
HETATM   13  C   UNL     1      42.025 -14.480   2.935  1.00  0.00    -0.044 A 
HETATM   14  C   UNL     1      43.206 -14.782   2.240  1.00  0.00     0.010 A 
HETATM   15  C   UNL     1      43.555 -16.111   1.959  1.00  0.00     0.030 A 
HETATM   16  C   UNL     1      42.721 -17.161   2.342  1.00  0.00     0.034 A 
HETATM   17  C   UNL     1      41.511 -16.862   2.975  1.00  0.00     0.030 A 
HETATM   18  C   UNL     1      41.166 -15.541   3.265  1.00  0.00     0.010 A 
BRANCH  16  19
HETATM   19  N   UNL     1      43.018 -18.527   2.154  1.00  0.00    -0.328 N 
HETATM   20  C   UNL     1      43.837 -19.327   2.928  1.00  0.00     0.218 C 
HETATM   21  C   UNL     1      43.840 -20.764   2.464  1.00  0.00     0.117 C 
HETATM   22  O   UNL     1      44.481 -18.989   3.915  1.00  0.00    -0.274 OA
HETATM   23  H   UNL     1      42.531 -18.980   1.391  1.00  0.00     0.169 HD
ENDBRANCH  16  19
ENDBRANCH   1  13
BRANCH   5  24
HETATM   24  N   UNL     1      42.070  -9.862   1.285  1.00  0.00    -0.282 NA
HETATM   25  H   UNL     1      42.883  -9.255   1.213  1.00  0.00     0.126 HD
HETATM   26  H   UNL     1      41.771 -10.242   0.391  1.00  0.00     0.126 HD
ENDBRANCH   5  24
BRANCH  12  27
HETATM   27  C   UNL     1      43.194 -14.513   6.060  1.00  0.00    -0.005 A 
HETATM   28  C   UNL     1      42.061 -15.043   6.685  1.00  0.00     0.014 A 
HETATM   29  C   UNL     1      42.057 -16.372   7.121  1.00  0.00     0.001 A 
HETATM   30  C   UNL     1      43.185 -17.173   6.941  1.00  0.00     0.000 A 
HETATM   31  C   UNL     1      44.323 -16.648   6.334  1.00  0.00     0.001 A 
HETATM   32  C   UNL     1      44.329 -15.323   5.900  1.00  0.00     0.014 A 
ENDBRANCH  12  27
TORSDOF 4
ENDMDL
MODEL 3
REMARK VINA RESULT:      -7.8      2.301      6.456
REMARK  4 active torsions:
REMARK  status: ('A' for Active; 'I' for Inactive)
REMARK       I    between atoms: C_2  and  N_3 
REMARK    1  A    between atoms: N_3  and  C_4 
REMARK    2  A    between atoms: C_7  and  C_8 
REMARK    3  A    between atoms: C_12  and  N_13 
REMARK    4  A    between atoms: C_20  and  C_21 
ROOT
HETATM    1  C   UNL     1      40.029 -12.988   1.131  1.00  0.00     0.105 C 
HETATM    2  C   UNL     1      39.938 -12.773  -0.380  1.00  0.00     0.067 C 
HETATM    3  C   UNL     1      39.497 -13.943  -1.243  1.00  0.00     0.020 C 
HETATM    4  N   UNL     1      39.130 -14.914  -1.960  1.00  0.00    -0.096 N 
HETATM    5  C   UNL     1      40.266 -11.599  -0.984  1.00  0.00     0.139 C 
HETATM    6  O   UNL     1      40.745 -10.502  -0.252  1.00  0.00    -0.279 OA
HETATM    7  C   UNL     1      41.023 -10.727   1.027  1.00  0.00     0.175 A 
HETATM    8  C   UNL     1      40.769 -11.853   1.772  1.00  0.00     0.040 A 
HETATM    9  N   UNL     1      41.682  -9.855   1.825  1.00  0.00    -0.256 N 
HETATM   10  H   UNL     1      42.027  -8.930   1.597  1.00  0.00     0.191 HD
HETATM   11  N   UNL     1      41.912 -10.347   3.053  1.00  0.00    -0.172 NA
HETATM   12  C   UNL     1      41.364 -11.580   3.039  1.00  0.00     0.099 A 
ENDROOT
BRANCH   1  13
HETATM   13  C   UNL     1      40.677 -14.294   1.552  1.00  0.00    -0.044 A 
HETATM   14  C   UNL     1      40.011 -15.289   2.284  1.00  0.00     0.010 A 
HETATM   15  C   UNL     1      40.637 -16.508   2.576  1.00  0.00     0.030 A 
HETATM   16  C   UNL     1      41.950 -16.749   2.170  1.00  0.00     0.034 A 
HETATM   17  C   UNL     1      42.642 -15.736   1.501  1.00  0.00     0.030 A 
HETATM   18  C   UNL     1      42.017 -14.524   1.198  1.00  0.00     0.010 A 
BRANCH  16  19
HETATM   19  N   UNL     1      42.639 -17.963   2.369  1.00  0.00    -0.328 N 
HETATM   20  C   UNL     1      43.540 -18.267   3.371  1.00  0.00     0.218 C 
HETATM   21  C   UNL     1      44.007 -19.702   3.309  1.00  0.00     0.117 C 
HETATM   22  O   UNL     1      43.929 -17.524   4.266  1.00  0.00    -0.274 OA
HETATM   23  H   UNL     1      42.402 -18.711   1.730  1.00  0.00     0.169 HD
ENDBRANCH  16  19
ENDBRANCH   1  13
BRANCH   5  24
HETATM   24  N   UNL     1      40.187 -11.342  -2.333  1.00  0.00    -0.282 NA
HETATM   25  H   UNL     1      40.675 -10.513  -2.663  1.00  0.00     0.126 HD
HETATM   26  H   UNL     1      40.369 -12.168  -2.897  1.00  0.00     0.126 HD
ENDBRANCH   5  24
BRANCH  12  27
HETATM   27  C   UNL     1      41.499 -12.446   4.206  1.00  0.00    -0.005 A 
HETATM   28  C   UNL     1      40.403 -12.751   5.021  1.00  0.00     0.014 A 
HETATM   29  C   UNL     1      40.557 -13.620   6.106  1.00  0.00     0.001 A 
HETATM   30  C   UNL     1      41.803 -14.181   6.386  1.00  0.00     0.000 A 
HETATM   31  C   UNL     1      42.903 -13.868   5.589  1.00  0.00     0.001 A 
HETATM   32  C   UNL     1      42.752 -13.001   4.507  1.00  0.00     0.014 A 
ENDBRANCH  12  27
TORSDOF 4
ENDMDL
MODEL 4
REMARK VINA RESULT:      -7.7      1.991      2.929
REMARK  4 active torsions:
REMARK  status: ('A' for Active; 'I' for Inactive)
REMARK       I    between atoms: C_2  and  N_3 
REMARK    1  A    between atoms: N_3  and  C_4 
REMARK    2  A    between atoms: C_7  and  C_8 
REMARK    3  A    between atoms: C_12  and  N_13 
REMARK    4  A    between atoms: C_20  and  C_21 
ROOT
HETATM    1  C   UNL     1      42.119 -14.795   3.889  1.00  0.00     0.105 C 
HETATM    2  C   UNL     1      42.605 -16.124   4.468  1.00  0.00     0.067 C 
HETATM    3  C   UNL     1      43.290 -17.105   3.532  1.00  0.00     0.020 C 
HETATM    4  N   UNL     1      43.859 -17.919   2.754  1.00  0.00    -0.096 N 
HETATM    5  C   UNL     1      42.420 -16.479   5.769  1.00  0.00     0.139 C 
HETATM    6  O   UNL     1      41.736 -15.648   6.670  1.00  0.00    -0.279 OA
HETATM    7  C   UNL     1      41.132 -14.588   6.146  1.00  0.00     0.175 A 
HETATM    8  C   UNL     1      41.207 -14.109   4.860  1.00  0.00     0.040 A 
HETATM    9  N   UNL     1      40.263 -13.799   6.820  1.00  0.00    -0.256 N 
HETATM   10  H   UNL     1      39.967 -13.872   7.786  1.00  0.00     0.191 HD
HETATM   11  N   UNL     1      39.726 -12.841   6.048  1.00  0.00    -0.172 NA
HETATM   12  C   UNL     1      40.289 -13.018   4.835  1.00  0.00     0.099 A 
ENDROOT
BRANCH   1  13
HETATM   13  C   UNL     1      41.415 -14.902   2.549  1.00  0.00    -0.044 A 
HETATM   14  C   UNL     1      40.364 -15.796   2.295  1.00  0.00     0.010 A 
HETATM   15  C   UNL     1      39.700 -15.795   1.060  1.00  0.00     0.030 A 
HETATM   16  C   UNL     1      40.090 -14.922   0.044  1.00  0.00     0.034 A 
HETATM   17  C   UNL     1      41.181 -14.076   0.267  1.00  0.00     0.030 A 
HETATM   18  C   UNL     1      41.836 -14.067   1.500  1.00  0.00     0.010 A 
BRANCH  16  19
HETATM   19  N   UNL     1      39.446 -14.810  -1.206  1.00  0.00    -0.328 N 
HETATM   20  C   UNL     1      38.695 -13.750  -1.676  1.00  0.00     0.218 C 
HETATM   21  C   UNL     1      38.238 -13.958  -3.100  1.00  0.00     0.117 C 
HETATM   22  O   UNL     1      38.427 -12.713  -1.080  1.00  0.00    -0.274 OA
HETATM   23  H   UNL     1      39.599 -15.578  -1.847  1.00  0.00     0.169 HD
ENDBRANCH  16  19
ENDBRANCH   1  13
BRANCH   5  24
HETATM   24  N   UNL     1      42.850 -17.649   6.349  1.00  0.00    -0.282 NA
HETATM   25  H   UNL     1      42.865 -18.470   5.749  1.00  0.00     0.126 HD
HETATM   26  H   UNL     1      43.707 -17.526   6.884  1.00  0.00     0.126 HD
ENDBRANCH   5  24
BRANCH  12  27
HETATM   27  C   UNL     1      39.869 -12.185   3.713  1.00  0.00    -0.005 A 
HETATM   28  C   UNL     1      38.725 -12.485   2.967  1.00  0.00     0.014 A 
HETATM   29  C   UNL     1      38.325 -11.642   1.925  1.00  0.00     0.001 A 
HETATM   30  C   UNL     1      39.069 -10.501   1.621  1.00  0.00     0.000 A 
HETATM   31  C   UNL     1      40.219 -10.204   2.348  1.00  0.00     0.001 A 
HETATM   32  C   UNL     1      40.619 -11.045   3.387  1.00  0.00     0.014 A 
ENDBRANCH  12  27
TORSDOF 4
ENDMDL
MODEL 5
REMARK VINA RESULT:      -7.5      9.994     13.050
REMARK  4 active torsions:
REMARK  status: ('A' for Active; 'I' for Inactive)
REMARK       I    between atoms: C_2  and  N_3 
REMARK    1  A    between atoms: N_3  and  C_4 
REMARK    2  A    between atoms: C_7  and  C_8 
REMARK    3  A    between atoms: C_12  and  N_13 
REMARK    4  A    between atoms: C_20  and  C_21 
ROOT
HETATM    1  C   UNL     1      42.080  -8.165  10.562  1.00  0.00     0.105 C 
HETATM    2  C   UNL     1      43.452  -8.490   9.970  1.00  0.00     0.067 C 
HETATM    3  C   UNL     1      44.223  -9.663  10.552  1.00  0.00     0.020 C 
HETATM    4  N   UNL     1      44.863 -10.637  11.036  1.00  0.00    -0.096 N 
HETATM    5  C   UNL     1      44.023  -7.758   8.976  1.00  0.00     0.139 C 
HETATM    6  O   UNL     1      43.395  -6.623   8.441  1.00  0.00    -0.279 OA
HETATM    7  C   UNL     1      42.304  -6.205   9.073  1.00  0.00     0.175 A 
HETATM    8  C   UNL     1      41.619  -6.819  10.094  1.00  0.00     0.040 A 
HETATM    9  N   UNL     1      41.691  -5.023   8.829  1.00  0.00    -0.256 N 
HETATM   10  H   UNL     1      41.938  -4.316   8.147  1.00  0.00     0.191 HD
HETATM   11  N   UNL     1      40.656  -4.796   9.654  1.00  0.00    -0.172 NA
HETATM   12  C   UNL     1      40.598  -5.886  10.445  1.00  0.00     0.099 A 
ENDROOT
BRANCH   1  13
HETATM   13  C   UNL     1      42.013  -8.207  12.078  1.00  0.00    -0.044 A 
HETATM   14  C   UNL     1      42.840  -7.438  12.911  1.00  0.00     0.010 A 
HETATM   15  C   UNL     1      42.678  -7.460  14.303  1.00  0.00     0.030 A 
HETATM   16  C   UNL     1      41.707  -8.269  14.894  1.00  0.00     0.034 A 
HETATM   17  C   UNL     1      40.926  -9.088  14.074  1.00  0.00     0.030 A 
HETATM   18  C   UNL     1      41.077  -9.060  12.686  1.00  0.00     0.010 A 
BRANCH  16  19
HETATM   19  N   UNL     1      41.435  -8.312  16.277  1.00  0.00    -0.328 N 
HETATM   20  C   UNL     1      40.640  -7.450  17.007  1.00  0.00     0.218 C 
HETATM   21  C   UNL     1      40.517  -7.868  18.453  1.00  0.00     0.117 C 
HETATM   22  O   UNL     1      40.038  -6.466  16.590  1.00  0.00    -0.274 OA
HETATM   23  H   UNL     1      41.831  -9.098  16.777  1.00  0.00     0.169 HD
ENDBRANCH  16  19
ENDBRANCH   1  13
BRANCH   5  24
HETATM   24  N   UNL     1      45.243  -8.012   8.393  1.00  0.00    -0.282 NA
HETATM   25  H   UNL     1      45.231  -8.222   7.398  1.00  0.00     0.126 HD
HETATM   26  H   UNL     1      45.947  -7.325   8.651  1.00  0.00     0.126 HD
ENDBRANCH   5  24
BRANCH  12  27
HETATM   27  C   UNL     1      39.622  -5.944  11.529  1.00  0.00    -0.005 A 
HETATM   28  C   UNL     1      38.484  -6.752  11.444  1.00  0.00     0.014 A 
HETATM   29  C   UNL     1      37.590  -6.819  12.518  1.00  0.00     0.001 A 
HETATM   30  C   UNL     1      37.826  -6.077  13.675  1.00  0.00     0.000 A 
HETATM   31  C   UNL     1      38.949  -5.257  13.761  1.00  0.00     0.001 A 
HETATM   32  C   UNL     1      39.841  -5.188  12.690  1.00  0.00     0.014 A 
ENDBRANCH  12  27
TORSDOF 4
ENDMDL
MODEL 6
REMARK VINA RESULT:      -7.5     14.459     16.507
REMARK  4 active torsions:
REMARK  status: ('A' for Active; 'I' for Inactive)
REMARK       I    between atoms: C_2  and  N_3 
REMARK    1  A    between atoms: N_3  and  C_4 
REMARK    2  A    between atoms: C_7  and  C_8 
REMARK    3  A    between atoms: C_12  and  N_13 
REMARK    4  A    between atoms: C_20  and  C_21 
ROOT
HETATM    1  C   UNL     1      46.753 -29.089   1.224  1.00  0.00     0.105 C 
HETATM    2  C   UNL     1      47.238 -29.563   2.595  1.00  0.00     0.067 C 
HETATM    3  C   UNL     1      48.736 -29.662   2.829  1.00  0.00     0.020 C 
HETATM    4  N   UNL     1      49.980 -29.744   3.023  1.00  0.00    -0.096 N 
HETATM    5  C   UNL     1      46.392 -29.930   3.595  1.00  0.00     0.139 C 
HETATM    6  O   UNL     1      45.000 -29.926   3.422  1.00  0.00    -0.279 OA
HETATM    7  C   UNL     1      44.564 -29.715   2.186  1.00  0.00     0.175 A 
HETATM    8  C   UNL     1      45.286 -29.353   1.074  1.00  0.00     0.040 A 
HETATM    9  N   UNL     1      43.278 -29.881   1.795  1.00  0.00    -0.256 N 
HETATM   10  H   UNL     1      42.480 -30.154   2.357  1.00  0.00     0.191 HD
HETATM   11  N   UNL     1      43.106 -29.683   0.478  1.00  0.00    -0.172 NA
HETATM   12  C   UNL     1      44.332 -29.364   0.014  1.00  0.00     0.099 A 
ENDROOT
BRANCH   1  13
HETATM   13  C   UNL     1      47.483 -29.701   0.043  1.00  0.00    -0.044 A 
HETATM   14  C   UNL     1      48.239 -28.952  -0.873  1.00  0.00     0.010 A 
HETATM   15  C   UNL     1      48.956 -29.582  -1.899  1.00  0.00     0.030 A 
HETATM   16  C   UNL     1      48.911 -30.968  -2.050  1.00  0.00     0.034 A 
HETATM   17  C   UNL     1      48.106 -31.713  -1.184  1.00  0.00     0.030 A 
HETATM   18  C   UNL     1      47.400 -31.089  -0.153  1.00  0.00     0.010 A 
BRANCH  16  19
HETATM   19  N   UNL     1      49.643 -31.691  -3.015  1.00  0.00    -0.328 N 
HETATM   20  C   UNL     1      51.014 -31.852  -3.088  1.00  0.00     0.218 C 
HETATM   21  C   UNL     1      51.425 -32.770  -4.214  1.00  0.00     0.117 C 
HETATM   22  O   UNL     1      51.855 -31.373  -2.336  1.00  0.00    -0.274 OA
HETATM   23  H   UNL     1      49.091 -32.189  -3.701  1.00  0.00     0.169 HD
ENDBRANCH  16  19
ENDBRANCH   1  13
BRANCH   5  24
HETATM   24  N   UNL     1      46.769 -30.345   4.852  1.00  0.00    -0.282 NA
HETATM   25  H   UNL     1      46.987 -29.612   5.521  1.00  0.00     0.126 HD
HETATM   26  H   UNL     1      46.150 -31.060   5.226  1.00  0.00     0.126 HD
ENDBRANCH   5  24
BRANCH  12  27
HETATM   27  C   UNL     1      44.533 -29.156  -1.416  1.00  0.00    -0.005 A 
HETATM   28  C   UNL     1      45.003 -27.939  -1.919  1.00  0.00     0.014 A 
HETATM   29  C   UNL     1      45.228 -27.786  -3.291  1.00  0.00     0.001 A 
HETATM   30  C   UNL     1      44.977 -28.845  -4.165  1.00  0.00     0.000 A 
HETATM   31  C   UNL     1      44.493 -30.055  -3.674  1.00  0.00     0.001 A 
HETATM   32  C   UNL     1      44.268 -30.208  -2.306  1.00  0.00     0.014 A 
ENDBRANCH  12  27
TORSDOF 4
ENDMDL
MODEL 7
REMARK VINA RESULT:      -7.4      3.119      7.101
REMARK  4 active torsions:
REMARK  status: ('A' for Active; 'I' for Inactive)
REMARK       I    between atoms: C_2  and  N_3 
REMARK    1  A    between atoms: N_3  and  C_4 
REMARK    2  A    between atoms: C_7  and  C_8 
REMARK    3  A    between atoms: C_12  and  N_13 
REMARK    4  A    between atoms: C_20  and  C_21 
ROOT
HETATM    1  C   UNL     1      41.493 -13.020   0.916  1.00  0.00     0.105 C 
HETATM    2  C   UNL     1      40.863 -11.963   0.009  1.00  0.00     0.067 C 
HETATM    3  C   UNL     1      41.302 -10.519   0.181  1.00  0.00     0.020 C 
HETATM    4  N   UNL     1      41.667  -9.320   0.325  1.00  0.00    -0.096 N 
HETATM    5  C   UNL     1      39.909 -12.252  -0.916  1.00  0.00     0.139 C 
HETATM    6  O   UNL     1      39.411 -13.554  -1.080  1.00  0.00    -0.279 OA
HETATM    7  C   UNL     1      39.792 -14.446  -0.172  1.00  0.00     0.175 A 
HETATM    8  C   UNL     1      40.727 -14.304   0.825  1.00  0.00     0.040 A 
HETATM    9  N   UNL     1      39.256 -15.682  -0.050  1.00  0.00    -0.256 N 
HETATM   10  H   UNL     1      38.533 -16.113  -0.615  1.00  0.00     0.191 HD
HETATM   11  N   UNL     1      39.754 -16.364   0.994  1.00  0.00    -0.172 NA
HETATM   12  C   UNL     1      40.657 -15.531   1.550  1.00  0.00     0.099 A 
ENDROOT
BRANCH   1  13
HETATM   13  C   UNL     1      41.609 -12.622   2.376  1.00  0.00    -0.044 A 
HETATM   14  C   UNL     1      42.819 -12.620   3.085  1.00  0.00     0.010 A 
HETATM   15  C   UNL     1      42.876 -12.167   4.411  1.00  0.00     0.030 A 
HETATM   16  C   UNL     1      41.723 -11.733   5.064  1.00  0.00     0.034 A 
HETATM   17  C   UNL     1      40.502 -11.796   4.385  1.00  0.00     0.030 A 
HETATM   18  C   UNL     1      40.444 -12.237   3.061  1.00  0.00     0.010 A 
BRANCH  16  19
HETATM   19  N   UNL     1      41.694 -11.208   6.373  1.00  0.00    -0.328 N 
HETATM   20  C   UNL     1      41.738  -9.879   6.749  1.00  0.00     0.218 C 
HETATM   21  C   UNL     1      41.596  -9.701   8.242  1.00  0.00     0.117 C 
HETATM   22  O   UNL     1      41.836  -8.905   6.012  1.00  0.00    -0.274 OA
HETATM   23  H   UNL     1      41.576 -11.886   7.114  1.00  0.00     0.169 HD
ENDBRANCH  16  19
ENDBRANCH   1  13
BRANCH   5  24
HETATM   24  N   UNL     1      39.320 -11.349  -1.771  1.00  0.00    -0.282 NA
HETATM   25  H   UNL     1      38.526 -10.832  -1.402  1.00  0.00     0.126 HD
HETATM   26  H   UNL     1      40.002 -10.759  -2.241  1.00  0.00     0.126 HD
ENDBRANCH   5  24
BRANCH  12  27
HETATM   27  C   UNL     1      41.348 -15.924   2.775  1.00  0.00    -0.005 A 
HETATM   28  C   UNL     1      42.687 -16.326   2.762  1.00  0.00     0.014 A 
HETATM   29  C   UNL     1      43.333 -16.654   3.959  1.00  0.00     0.001 A 
HETATM   30  C   UNL     1      42.642 -16.589   5.169  1.00  0.00     0.000 A 
HETATM   31  C   UNL     1      41.303 -16.206   5.188  1.00  0.00     0.001 A 
HETATM   32  C   UNL     1      40.658 -15.879   3.996  1.00  0.00     0.014 A 
ENDBRANCH  12  27
TORSDOF 4
ENDMDL
MODEL 8
REMARK VINA RESULT:      -7.4      2.860      6.897
REMARK  4 active torsions:
REMARK  status: ('A' for Active; 'I' for Inactive)
REMARK       I    between atoms: C_2  and  N_3 
REMARK    1  A    between atoms: N_3  and  C_4 
REMARK    2  A    between atoms: C_7  and  C_8 
REMARK    3  A    between atoms: C_12  and  N_13 
REMARK    4  A    between atoms: C_20  and  C_21 
ROOT
HETATM    1  C   UNL     1      41.799 -12.947   2.065  1.00  0.00     0.105 C 
HETATM    2  C   UNL     1      41.012 -12.149   1.025  1.00  0.00     0.067 C 
HETATM    3  C   UNL     1      41.465 -10.732   0.718  1.00  0.00     0.020 C 
HETATM    4  N   UNL     1      41.842  -9.555   0.463  1.00  0.00    -0.096 N 
HETATM    5  C   UNL     1      39.911 -12.637   0.393  1.00  0.00     0.139 C 
HETATM    6  O   UNL     1      39.400 -13.912   0.679  1.00  0.00    -0.279 OA
HETATM    7  C   UNL     1      39.941 -14.540   1.717  1.00  0.00     0.175 A 
HETATM    8  C   UNL     1      41.036 -14.175   2.462  1.00  0.00     0.040 A 
HETATM    9  N   UNL     1      39.442 -15.674   2.263  1.00  0.00    -0.256 N 
HETATM   10  H   UNL     1      38.634 -16.210   1.969  1.00  0.00     0.191 HD
HETATM   11  N   UNL     1      40.122 -16.068   3.352  1.00  0.00    -0.172 NA
HETATM   12  C   UNL     1      41.104 -15.155   3.496  1.00  0.00     0.099 A 
ENDROOT
BRANCH   1  13
HETATM   13  C   UNL     1      42.167 -12.174   3.318  1.00  0.00    -0.044 A 
HETATM   14  C   UNL     1      41.221 -11.587   4.172  1.00  0.00     0.010 A 
HETATM   15  C   UNL     1      41.618 -10.952   5.357  1.00  0.00     0.030 A 
HETATM   16  C   UNL     1      42.968 -10.866   5.700  1.00  0.00     0.034 A 
HETATM   17  C   UNL     1      43.919 -11.389   4.820  1.00  0.00     0.030 A 
HETATM   18  C   UNL     1      43.526 -12.032   3.644  1.00  0.00     0.010 A 
BRANCH  16  19
HETATM   19  N   UNL     1      43.454 -10.298   6.896  1.00  0.00    -0.328 N 
HETATM   20  C   UNL     1      44.015 -10.955   7.974  1.00  0.00     0.218 C 
HETATM   21  C   UNL     1      44.501 -10.001   9.039  1.00  0.00     0.117 C 
HETATM   22  O   UNL     1      44.173 -12.164   8.102  1.00  0.00    -0.274 OA
HETATM   23  H   UNL     1      43.434  -9.287   6.941  1.00  0.00     0.169 HD
ENDBRANCH  16  19
ENDBRANCH   1  13
BRANCH   5  24
HETATM   24  N   UNL     1      39.175 -11.974  -0.563  1.00  0.00    -0.282 NA
HETATM   25  H   UNL     1      39.533 -11.070  -0.859  1.00  0.00     0.126 HD
HETATM   26  H   UNL     1      38.913 -12.578  -1.338  1.00  0.00     0.126 HD
ENDBRANCH   5  24
BRANCH  12  27
HETATM   27  C   UNL     1      42.001 -15.231   4.644  1.00  0.00    -0.005 A 
HETATM   28  C   UNL     1      41.634 -14.722   5.894  1.00  0.00     0.014 A 
HETATM   29  C   UNL     1      42.500 -14.851   6.985  1.00  0.00     0.001 A 
HETATM   30  C   UNL     1      43.735 -15.481   6.831  1.00  0.00     0.000 A 
HETATM   31  C   UNL     1      44.115 -15.975   5.585  1.00  0.00     0.001 A 
HETATM   32  C   UNL     1      43.254 -15.847   4.496  1.00  0.00     0.014 A 
ENDBRANCH  12  27
TORSDOF 4
ENDMDL
MODEL 9
REMARK VINA RESULT:      -7.4      3.115      5.975
REMARK  4 active torsions:
REMARK  status: ('A' for Active; 'I' for Inactive)
REMARK       I    between atoms: C_2  and  N_3 
REMARK    1  A    between atoms: N_3  and  C_4 
REMARK    2  A    between atoms: C_7  and  C_8 
REMARK    3  A    between atoms: C_12  and  N_13 
REMARK    4  A    between atoms: C_20  and  C_21 
ROOT
HETATM    1  C   UNL     1      41.007 -11.515   5.617  1.00  0.00     0.105 C 
HETATM    2  C   UNL     1      41.110 -10.031   5.974  1.00  0.00     0.067 C 
HETATM    3  C   UNL     1      40.082  -9.081   5.383  1.00  0.00     0.020 C 
HETATM    4  N   UNL     1      39.229  -8.291   4.892  1.00  0.00    -0.096 N 
HETATM    5  C   UNL     1      42.094  -9.525   6.764  1.00  0.00     0.139 C 
HETATM    6  O   UNL     1      43.112 -10.337   7.286  1.00  0.00    -0.279 OA
HETATM    7  C   UNL     1      43.160 -11.583   6.829  1.00  0.00     0.175 A 
HETATM    8  C   UNL     1      42.259 -12.233   6.020  1.00  0.00     0.040 A 
HETATM    9  N   UNL     1      44.185 -12.437   7.058  1.00  0.00    -0.256 N 
HETATM   10  H   UNL     1      45.022 -12.282   7.606  1.00  0.00     0.191 HD
HETATM   11  N   UNL     1      44.036 -13.610   6.421  1.00  0.00    -0.172 NA
HETATM   12  C   UNL     1      42.859 -13.502   5.770  1.00  0.00     0.099 A 
ENDROOT
BRANCH   1  13
HETATM   13  C   UNL     1      40.730 -11.801   4.152  1.00  0.00    -0.044 A 
HETATM   14  C   UNL     1      41.580 -11.401   3.110  1.00  0.00     0.010 A 
HETATM   15  C   UNL     1      41.311 -11.762   1.783  1.00  0.00     0.030 A 
HETATM   16  C   UNL     1      40.174 -12.505   1.465  1.00  0.00     0.034 A 
HETATM   17  C   UNL     1      39.287 -12.849   2.490  1.00  0.00     0.030 A 
HETATM   18  C   UNL     1      39.559 -12.499   3.814  1.00  0.00     0.010 A 
BRANCH  16  19
HETATM   19  N   UNL     1      39.853 -12.962   0.169  1.00  0.00    -0.328 N 
HETATM   20  C   UNL     1      39.793 -14.269  -0.273  1.00  0.00     0.218 C 
HETATM   21  C   UNL     1      39.327 -14.369  -1.706  1.00  0.00     0.117 C 
HETATM   22  O   UNL     1      40.032 -15.281   0.376  1.00  0.00    -0.274 OA
HETATM   23  H   UNL     1      39.587 -12.245  -0.494  1.00  0.00     0.169 HD
ENDBRANCH  16  19
ENDBRANCH   1  13
BRANCH   5  24
HETATM   24  N   UNL     1      42.227  -8.206   7.134  1.00  0.00    -0.282 NA
HETATM   25  H   UNL     1      41.365  -7.710   7.346  1.00  0.00     0.126 HD
HETATM   26  H   UNL     1      42.952  -8.071   7.834  1.00  0.00     0.126 HD
ENDBRANCH   5  24
BRANCH  12  27
HETATM   27  C   UNL     1      42.412 -14.584   4.899  1.00  0.00    -0.005 A 
HETATM   28  C   UNL     1      41.351 -15.421   5.258  1.00  0.00     0.014 A 
HETATM   29  C   UNL     1      40.917 -16.421   4.381  1.00  0.00     0.001 A 
HETATM   30  C   UNL     1      41.545 -16.591   3.147  1.00  0.00     0.000 A 
HETATM   31  C   UNL     1      42.613 -15.772   2.788  1.00  0.00     0.001 A 
HETATM   32  C   UNL     1      43.047 -14.776   3.663  1.00  0.00     0.014 A 
ENDBRANCH  12  27
TORSDOF 4
ENDMDL
MODEL 10
REMARK VINA RESULT:      -7.3      9.519     12.185
REMARK  4 active torsions:
REMARK  status: ('A' for Active; 'I' for Inactive)
REMARK       I    between atoms: C_2  and  N_3 
REMARK    1  A    between atoms: N_3  and  C_4 
REMARK    2  A    between atoms: C_7  and  C_8 
REMARK    3  A    between atoms: C_12  and  N_13 
REMARK    4  A    between atoms: C_20  and  C_21 
ROOT
HETATM    1  C   UNL     1      42.716  -7.587  10.121  1.00  0.00     0.105 C 
HETATM    2  C   UNL     1      42.567  -7.848   8.622  1.00  0.00     0.067 C 
HETATM    3  C   UNL     1      42.044  -6.721   7.748  1.00  0.00     0.020 C 
HETATM    4  N   UNL     1      41.610  -5.785   7.022  1.00  0.00    -0.096 N 
HETATM    5  C   UNL     1      42.847  -9.049   8.047  1.00  0.00     0.139 C 
HETATM    6  O   UNL     1      43.269 -10.151   8.807  1.00  0.00    -0.279 OA
HETATM    7  C   UNL     1      43.212 -10.009  10.126  1.00  0.00     0.175 A 
HETATM    8  C   UNL     1      42.934  -8.876  10.853  1.00  0.00     0.040 A 
HETATM    9  N   UNL     1      43.378 -11.022  11.007  1.00  0.00    -0.256 N 
HETATM   10  H   UNL     1      43.586 -11.995  10.814  1.00  0.00     0.191 HD
HETATM   11  N   UNL     1      43.193 -10.640  12.281  1.00  0.00    -0.172 NA
HETATM   12  C   UNL     1      42.912  -9.322  12.208  1.00  0.00     0.099 A 
ENDROOT
BRANCH   1  13
HETATM   13  C   UNL     1      41.552  -6.853  10.760  1.00  0.00    -0.044 A 
HETATM   14  C   UNL     1      40.240  -7.351  10.783  1.00  0.00     0.010 A 
HETATM   15  C   UNL     1      39.220  -6.664  11.457  1.00  0.00     0.030 A 
HETATM   16  C   UNL     1      39.482  -5.452  12.096  1.00  0.00     0.034 A 
HETATM   17  C   UNL     1      40.771  -4.916  12.018  1.00  0.00     0.030 A 
HETATM   18  C   UNL     1      41.791  -5.604  11.358  1.00  0.00     0.010 A 
BRANCH  16  19
HETATM   19  N   UNL     1      38.535  -4.722  12.844  1.00  0.00    -0.328 N 
HETATM   20  C   UNL     1      37.870  -5.125  13.985  1.00  0.00     0.218 C 
HETATM   21  C   UNL     1      36.996  -4.034  14.556  1.00  0.00     0.117 C 
HETATM   22  O   UNL     1      37.961  -6.210  14.550  1.00  0.00    -0.274 OA
HETATM   23  H   UNL     1      38.367  -3.774  12.531  1.00  0.00     0.169 HD
ENDBRANCH  16  19
ENDBRANCH   1  13
BRANCH   5  24
HETATM   24  N   UNL     1      42.751  -9.337   6.705  1.00  0.00    -0.282 NA
HETATM   25  H   UNL     1      43.047 -10.268   6.423  1.00  0.00     0.126 HD
HETATM   26  H   UNL     1      41.852  -9.065   6.314  1.00  0.00     0.126 HD
ENDBRANCH   5  24
BRANCH  12  27
HETATM   27  C   UNL     1      42.573  -8.586  13.421  1.00  0.00    -0.005 A 
HETATM   28  C   UNL     1      43.340  -7.499  13.855  1.00  0.00     0.014 A 
HETATM   29  C   UNL     1      42.963  -6.786  14.998  1.00  0.00     0.001 A 
HETATM   30  C   UNL     1      41.826  -7.160  15.715  1.00  0.00     0.000 A 
HETATM   31  C   UNL     1      41.067  -8.251  15.299  1.00  0.00     0.001 A 
HETATM   32  C   UNL     1      41.442  -8.963  14.160  1.00  0.00     0.014 A 
ENDBRANCH  12  27
TORSDOF 4
ENDMDL
