MODEL 1
REMARK VINA RESULT:      -8.1      0.000      0.000
REMARK  7 active torsions:
REMARK  status: ('A' for Active; 'I' for Inactive)
REMARK    1  A    between atoms: S_2  and  C_3 
REMARK    2  A    between atoms: C_6  and  C_7 
REMARK    3  A    between atoms: N_8  and  C_9 
REMARK    4  A    between atoms: C_9  and  C_10 
REMARK    5  A    between atoms: C_10  and  C_11 
REMARK    6  A    between atoms: C_24  and  C_25 
REMARK    7  A    between atoms: C_26  and  O_27 
ROOT
HETATM    1  C   UNL     1      41.680 -15.789   5.356  1.00  0.00     0.159 A 
HETATM    2  N   UNL     1      41.774 -14.640   6.290  1.00  0.00    -0.333 N 
HETATM    3  C   UNL     1      43.022 -14.526   6.929  1.00  0.00     0.275 A 
HETATM    4  O   UNL     1      43.380 -13.660   7.711  1.00  0.00    -0.266 OA
HETATM    5  C   UNL     1      43.787 -15.643   6.418  1.00  0.00     0.155 A 
HETATM    6  C   UNL     1      43.036 -16.369   5.492  1.00  0.00     0.034 A 
HETATM    7  N   UNL     1      45.030 -16.096   6.558  1.00  0.00    -0.168 NA
HETATM    8  N   UNL     1      45.049 -17.154   5.709  1.00  0.00    -0.276 N 
HETATM    9  H   UNL     1      45.904 -17.696   5.630  1.00  0.00     0.189 HD
HETATM   10  C   UNL     1      43.877 -17.332   4.993  1.00  0.00     0.074 A 
ENDROOT
BRANCH   1  11
HETATM   11  C   UNL     1      41.499 -15.443   3.898  1.00  0.00    -0.031 A 
HETATM   12  C   UNL     1      40.392 -15.866   3.144  1.00  0.00     0.011 A 
HETATM   13  C   UNL     1      40.244 -15.473   1.810  1.00  0.00     0.019 A 
HETATM   14  C   UNL     1      41.194 -14.646   1.208  1.00  0.00    -0.000 A 
HETATM   15  C   UNL     1      42.311 -14.241   1.939  1.00  0.00     0.019 A 
HETATM   16  C   UNL     1      42.462 -14.633   3.270  1.00  0.00     0.011 A 
BRANCH  14  17
HETATM   17  S   UNL     1      40.971 -14.124  -0.480  1.00  0.00    -0.134 SA
HETATM   18  C   UNL     1      39.404 -14.964  -0.828  1.00  0.00     0.095 C 
ENDBRANCH  14  17
ENDBRANCH   1  11
BRANCH   2  19
HETATM   19  C   UNL     1      40.748 -13.615   6.426  1.00  0.00     0.132 C 
BRANCH  19  20
HETATM   20  C   UNL     1      41.076 -12.241   5.828  1.00  0.00     0.058 C 
BRANCH  20  21
HETATM   21  C   UNL     1      40.558 -11.947   4.438  1.00  0.00    -0.057 A 
HETATM   22  C   UNL     1      39.336 -12.442   3.963  1.00  0.00     0.007 A 
HETATM   23  C   UNL     1      38.893 -12.126   2.677  1.00  0.00     0.001 A 
HETATM   24  C   UNL     1      39.657 -11.299   1.855  1.00  0.00     0.000 A 
HETATM   25  C   UNL     1      40.862 -10.783   2.320  1.00  0.00     0.001 A 
HETATM   26  C   UNL     1      41.308 -11.101   3.604  1.00  0.00     0.007 A 
ENDBRANCH  20  21
ENDBRANCH  19  20
ENDBRANCH   2  19
BRANCH  10  27
HETATM   27  C   UNL     1      43.719 -18.333   3.949  1.00  0.00     0.026 A 
HETATM   28  C   UNL     1      43.927 -19.698   4.198  1.00  0.00     0.078 A 
HETATM   29  C   UNL     1      43.726 -20.652   3.203  1.00  0.00     0.037 A 
HETATM   30  C   UNL     1      43.343 -20.247   1.927  1.00  0.00     0.003 A 
HETATM   31  C   UNL     1      43.156 -18.893   1.652  1.00  0.00     0.001 A 
HETATM   32  C   UNL     1      43.339 -17.940   2.659  1.00  0.00     0.016 A 
BRANCH  28  33
HETATM   33  O   UNL     1      44.363 -20.161   5.410  1.00  0.00    -0.360 OA
HETATM   34  H   UNL     1      43.741 -19.837   6.087  1.00  0.00     0.217 HD
ENDBRANCH  28  33
ENDBRANCH  10  27
TORSDOF 7
ENDMDL
MODEL 2
REMARK VINA RESULT:      -8.0      2.026      6.994
REMARK  7 active torsions:
REMARK  status: ('A' for Active; 'I' for Inactive)
REMARK    1  A    between atoms: S_2  and  C_3 
REMARK    2  A    between atoms: C_6  and  C_7 
REMARK    3  A    between atoms: N_8  and  C_9 
REMARK    4  A    between atoms: C_9  and  C_10 
REMARK    5  A    between atoms: C_10  and  C_11 
REMARK    6  A    between atoms: C_24  and  C_25 
REMARK    7  A    between atoms: C_26  and  O_27 
ROOT
HETATM    1  C   UNL     1      41.806 -13.627   3.139  1.00  0.00     0.159 A 
HETATM    2  N   UNL     1      42.433 -14.781   3.828  1.00  0.00    -0.333 N 
HETATM    3  C   UNL     1      41.829 -15.107   5.057  1.00  0.00     0.275 A 
HETATM    4  O   UNL     1      42.119 -16.025   5.806  1.00  0.00    -0.266 OA
HETATM    5  C   UNL     1      40.770 -14.132   5.203  1.00  0.00     0.155 A 
HETATM    6  C   UNL     1      40.727 -13.284   4.095  1.00  0.00     0.034 A 
HETATM    7  N   UNL     1      39.801 -13.895   6.084  1.00  0.00    -0.168 NA
HETATM    8  N   UNL     1      39.146 -12.851   5.518  1.00  0.00    -0.276 N 
HETATM    9  H   UNL     1      38.346 -12.460   6.006  1.00  0.00     0.189 HD
HETATM   10  C   UNL     1      39.636 -12.473   4.278  1.00  0.00     0.074 A 
ENDROOT
BRANCH   1  11
HETATM   11  C   UNL     1      41.138 -13.929   1.819  1.00  0.00    -0.031 A 
HETATM   12  C   UNL     1      40.339 -15.065   1.609  1.00  0.00     0.011 A 
HETATM   13  C   UNL     1      39.699 -15.271   0.383  1.00  0.00     0.019 A 
HETATM   14  C   UNL     1      39.840 -14.344  -0.652  1.00  0.00    -0.000 A 
HETATM   15  C   UNL     1      40.653 -13.226  -0.464  1.00  0.00     0.019 A 
HETATM   16  C   UNL     1      41.293 -13.019   0.759  1.00  0.00     0.011 A 
BRANCH  14  17
HETATM   17  S   UNL     1      38.988 -14.603  -2.194  1.00  0.00    -0.134 SA
HETATM   18  C   UNL     1      37.861 -13.185  -2.134  1.00  0.00     0.095 C 
ENDBRANCH  14  17
ENDBRANCH   1  11
BRANCH   2  19
HETATM   19  C   UNL     1      43.467 -15.620   3.238  1.00  0.00     0.132 C 
BRANCH  19  20
HETATM   20  C   UNL     1      42.983 -16.834   2.437  1.00  0.00     0.058 C 
BRANCH  20  21
HETATM   21  C   UNL     1      43.379 -18.203   2.942  1.00  0.00    -0.057 A 
HETATM   22  C   UNL     1      43.900 -18.417   4.226  1.00  0.00     0.007 A 
HETATM   23  C   UNL     1      44.232 -19.704   4.653  1.00  0.00     0.001 A 
HETATM   24  C   UNL     1      44.036 -20.795   3.809  1.00  0.00     0.000 A 
HETATM   25  C   UNL     1      43.500 -20.602   2.539  1.00  0.00     0.001 A 
HETATM   26  C   UNL     1      43.170 -19.316   2.110  1.00  0.00     0.007 A 
ENDBRANCH  20  21
ENDBRANCH  19  20
ENDBRANCH   2  19
BRANCH  10  27
HETATM   27  C   UNL     1      39.014 -11.454   3.447  1.00  0.00     0.026 A 
HETATM   28  C   UNL     1      39.068 -10.093   3.784  1.00  0.00     0.078 A 
HETATM   29  C   UNL     1      38.512  -9.121   2.956  1.00  0.00     0.037 A 
HETATM   30  C   UNL     1      37.859  -9.504   1.785  1.00  0.00     0.003 A 
HETATM   31  C   UNL     1      37.773 -10.854   1.446  1.00  0.00     0.001 A 
HETATM   32  C   UNL     1      38.350 -11.824   2.270  1.00  0.00     0.016 A 
BRANCH  28  33
HETATM   33  O   UNL     1      39.638  -9.651   4.948  1.00  0.00    -0.360 OA
HETATM   34  H   UNL     1      39.009  -9.035   5.365  1.00  0.00     0.217 HD
ENDBRANCH  28  33
ENDBRANCH  10  27
TORSDOF 7
ENDMDL
MODEL 3
REMARK VINA RESULT:      -7.7      2.773      6.092
REMARK  7 active torsions:
REMARK  status: ('A' for Active; 'I' for Inactive)
REMARK    1  A    between atoms: S_2  and  C_3 
REMARK    2  A    between atoms: C_6  and  C_7 
REMARK    3  A    between atoms: N_8  and  C_9 
REMARK    4  A    between atoms: C_9  and  C_10 
REMARK    5  A    between atoms: C_10  and  C_11 
REMARK    6  A    between atoms: C_24  and  C_25 
REMARK    7  A    between atoms: C_26  and  O_27 
ROOT
HETATM    1  C   UNL     1      42.507 -12.502   2.989  1.00  0.00     0.159 A 
HETATM    2  N   UNL     1      42.560 -12.059   4.404  1.00  0.00    -0.333 N 
HETATM    3  C   UNL     1      41.383 -11.428   4.847  1.00  0.00     0.275 A 
HETATM    4  O   UNL     1      41.144 -11.003   5.966  1.00  0.00    -0.266 OA
HETATM    5  C   UNL     1      40.516 -11.436   3.688  1.00  0.00     0.155 A 
HETATM    6  C   UNL     1      41.140 -12.072   2.614  1.00  0.00     0.034 A 
HETATM    7  N   UNL     1      39.269 -11.057   3.423  1.00  0.00    -0.168 NA
HETATM    8  N   UNL     1      39.117 -11.448   2.133  1.00  0.00    -0.276 N 
HETATM    9  H   UNL     1      38.231 -11.264   1.672  1.00  0.00     0.189 HD
HETATM   10  C   UNL     1      40.208 -12.121   1.608  1.00  0.00     0.074 A 
ENDROOT
BRANCH   1  11
HETATM   11  C   UNL     1      42.573 -13.992   2.761  1.00  0.00    -0.031 A 
HETATM   12  C   UNL     1      43.491 -14.591   1.881  1.00  0.00     0.011 A 
HETATM   13  C   UNL     1      43.547 -15.981   1.745  1.00  0.00     0.019 A 
HETATM   14  C   UNL     1      42.694 -16.798   2.489  1.00  0.00    -0.000 A 
HETATM   15  C   UNL     1      41.761 -16.215   3.346  1.00  0.00     0.019 A 
HETATM   16  C   UNL     1      41.702 -14.827   3.483  1.00  0.00     0.011 A 
BRANCH  14  17
HETATM   17  S   UNL     1      42.804 -18.569   2.332  1.00  0.00    -0.134 SA
HETATM   18  C   UNL     1      44.357 -18.834   3.228  1.00  0.00     0.095 C 
ENDBRANCH  14  17
ENDBRANCH   1  11
BRANCH   2  19
HETATM   19  C   UNL     1      43.646 -12.380   5.319  1.00  0.00     0.132 C 
BRANCH  19  20
HETATM   20  C   UNL     1      43.250 -13.076   6.628  1.00  0.00     0.058 C 
BRANCH  20  21
HETATM   21  C   UNL     1      43.230 -14.588   6.631  1.00  0.00    -0.057 A 
HETATM   22  C   UNL     1      42.103 -15.332   7.005  1.00  0.00     0.007 A 
HETATM   23  C   UNL     1      42.129 -16.728   6.973  1.00  0.00     0.001 A 
HETATM   24  C   UNL     1      43.276 -17.398   6.553  1.00  0.00     0.000 A 
HETATM   25  C   UNL     1      44.397 -16.674   6.159  1.00  0.00     0.001 A 
HETATM   26  C   UNL     1      44.373 -15.279   6.194  1.00  0.00     0.007 A 
ENDBRANCH  20  21
ENDBRANCH  19  20
ENDBRANCH   2  19
BRANCH  10  27
HETATM   27  C   UNL     1      40.217 -12.725   0.285  1.00  0.00     0.026 A 
HETATM   28  C   UNL     1      39.797 -14.048   0.074  1.00  0.00     0.078 A 
HETATM   29  C   UNL     1      39.764 -14.600  -1.204  1.00  0.00     0.037 A 
HETATM   30  C   UNL     1      40.186 -13.842  -2.294  1.00  0.00     0.003 A 
HETATM   31  C   UNL     1      40.631 -12.535  -2.102  1.00  0.00     0.001 A 
HETATM   32  C   UNL     1      40.644 -11.977  -0.820  1.00  0.00     0.016 A 
BRANCH  28  33
HETATM   33  O   UNL     1      39.428 -14.869   1.106  1.00  0.00    -0.360 OA
HETATM   34  H   UNL     1      39.961 -14.619   1.883  1.00  0.00     0.217 HD
ENDBRANCH  28  33
ENDBRANCH  10  27
TORSDOF 7
ENDMDL
MODEL 4
REMARK VINA RESULT:      -7.5      3.482      6.234
REMARK  7 active torsions:
REMARK  status: ('A' for Active; 'I' for Inactive)
REMARK    1  A    between atoms: S_2  and  C_3 
REMARK    2  A    between atoms: C_6  and  C_7 
REMARK    3  A    between atoms: N_8  and  C_9 
REMARK    4  A    between atoms: C_9  and  C_10 
REMARK    5  A    between atoms: C_10  and  C_11 
REMARK    6  A    between atoms: C_24  and  C_25 
REMARK    7  A    between atoms: C_26  and  O_27 
ROOT
HETATM    1  C   UNL     1      42.543 -12.580   3.372  1.00  0.00     0.159 A 
HETATM    2  N   UNL     1      42.583 -12.212   4.809  1.00  0.00    -0.333 N 
HETATM    3  C   UNL     1      41.390 -11.634   5.282  1.00  0.00     0.275 A 
HETATM    4  O   UNL     1      41.140 -11.276   6.421  1.00  0.00    -0.266 OA
HETATM    5  C   UNL     1      40.525 -11.602   4.122  1.00  0.00     0.155 A 
HETATM    6  C   UNL     1      41.166 -12.164   3.017  1.00  0.00     0.034 A 
HETATM    7  N   UNL     1      39.270 -11.240   3.874  1.00  0.00    -0.168 NA
HETATM    8  N   UNL     1      39.129 -11.565   2.564  1.00  0.00    -0.276 N 
HETATM    9  H   UNL     1      38.239 -11.379   2.112  1.00  0.00     0.189 HD
HETATM   10  C   UNL     1      40.237 -12.182   2.007  1.00  0.00     0.074 A 
ENDROOT
BRANCH   1  11
HETATM   11  C   UNL     1      42.646 -14.054   3.065  1.00  0.00    -0.031 A 
HETATM   12  C   UNL     1      43.298 -14.553   1.925  1.00  0.00     0.011 A 
HETATM   13  C   UNL     1      43.412 -15.930   1.713  1.00  0.00     0.019 A 
HETATM   14  C   UNL     1      42.884 -16.833   2.639  1.00  0.00    -0.000 A 
HETATM   15  C   UNL     1      42.212 -16.350   3.761  1.00  0.00     0.019 A 
HETATM   16  C   UNL     1      42.095 -14.975   3.973  1.00  0.00     0.011 A 
BRANCH  14  17
HETATM   17  S   UNL     1      43.072 -18.584   2.373  1.00  0.00    -0.134 SA
HETATM   18  C   UNL     1      44.197 -18.957   3.744  1.00  0.00     0.095 C 
ENDBRANCH  14  17
ENDBRANCH   1  11
BRANCH   2  19
HETATM   19  C   UNL     1      43.676 -12.555   5.708  1.00  0.00     0.132 C 
BRANCH  19  20
HETATM   20  C   UNL     1      44.763 -11.490   5.896  1.00  0.00     0.058 C 
BRANCH  20  21
HETATM   21  C   UNL     1      44.862 -10.831   7.253  1.00  0.00    -0.057 A 
HETATM   22  C   UNL     1      43.956 -11.089   8.291  1.00  0.00     0.007 A 
HETATM   23  C   UNL     1      44.103 -10.469   9.534  1.00  0.00     0.001 A 
HETATM   24  C   UNL     1      45.164  -9.595   9.761  1.00  0.00     0.000 A 
HETATM   25  C   UNL     1      46.084  -9.345   8.748  1.00  0.00     0.001 A 
HETATM   26  C   UNL     1      45.937  -9.961   7.504  1.00  0.00     0.007 A 
ENDBRANCH  20  21
ENDBRANCH  19  20
ENDBRANCH   2  19
BRANCH  10  27
HETATM   27  C   UNL     1      40.263 -12.715   0.654  1.00  0.00     0.026 A 
HETATM   28  C   UNL     1      39.917 -14.046   0.378  1.00  0.00     0.078 A 
HETATM   29  C   UNL     1      39.898 -14.532  -0.927  1.00  0.00     0.037 A 
HETATM   30  C   UNL     1      40.260 -13.694  -1.980  1.00  0.00     0.003 A 
HETATM   31  C   UNL     1      40.633 -12.375  -1.724  1.00  0.00     0.001 A 
HETATM   32  C   UNL     1      40.631 -11.886  -0.414  1.00  0.00     0.016 A 
BRANCH  28  33
HETATM   33  O   UNL     1      39.610 -14.941   1.368  1.00  0.00    -0.360 OA
HETATM   34  H   UNL     1      40.442 -15.365   1.646  1.00  0.00     0.217 HD
ENDBRANCH  28  33
ENDBRANCH  10  27
TORSDOF 7
ENDMDL
MODEL 5
REMARK VINA RESULT:      -7.3      3.719      8.145
REMARK  7 active torsions:
REMARK  status: ('A' for Active; 'I' for Inactive)
REMARK    1  A    between atoms: S_2  and  C_3 
REMARK    2  A    between atoms: C_6  and  C_7 
REMARK    3  A    between atoms: N_8  and  C_9 
REMARK    4  A    between atoms: C_9  and  C_10 
REMARK    5  A    between atoms: C_10  and  C_11 
REMARK    6  A    between atoms: C_24  and  C_25 
REMARK    7  A    between atoms: C_26  and  O_27 
ROOT
HETATM    1  C   UNL     1      39.976 -13.453   2.985  1.00  0.00     0.159 A 
HETATM    2  N   UNL     1      40.146 -14.467   1.915  1.00  0.00    -0.333 N 
HETATM    3  C   UNL     1      39.945 -13.962   0.617  1.00  0.00     0.275 A 
HETATM    4  O   UNL     1      40.057 -14.564  -0.439  1.00  0.00    -0.266 OA
HETATM    5  C   UNL     1      39.616 -12.568   0.822  1.00  0.00     0.155 A 
HETATM    6  C   UNL     1      39.652 -12.252   2.182  1.00  0.00     0.034 A 
HETATM    7  N   UNL     1      39.364 -11.519   0.044  1.00  0.00    -0.168 NA
HETATM    8  N   UNL     1      39.214 -10.519   0.949  1.00  0.00    -0.276 N 
HETATM    9  H   UNL     1      39.001  -9.586   0.608  1.00  0.00     0.189 HD
HETATM   10  C   UNL     1      39.434 -10.899   2.263  1.00  0.00     0.074 A 
ENDROOT
BRANCH   1  11
HETATM   11  C   UNL     1      41.213 -13.122   3.785  1.00  0.00    -0.031 A 
HETATM   12  C   UNL     1      42.405 -12.670   3.196  1.00  0.00     0.011 A 
HETATM   13  C   UNL     1      43.506 -12.326   3.986  1.00  0.00     0.019 A 
HETATM   14  C   UNL     1      43.434 -12.421   5.377  1.00  0.00    -0.000 A 
HETATM   15  C   UNL     1      42.264 -12.894   5.972  1.00  0.00     0.019 A 
HETATM   16  C   UNL     1      41.164 -13.239   5.185  1.00  0.00     0.011 A 
BRANCH  14  17
HETATM   17  S   UNL     1      44.833 -11.943   6.371  1.00  0.00    -0.134 SA
HETATM   18  C   UNL     1      43.946 -11.326   7.826  1.00  0.00     0.095 C 
ENDBRANCH  14  17
ENDBRANCH   1  11
BRANCH   2  19
HETATM   19  C   UNL     1      40.636 -15.818   2.143  1.00  0.00     0.132 C 
BRANCH  19  20
HETATM   20  C   UNL     1      42.132 -16.051   1.891  1.00  0.00     0.058 C 
BRANCH  20  21
HETATM   21  C   UNL     1      42.886 -16.878   2.908  1.00  0.00    -0.057 A 
HETATM   22  C   UNL     1      43.342 -18.176   2.643  1.00  0.00     0.007 A 
HETATM   23  C   UNL     1      44.052 -18.892   3.609  1.00  0.00     0.001 A 
HETATM   24  C   UNL     1      44.329 -18.314   4.847  1.00  0.00     0.000 A 
HETATM   25  C   UNL     1      43.901 -17.018   5.118  1.00  0.00     0.001 A 
HETATM   26  C   UNL     1      43.188 -16.303   4.154  1.00  0.00     0.007 A 
ENDBRANCH  20  21
ENDBRANCH  19  20
ENDBRANCH   2  19
BRANCH  10  27
HETATM   27  C   UNL     1      39.436  -9.965   3.378  1.00  0.00     0.026 A 
HETATM   28  C   UNL     1      40.153  -8.760   3.330  1.00  0.00     0.078 A 
HETATM   29  C   UNL     1      40.109  -7.851   4.384  1.00  0.00     0.037 A 
HETATM   30  C   UNL     1      39.369  -8.153   5.525  1.00  0.00     0.003 A 
HETATM   31  C   UNL     1      38.671  -9.358   5.603  1.00  0.00     0.001 A 
HETATM   32  C   UNL     1      38.701 -10.258   4.534  1.00  0.00     0.016 A 
BRANCH  28  33
HETATM   33  O   UNL     1      40.950  -8.426   2.267  1.00  0.00    -0.360 OA
HETATM   34  H   UNL     1      41.543  -9.182   2.099  1.00  0.00     0.217 HD
ENDBRANCH  28  33
ENDBRANCH  10  27
TORSDOF 7
ENDMDL
MODEL 6
REMARK VINA RESULT:      -7.1      2.139      3.305
REMARK  7 active torsions:
REMARK  status: ('A' for Active; 'I' for Inactive)
REMARK    1  A    between atoms: S_2  and  C_3 
REMARK    2  A    between atoms: C_6  and  C_7 
REMARK    3  A    between atoms: N_8  and  C_9 
REMARK    4  A    between atoms: C_9  and  C_10 
REMARK    5  A    between atoms: C_10  and  C_11 
REMARK    6  A    between atoms: C_24  and  C_25 
REMARK    7  A    between atoms: C_26  and  O_27 
ROOT
HETATM    1  C   UNL     1      40.279 -13.016   4.426  1.00  0.00     0.159 A 
HETATM    2  N   UNL     1      39.973 -11.760   5.154  1.00  0.00    -0.333 N 
HETATM    3  C   UNL     1      40.989 -11.353   6.038  1.00  0.00     0.275 A 
HETATM    4  O   UNL     1      41.014 -10.347   6.728  1.00  0.00    -0.266 OA
HETATM    5  C   UNL     1      42.005 -12.376   5.910  1.00  0.00     0.155 A 
HETATM    6  C   UNL     1      41.621 -13.332   4.967  1.00  0.00     0.034 A 
HETATM    7  N   UNL     1      43.220 -12.587   6.407  1.00  0.00    -0.168 NA
HETATM    8  N   UNL     1      43.599 -13.724   5.772  1.00  0.00    -0.276 N 
HETATM    9  H   UNL     1      44.511 -14.116   5.984  1.00  0.00     0.189 HD
HETATM   10  C   UNL     1      42.684 -14.191   4.842  1.00  0.00     0.074 A 
ENDROOT
BRANCH   1  11
HETATM   11  C   UNL     1      40.430 -12.893   2.929  1.00  0.00    -0.031 A 
HETATM   12  C   UNL     1      39.698 -13.674   2.020  1.00  0.00     0.011 A 
HETATM   13  C   UNL     1      39.836 -13.484   0.642  1.00  0.00     0.019 A 
HETATM   14  C   UNL     1      40.702 -12.506   0.148  1.00  0.00    -0.000 A 
HETATM   15  C   UNL     1      41.454 -11.742   1.040  1.00  0.00     0.019 A 
HETATM   16  C   UNL     1      41.319 -11.932   2.416  1.00  0.00     0.011 A 
BRANCH  14  17
HETATM   17  S   UNL     1      40.838 -12.251  -1.610  1.00  0.00    -0.134 SA
HETATM   18  C   UNL     1      40.128 -13.820  -2.177  1.00  0.00     0.095 C 
ENDBRANCH  14  17
ENDBRANCH   1  11
BRANCH   2  19
HETATM   19  C   UNL     1      38.817 -10.918   4.877  1.00  0.00     0.132 C 
BRANCH  19  20
HETATM   20  C   UNL     1      39.086  -9.631   4.087  1.00  0.00     0.058 C 
BRANCH  20  21
HETATM   21  C   UNL     1      38.758  -9.642   2.611  1.00  0.00    -0.057 A 
HETATM   22  C   UNL     1      39.403  -8.813   1.684  1.00  0.00     0.007 A 
HETATM   23  C   UNL     1      39.078  -8.875   0.327  1.00  0.00     0.001 A 
HETATM   24  C   UNL     1      38.115  -9.776  -0.123  1.00  0.00     0.000 A 
HETATM   25  C   UNL     1      37.481 -10.621   0.782  1.00  0.00     0.001 A 
HETATM   26  C   UNL     1      37.803 -10.558   2.139  1.00  0.00     0.007 A 
ENDBRANCH  20  21
ENDBRANCH  19  20
ENDBRANCH   2  19
BRANCH  10  27
HETATM   27  C   UNL     1      42.935 -15.327   3.970  1.00  0.00     0.026 A 
HETATM   28  C   UNL     1      43.043 -16.634   4.472  1.00  0.00     0.078 A 
HETATM   29  C   UNL     1      43.235 -17.720   3.622  1.00  0.00     0.037 A 
HETATM   30  C   UNL     1      43.357 -17.509   2.250  1.00  0.00     0.003 A 
HETATM   31  C   UNL     1      43.280 -16.216   1.734  1.00  0.00     0.001 A 
HETATM   32  C   UNL     1      43.066 -15.130   2.589  1.00  0.00     0.016 A 
BRANCH  28  33
HETATM   33  O   UNL     1      42.994 -16.907   5.812  1.00  0.00    -0.360 OA
HETATM   34  H   UNL     1      42.764 -17.849   5.910  1.00  0.00     0.217 HD
ENDBRANCH  28  33
ENDBRANCH  10  27
TORSDOF 7
ENDMDL
MODEL 7
REMARK VINA RESULT:      -7.0     15.045     17.513
REMARK  7 active torsions:
REMARK  status: ('A' for Active; 'I' for Inactive)
REMARK    1  A    between atoms: S_2  and  C_3 
REMARK    2  A    between atoms: C_6  and  C_7 
REMARK    3  A    between atoms: N_8  and  C_9 
REMARK    4  A    between atoms: C_9  and  C_10 
REMARK    5  A    between atoms: C_10  and  C_11 
REMARK    6  A    between atoms: C_24  and  C_25 
REMARK    7  A    between atoms: C_26  and  O_27 
ROOT
HETATM    1  C   UNL     1      47.199 -29.047   0.857  1.00  0.00     0.159 A 
HETATM    2  N   UNL     1      47.397 -29.360   2.294  1.00  0.00    -0.333 N 
HETATM    3  C   UNL     1      46.237 -29.827   2.939  1.00  0.00     0.275 A 
HETATM    4  O   UNL     1      46.128 -30.190   4.100  1.00  0.00    -0.266 OA
HETATM    5  C   UNL     1      45.224 -29.816   1.906  1.00  0.00     0.155 A 
HETATM    6  C   UNL     1      45.767 -29.390   0.692  1.00  0.00     0.034 A 
HETATM    7  N   UNL     1      43.946 -30.173   1.814  1.00  0.00    -0.168 NA
HETATM    8  N   UNL     1      43.675 -29.940   0.505  1.00  0.00    -0.276 N 
HETATM    9  H   UNL     1      42.737 -30.128   0.164  1.00  0.00     0.189 HD
HETATM   10  C   UNL     1      44.765 -29.514  -0.237  1.00  0.00     0.074 A 
ENDROOT
BRANCH   1  11
HETATM   11  C   UNL     1      47.968 -29.905  -0.118  1.00  0.00    -0.031 A 
HETATM   12  C   UNL     1      47.684 -31.265  -0.329  1.00  0.00     0.011 A 
HETATM   13  C   UNL     1      48.391 -32.002  -1.283  1.00  0.00     0.019 A 
HETATM   14  C   UNL     1      49.389 -31.394  -2.048  1.00  0.00    -0.000 A 
HETATM   15  C   UNL     1      49.698 -30.052  -1.829  1.00  0.00     0.019 A 
HETATM   16  C   UNL     1      48.994 -29.314  -0.876  1.00  0.00     0.011 A 
BRANCH  14  17
HETATM   17  S   UNL     1      50.254 -32.339  -3.285  1.00  0.00    -0.134 SA
HETATM   18  C   UNL     1      51.941 -31.768  -2.945  1.00  0.00     0.095 C 
ENDBRANCH  14  17
ENDBRANCH   1  11
BRANCH   2  19
HETATM   19  C   UNL     1      48.692 -29.353   2.959  1.00  0.00     0.132 C 
BRANCH  19  20
HETATM   20  C   UNL     1      49.177 -30.697   3.518  1.00  0.00     0.058 C 
BRANCH  20  21
HETATM   21  C   UNL     1      49.862 -31.642   2.557  1.00  0.00    -0.057 A 
HETATM   22  C   UNL     1      49.504 -32.992   2.435  1.00  0.00     0.007 A 
HETATM   23  C   UNL     1      50.155 -33.820   1.518  1.00  0.00     0.001 A 
HETATM   24  C   UNL     1      51.160 -33.307   0.700  1.00  0.00     0.000 A 
HETATM   25  C   UNL     1      51.512 -31.965   0.794  1.00  0.00     0.001 A 
HETATM   26  C   UNL     1      50.865 -31.137   1.712  1.00  0.00     0.007 A 
ENDBRANCH  20  21
ENDBRANCH  19  20
ENDBRANCH   2  19
BRANCH  10  27
HETATM   27  C   UNL     1      44.726 -29.315  -1.677  1.00  0.00     0.026 A 
HETATM   28  C   UNL     1      44.233 -30.301  -2.546  1.00  0.00     0.078 A 
HETATM   29  C   UNL     1      44.156 -30.080  -3.918  1.00  0.00     0.037 A 
HETATM   30  C   UNL     1      44.605 -28.873  -4.450  1.00  0.00     0.003 A 
HETATM   31  C   UNL     1      45.122 -27.891  -3.606  1.00  0.00     0.001 A 
HETATM   32  C   UNL     1      45.179 -28.108  -2.226  1.00  0.00     0.016 A 
BRANCH  28  33
HETATM   33  O   UNL     1      43.832 -31.532  -2.100  1.00  0.00    -0.360 OA
HETATM   34  H   UNL     1      44.086 -31.599  -1.161  1.00  0.00     0.217 HD
ENDBRANCH  28  33
ENDBRANCH  10  27
TORSDOF 7
ENDMDL
MODEL 8
REMARK VINA RESULT:      -7.0      4.200      6.500
REMARK  7 active torsions:
REMARK  status: ('A' for Active; 'I' for Inactive)
REMARK    1  A    between atoms: S_2  and  C_3 
REMARK    2  A    between atoms: C_6  and  C_7 
REMARK    3  A    between atoms: N_8  and  C_9 
REMARK    4  A    between atoms: C_9  and  C_10 
REMARK    5  A    between atoms: C_10  and  C_11 
REMARK    6  A    between atoms: C_24  and  C_25 
REMARK    7  A    between atoms: C_26  and  O_27 
ROOT
HETATM    1  C   UNL     1      41.143 -11.870   0.065  1.00  0.00     0.159 A 
HETATM    2  N   UNL     1      40.421 -11.012  -0.907  1.00  0.00    -0.333 N 
HETATM    3  C   UNL     1      39.462 -11.701  -1.671  1.00  0.00     0.275 A 
HETATM    4  O   UNL     1      38.707 -11.236  -2.510  1.00  0.00    -0.266 OA
HETATM    5  C   UNL     1      39.552 -13.069  -1.207  1.00  0.00     0.155 A 
HETATM    6  C   UNL     1      40.501 -13.180  -0.190  1.00  0.00     0.034 A 
HETATM    7  N   UNL     1      38.913 -14.209  -1.458  1.00  0.00    -0.168 NA
HETATM    8  N   UNL     1      39.500 -15.066  -0.584  1.00  0.00    -0.276 N 
HETATM    9  H   UNL     1      39.193 -16.034  -0.575  1.00  0.00     0.189 HD
HETATM   10  C   UNL     1      40.436 -14.478   0.251  1.00  0.00     0.074 A 
ENDROOT
BRANCH   1  11
HETATM   11  C   UNL     1      40.919 -11.550   1.523  1.00  0.00    -0.031 A 
HETATM   12  C   UNL     1      39.680 -11.721   2.161  1.00  0.00     0.011 A 
HETATM   13  C   UNL     1      39.538 -11.461   3.527  1.00  0.00     0.019 A 
HETATM   14  C   UNL     1      40.633 -11.032   4.281  1.00  0.00    -0.000 A 
HETATM   15  C   UNL     1      41.862 -10.833   3.654  1.00  0.00     0.019 A 
HETATM   16  C   UNL     1      42.005 -11.091   2.289  1.00  0.00     0.011 A 
BRANCH  14  17
HETATM   17  S   UNL     1      40.444 -10.741   6.029  1.00  0.00    -0.134 SA
HETATM   18  C   UNL     1      41.571  -9.333   6.202  1.00  0.00     0.095 C 
ENDBRANCH  14  17
ENDBRANCH   1  11
BRANCH   2  19
HETATM   19  C   UNL     1      40.552  -9.563  -0.970  1.00  0.00     0.132 C 
BRANCH  19  20
HETATM   20  C   UNL     1      39.334  -8.749  -0.514  1.00  0.00     0.058 C 
BRANCH  20  21
HETATM   21  C   UNL     1      39.278  -8.339   0.940  1.00  0.00    -0.057 A 
HETATM   22  C   UNL     1      38.117  -8.452   1.716  1.00  0.00     0.007 A 
HETATM   23  C   UNL     1      38.122  -8.077   3.062  1.00  0.00     0.001 A 
HETATM   24  C   UNL     1      39.290  -7.599   3.652  1.00  0.00     0.000 A 
HETATM   25  C   UNL     1      40.456  -7.502   2.901  1.00  0.00     0.001 A 
HETATM   26  C   UNL     1      40.452  -7.873   1.555  1.00  0.00     0.007 A 
ENDBRANCH  20  21
ENDBRANCH  19  20
ENDBRANCH   2  19
BRANCH  10  27
HETATM   27  C   UNL     1      41.101 -15.186   1.334  1.00  0.00     0.026 A 
HETATM   28  C   UNL     1      40.404 -15.612   2.475  1.00  0.00     0.078 A 
HETATM   29  C   UNL     1      41.041 -16.331   3.483  1.00  0.00     0.037 A 
HETATM   30  C   UNL     1      42.402 -16.608   3.379  1.00  0.00     0.003 A 
HETATM   31  C   UNL     1      43.118 -16.171   2.265  1.00  0.00     0.001 A 
HETATM   32  C   UNL     1      42.471 -15.467   1.246  1.00  0.00     0.016 A 
BRANCH  28  33
HETATM   33  O   UNL     1      39.080 -15.322   2.672  1.00  0.00    -0.360 OA
HETATM   34  H   UNL     1      38.807 -14.711   1.963  1.00  0.00     0.217 HD
ENDBRANCH  28  33
ENDBRANCH  10  27
TORSDOF 7
ENDMDL
MODEL 9
REMARK VINA RESULT:      -6.9     14.898     17.101
REMARK  7 active torsions:
REMARK  status: ('A' for Active; 'I' for Inactive)
REMARK    1  A    between atoms: S_2  and  C_3 
REMARK    2  A    between atoms: C_6  and  C_7 
REMARK    3  A    between atoms: N_8  and  C_9 
REMARK    4  A    between atoms: C_9  and  C_10 
REMARK    5  A    between atoms: C_10  and  C_11 
REMARK    6  A    between atoms: C_24  and  C_25 
REMARK    7  A    between atoms: C_26  and  O_27 
ROOT
HETATM    1  C   UNL     1      47.754 -29.174   1.181  1.00  0.00     0.159 A 
HETATM    2  N   UNL     1      47.278 -28.689  -0.138  1.00  0.00    -0.333 N 
HETATM    3  C   UNL     1      48.176 -28.935  -1.193  1.00  0.00     0.275 A 
HETATM    4  O   UNL     1      48.021 -28.677  -2.375  1.00  0.00    -0.266 OA
HETATM    5  C   UNL     1      49.298 -29.594  -0.559  1.00  0.00     0.155 A 
HETATM    6  C   UNL     1      49.062 -29.760   0.806  1.00  0.00     0.034 A 
HETATM    7  N   UNL     1      50.445 -30.132  -0.964  1.00  0.00    -0.168 NA
HETATM    8  N   UNL     1      50.953 -30.631   0.191  1.00  0.00    -0.276 N 
HETATM    9  H   UNL     1      51.853 -31.100   0.161  1.00  0.00     0.189 HD
HETATM   10  C   UNL     1      50.125 -30.479   1.291  1.00  0.00     0.074 A 
ENDROOT
BRANCH   1  11
HETATM   11  C   UNL     1      46.945 -30.281   1.811  1.00  0.00    -0.031 A 
HETATM   12  C   UNL     1      47.009 -31.616   1.378  1.00  0.00     0.011 A 
HETATM   13  C   UNL     1      46.278 -32.613   2.030  1.00  0.00     0.019 A 
HETATM   14  C   UNL     1      45.477 -32.298   3.129  1.00  0.00    -0.000 A 
HETATM   15  C   UNL     1      45.384 -30.972   3.552  1.00  0.00     0.019 A 
HETATM   16  C   UNL     1      46.112 -29.974   2.901  1.00  0.00     0.011 A 
BRANCH  14  17
HETATM   17  S   UNL     1      44.582 -33.587   3.972  1.00  0.00    -0.134 SA
HETATM   18  C   UNL     1      43.411 -32.558   4.896  1.00  0.00     0.095 C 
ENDBRANCH  14  17
ENDBRANCH   1  11
BRANCH   2  19
HETATM   19  C   UNL     1      45.943 -28.159  -0.378  1.00  0.00     0.132 C 
BRANCH  19  20
HETATM   20  C   UNL     1      44.979 -29.067  -1.152  1.00  0.00     0.058 C 
BRANCH  20  21
HETATM   21  C   UNL     1      44.049 -29.942  -0.344  1.00  0.00    -0.057 A 
HETATM   22  C   UNL     1      43.953 -31.327  -0.534  1.00  0.00     0.007 A 
HETATM   23  C   UNL     1      43.091 -32.095   0.252  1.00  0.00     0.001 A 
HETATM   24  C   UNL     1      42.327 -31.492   1.249  1.00  0.00     0.000 A 
HETATM   25  C   UNL     1      42.426 -30.121   1.464  1.00  0.00     0.001 A 
HETATM   26  C   UNL     1      43.284 -29.352   0.677  1.00  0.00     0.007 A 
ENDBRANCH  20  21
ENDBRANCH  19  20
ENDBRANCH   2  19
BRANCH  10  27
HETATM   27  C   UNL     1      50.421 -31.039   2.601  1.00  0.00     0.026 A 
HETATM   28  C   UNL     1      50.663 -32.409   2.781  1.00  0.00     0.078 A 
HETATM   29  C   UNL     1      50.993 -32.926   4.031  1.00  0.00     0.037 A 
HETATM   30  C   UNL     1      51.055 -32.077   5.134  1.00  0.00     0.003 A 
HETATM   31  C   UNL     1      50.793 -30.716   4.981  1.00  0.00     0.001 A 
HETATM   32  C   UNL     1      50.481 -30.198   3.720  1.00  0.00     0.016 A 
BRANCH  28  33
HETATM   33  O   UNL     1      50.559 -33.310   1.755  1.00  0.00    -0.360 OA
HETATM   34  H   UNL     1      49.741 -33.820   1.895  1.00  0.00     0.217 HD
ENDBRANCH  28  33
ENDBRANCH  10  27
TORSDOF 7
ENDMDL
MODEL 10
REMARK VINA RESULT:      -6.9     14.895     17.534
REMARK  7 active torsions:
REMARK  status: ('A' for Active; 'I' for Inactive)
REMARK    1  A    between atoms: S_2  and  C_3 
REMARK    2  A    between atoms: C_6  and  C_7 
REMARK    3  A    between atoms: N_8  and  C_9 
REMARK    4  A    between atoms: C_9  and  C_10 
REMARK    5  A    between atoms: C_10  and  C_11 
REMARK    6  A    between atoms: C_24  and  C_25 
REMARK    7  A    between atoms: C_26  and  O_27 
ROOT
HETATM    1  C   UNL     1      47.068 -31.227   0.556  1.00  0.00     0.159 A 
HETATM    2  N   UNL     1      48.330 -30.750  -0.063  1.00  0.00    -0.333 N 
HETATM    3  C   UNL     1      48.218 -29.493  -0.686  1.00  0.00     0.275 A 
HETATM    4  O   UNL     1      49.103 -28.856  -1.235  1.00  0.00    -0.266 OA
HETATM    5  C   UNL     1      46.834 -29.120  -0.492  1.00  0.00     0.155 A 
HETATM    6  C   UNL     1      46.161 -30.098   0.243  1.00  0.00     0.034 A 
HETATM    7  N   UNL     1      46.079 -28.062  -0.774  1.00  0.00    -0.168 NA
HETATM    8  N   UNL     1      44.888 -28.401  -0.218  1.00  0.00    -0.276 N 
HETATM    9  H   UNL     1      44.113 -27.750  -0.300  1.00  0.00     0.189 HD
HETATM   10  C   UNL     1      44.898 -29.608   0.462  1.00  0.00     0.074 A 
ENDROOT
BRANCH   1  11
HETATM   11  C   UNL     1      47.082 -31.371   2.058  1.00  0.00    -0.031 A 
HETATM   12  C   UNL     1      47.247 -30.281   2.929  1.00  0.00     0.011 A 
HETATM   13  C   UNL     1      47.198 -30.461   4.315  1.00  0.00     0.019 A 
HETATM   14  C   UNL     1      46.978 -31.730   4.855  1.00  0.00    -0.000 A 
HETATM   15  C   UNL     1      46.839 -32.823   4.001  1.00  0.00     0.019 A 
HETATM   16  C   UNL     1      46.889 -32.647   2.617  1.00  0.00     0.011 A 
BRANCH  14  17
HETATM   17  S   UNL     1      46.881 -31.935   6.622  1.00  0.00    -0.134 SA
HETATM   18  C   UNL     1      45.106 -32.269   6.769  1.00  0.00     0.095 C 
ENDBRANCH  14  17
ENDBRANCH   1  11
BRANCH   2  19
HETATM   19  C   UNL     1      49.615 -31.417   0.090  1.00  0.00     0.132 C 
BRANCH  19  20
HETATM   20  C   UNL     1      50.642 -30.718   0.990  1.00  0.00     0.058 C 
BRANCH  20  21
HETATM   21  C   UNL     1      50.709 -31.155   2.435  1.00  0.00    -0.057 A 
HETATM   22  C   UNL     1      50.866 -30.251   3.495  1.00  0.00     0.007 A 
HETATM   23  C   UNL     1      50.903 -30.704   4.816  1.00  0.00     0.001 A 
HETATM   24  C   UNL     1      50.768 -32.062   5.096  1.00  0.00     0.000 A 
HETATM   25  C   UNL     1      50.591 -32.969   4.056  1.00  0.00     0.001 A 
HETATM   26  C   UNL     1      50.557 -32.519   2.736  1.00  0.00     0.007 A 
ENDBRANCH  20  21
ENDBRANCH  19  20
ENDBRANCH   2  19
BRANCH  10  27
HETATM   27  C   UNL     1      43.765 -30.107   1.226  1.00  0.00     0.026 A 
HETATM   28  C   UNL     1      43.402 -29.546   2.459  1.00  0.00     0.078 A 
HETATM   29  C   UNL     1      42.286 -30.000   3.158  1.00  0.00     0.037 A 
HETATM   30  C   UNL     1      41.533 -31.054   2.645  1.00  0.00     0.003 A 
HETATM   31  C   UNL     1      41.893 -31.642   1.433  1.00  0.00     0.001 A 
HETATM   32  C   UNL     1      43.001 -31.169   0.725  1.00  0.00     0.016 A 
BRANCH  28  33
HETATM   33  O   UNL     1      44.132 -28.551   3.052  1.00  0.00    -0.360 OA
HETATM   34  H   UNL     1      44.625 -28.951   3.792  1.00  0.00     0.217 HD
ENDBRANCH  28  33
ENDBRANCH  10  27
TORSDOF 7
ENDMDL
