MODEL 1
REMARK VINA RESULT:      -8.6      0.000      0.000
REMARK  8 active torsions:
REMARK  status: ('A' for Active; 'I' for Inactive)
REMARK    1  A    between atoms: C_4  and  O_5 
REMARK    2  A    between atoms: O_5  and  C_6 
REMARK    3  A    between atoms: C_6  and  C_7 
REMARK       I    between atoms: C_7  and  N_8 
REMARK    4  A    between atoms: N_8  and  N_9 
REMARK       I    between atoms: N_9  and  C_10 
REMARK    5  A    between atoms: C_10  and  C_11 
REMARK    6  A    between atoms: C_11  and  C_12 
REMARK    7  A    between atoms: C_12  and  N_13 
REMARK    8  A    between atoms: C_12  and  C_17 
REMARK       I    between atoms: N_13  and  C_14 
REMARK       I    between atoms: C_14  and  N_15 
ROOT
HETATM    1  N   UNL     1      42.328 -12.343   6.634  1.00  0.00    -0.267 N 
HETATM    2  C   UNL     1      42.814 -11.102   6.252  1.00  0.00     0.238 C 
HETATM    3  O   UNL     1      43.391 -10.898   5.187  1.00  0.00    -0.272 OA
HETATM    4  H   UNL     1      41.659 -12.401   7.401  1.00  0.00     0.190 HD
ENDROOT
BRANCH   2   5
HETATM    5  C   UNL     1      42.546 -10.019   7.270  1.00  0.00     0.134 C 
BRANCH   5   6
HETATM    6  C   UNL     1      43.819  -9.567   8.008  1.00  0.00     0.130 C 
BRANCH   6   7
HETATM    7  N   UNL     1      44.992 -10.375   7.665  1.00  0.00    -0.334 N 
HETATM    8  C   UNL     1      46.242  -9.835   7.652  1.00  0.00     0.314 C 
HETATM    9  N   UNL     1      47.174 -10.708   7.202  1.00  0.00    -0.352 N 
HETATM   10  O   UNL     1      46.520  -8.684   7.943  1.00  0.00    -0.248 OA
HETATM   11  H   UNL     1      47.020 -11.690   7.383  1.00  0.00     0.160 HD
HETATM   12  H   UNL     1      48.129 -10.389   7.304  1.00  0.00     0.160 HD
HETATM   13  H   UNL     1      44.867 -11.163   7.033  1.00  0.00     0.165 HD
ENDBRANCH   6   7
BRANCH   6  14
HETATM   14  C   UNL     1      43.611  -9.418   9.512  1.00  0.00    -0.013 A 
HETATM   15  C   UNL     1      43.400  -8.151  10.097  1.00  0.00     0.042 A 
HETATM   16 CL   UNL     1      43.346  -6.695   9.163  1.00  0.00    -0.084 Cl
HETATM   17  C   UNL     1      43.220  -8.014  11.478  1.00  0.00     0.024 A 
HETATM   18  C   UNL     1      43.243  -9.134  12.305  1.00  0.00     0.002 A 
HETATM   19  C   UNL     1      43.434 -10.393  11.748  1.00  0.00     0.001 A 
HETATM   20  C   UNL     1      43.609 -10.535  10.369  1.00  0.00     0.011 A 
ENDBRANCH   6  14
ENDBRANCH   5   6
ENDBRANCH   2   5
BRANCH   1  21
HETATM   21  N   UNL     1      42.199 -13.324   5.647  1.00  0.00    -0.266 N 
HETATM   22  C   UNL     1      42.800 -14.558   5.854  1.00  0.00     0.260 C 
HETATM   23  O   UNL     1      43.571 -14.786   6.788  1.00  0.00    -0.269 OA
HETATM   24  H   UNL     1      41.382 -13.264   5.041  1.00  0.00     0.190 HD
BRANCH  22  25
HETATM   25  C   UNL     1      42.366 -15.614   4.841  1.00  0.00     0.280 C 
BRANCH  25  26
HETATM   26  O   UNL     1      43.523 -16.059   4.138  1.00  0.00    -0.342 OA
BRANCH  26  27
HETATM   27  C   UNL     1      43.625 -17.392   3.858  1.00  0.00     0.069 A 
HETATM   28  C   UNL     1      43.996 -18.395   4.755  1.00  0.00     0.043 A 
HETATM   29  C   UNL     1      44.037 -19.737   4.341  1.00  0.00    -0.059 A 
HETATM   30  C   UNL     1      44.384 -20.830   5.308  1.00  0.00     0.048 C 
HETATM   31  C   UNL     1      43.686 -20.062   3.024  1.00  0.00     0.007 A 
HETATM   32  C   UNL     1      43.315 -19.063   2.128  1.00  0.00     0.003 A 
HETATM   33  C   UNL     1      43.282 -17.733   2.548  1.00  0.00     0.037 A 
ENDBRANCH  26  27
ENDBRANCH  25  26
ENDBRANCH  22  25
ENDBRANCH   1  21
TORSDOF 8
ENDMDL
MODEL 2
REMARK VINA RESULT:      -8.6      2.948      9.485
REMARK  8 active torsions:
REMARK  status: ('A' for Active; 'I' for Inactive)
REMARK    1  A    between atoms: C_4  and  O_5 
REMARK    2  A    between atoms: O_5  and  C_6 
REMARK    3  A    between atoms: C_6  and  C_7 
REMARK       I    between atoms: C_7  and  N_8 
REMARK    4  A    between atoms: N_8  and  N_9 
REMARK       I    between atoms: N_9  and  C_10 
REMARK    5  A    between atoms: C_10  and  C_11 
REMARK    6  A    between atoms: C_11  and  C_12 
REMARK    7  A    between atoms: C_12  and  N_13 
REMARK    8  A    between atoms: C_12  and  C_17 
REMARK       I    between atoms: N_13  and  C_14 
REMARK       I    between atoms: C_14  and  N_15 
ROOT
HETATM    1  N   UNL     1      43.977 -14.043   6.579  1.00  0.00    -0.267 N 
HETATM    2  C   UNL     1      43.601 -15.295   7.040  1.00  0.00     0.238 C 
HETATM    3  O   UNL     1      42.853 -15.469   7.998  1.00  0.00    -0.272 OA
HETATM    4  H   UNL     1      44.393 -13.958   5.653  1.00  0.00     0.190 HD
ENDROOT
BRANCH   2   5
HETATM    5  C   UNL     1      44.190 -16.427   6.232  1.00  0.00     0.134 C 
BRANCH   5   6
HETATM    6  C   UNL     1      43.408 -16.702   4.935  1.00  0.00     0.130 C 
BRANCH   6   7
HETATM    7  N   UNL     1      42.001 -16.308   5.025  1.00  0.00    -0.334 N 
HETATM    8  C   UNL     1      41.552 -15.155   4.456  1.00  0.00     0.314 C 
HETATM    9  N   UNL     1      40.253 -14.911   4.745  1.00  0.00    -0.352 N 
HETATM   10  O   UNL     1      42.229 -14.373   3.809  1.00  0.00    -0.248 OA
HETATM   11  H   UNL     1      39.646 -15.708   4.881  1.00  0.00     0.160 HD
HETATM   12  H   UNL     1      39.848 -14.137   4.232  1.00  0.00     0.160 HD
HETATM   13  H   UNL     1      41.464 -16.615   5.835  1.00  0.00     0.165 HD
ENDBRANCH   6   7
BRANCH   6  14
HETATM   14  C   UNL     1      43.602 -18.124   4.416  1.00  0.00    -0.013 A 
HETATM   15  C   UNL     1      43.496 -18.420   3.041  1.00  0.00     0.042 A 
HETATM   16 CL   UNL     1      43.157 -17.205   1.854  1.00  0.00    -0.084 Cl
HETATM   17  C   UNL     1      43.663 -19.726   2.568  1.00  0.00     0.024 A 
HETATM   18  C   UNL     1      43.942 -20.764   3.452  1.00  0.00     0.002 A 
HETATM   19  C   UNL     1      44.067 -20.493   4.809  1.00  0.00     0.001 A 
HETATM   20  C   UNL     1      43.907 -19.189   5.286  1.00  0.00     0.011 A 
ENDBRANCH   6  14
ENDBRANCH   5   6
ENDBRANCH   2   5
BRANCH   1  21
HETATM   21  N   UNL     1      43.231 -12.941   7.007  1.00  0.00    -0.266 N 
HETATM   22  C   UNL     1      43.245 -11.788   6.234  1.00  0.00     0.260 C 
HETATM   23  O   UNL     1      44.000 -11.628   5.272  1.00  0.00    -0.269 OA
HETATM   24  H   UNL     1      42.426 -13.131   7.602  1.00  0.00     0.190 HD
BRANCH  22  25
HETATM   25  C   UNL     1      42.196 -10.766   6.662  1.00  0.00     0.280 C 
BRANCH  25  26
HETATM   26  O   UNL     1      42.870  -9.572   7.052  1.00  0.00    -0.342 OA
BRANCH  26  27
HETATM   27  C   UNL     1      43.520  -9.571   8.252  1.00  0.00     0.069 A 
HETATM   28  C   UNL     1      42.935  -9.762   9.505  1.00  0.00     0.043 A 
HETATM   29  C   UNL     1      43.727  -9.762  10.666  1.00  0.00    -0.059 A 
HETATM   30  C   UNL     1      43.117 -10.017  12.012  1.00  0.00     0.048 C 
HETATM   31  C   UNL     1      45.112  -9.584  10.553  1.00  0.00     0.007 A 
HETATM   32  C   UNL     1      45.698  -9.393   9.305  1.00  0.00     0.003 A 
HETATM   33  C   UNL     1      44.902  -9.391   8.159  1.00  0.00     0.037 A 
ENDBRANCH  26  27
ENDBRANCH  25  26
ENDBRANCH  22  25
ENDBRANCH   1  21
TORSDOF 8
ENDMDL
MODEL 3
REMARK VINA RESULT:      -8.4      5.437      8.916
REMARK  8 active torsions:
REMARK  status: ('A' for Active; 'I' for Inactive)
REMARK    1  A    between atoms: C_4  and  O_5 
REMARK    2  A    between atoms: O_5  and  C_6 
REMARK    3  A    between atoms: C_6  and  C_7 
REMARK       I    between atoms: C_7  and  N_8 
REMARK    4  A    between atoms: N_8  and  N_9 
REMARK       I    between atoms: N_9  and  C_10 
REMARK    5  A    between atoms: C_10  and  C_11 
REMARK    6  A    between atoms: C_11  and  C_12 
REMARK    7  A    between atoms: C_12  and  N_13 
REMARK    8  A    between atoms: C_12  and  C_17 
REMARK       I    between atoms: N_13  and  C_14 
REMARK       I    between atoms: C_14  and  N_15 
ROOT
HETATM    1  N   UNL     1      39.108 -14.088   2.947  1.00  0.00    -0.267 N 
HETATM    2  C   UNL     1      39.880 -15.138   2.476  1.00  0.00     0.238 C 
HETATM    3  O   UNL     1      40.104 -15.336   1.285  1.00  0.00    -0.272 OA
HETATM    4  H   UNL     1      39.156 -13.837   3.933  1.00  0.00     0.190 HD
ENDROOT
BRANCH   2   5
HETATM    5  C   UNL     1      40.436 -16.008   3.579  1.00  0.00     0.134 C 
BRANCH   5   6
HETATM    6  C   UNL     1      41.951 -15.822   3.777  1.00  0.00     0.130 C 
BRANCH   6   7
HETATM    7  N   UNL     1      42.478 -14.655   3.065  1.00  0.00    -0.334 N 
HETATM    8  C   UNL     1      42.920 -13.557   3.738  1.00  0.00     0.314 C 
HETATM    9  N   UNL     1      43.260 -12.546   2.906  1.00  0.00    -0.352 N 
HETATM   10  O   UNL     1      42.957 -13.437   4.952  1.00  0.00    -0.248 OA
HETATM   11  H   UNL     1      43.622 -12.793   1.994  1.00  0.00     0.160 HD
HETATM   12  H   UNL     1      43.717 -11.766   3.361  1.00  0.00     0.160 HD
HETATM   13  H   UNL     1      42.129 -14.463   2.128  1.00  0.00     0.165 HD
ENDBRANCH   6   7
BRANCH   6  14
HETATM   14  C   UNL     1      42.744 -17.098   3.509  1.00  0.00    -0.013 A 
HETATM   15  C   UNL     1      43.780 -17.508   4.375  1.00  0.00     0.042 A 
HETATM   16 CL   UNL     1      44.213 -16.614   5.793  1.00  0.00    -0.084 Cl
HETATM   17  C   UNL     1      44.514 -18.673   4.123  1.00  0.00     0.024 A 
HETATM   18  C   UNL     1      44.231 -19.455   3.008  1.00  0.00     0.002 A 
HETATM   19  C   UNL     1      43.204 -19.079   2.149  1.00  0.00     0.001 A 
HETATM   20  C   UNL     1      42.464 -17.919   2.400  1.00  0.00     0.011 A 
ENDBRANCH   6  14
ENDBRANCH   5   6
ENDBRANCH   2   5
BRANCH   1  21
HETATM   21  N   UNL     1      38.841 -13.032   2.070  1.00  0.00    -0.266 N 
HETATM   22  C   UNL     1      39.516 -11.833   2.249  1.00  0.00     0.260 C 
HETATM   23  O   UNL     1      40.223 -11.595   3.230  1.00  0.00    -0.269 OA
HETATM   24  H   UNL     1      38.502 -13.278   1.141  1.00  0.00     0.190 HD
BRANCH  22  25
HETATM   25  C   UNL     1      39.338 -10.864   1.083  1.00  0.00     0.280 C 
BRANCH  25  26
HETATM   26  O   UNL     1      38.437 -11.452   0.148  1.00  0.00    -0.342 OA
BRANCH  26  27
HETATM   27  C   UNL     1      38.970 -12.137  -0.905  1.00  0.00     0.069 A 
HETATM   28  C   UNL     1      38.369 -13.195  -1.588  1.00  0.00     0.043 A 
HETATM   29  C   UNL     1      39.021 -13.799  -2.677  1.00  0.00    -0.059 A 
HETATM   30  C   UNL     1      38.363 -14.903  -3.451  1.00  0.00     0.048 C 
HETATM   31  C   UNL     1      40.273 -13.319  -3.081  1.00  0.00     0.007 A 
HETATM   32  C   UNL     1      40.875 -12.263  -2.402  1.00  0.00     0.003 A 
HETATM   33  C   UNL     1      40.221 -11.673  -1.320  1.00  0.00     0.037 A 
ENDBRANCH  26  27
ENDBRANCH  25  26
ENDBRANCH  22  25
ENDBRANCH   1  21
TORSDOF 8
ENDMDL
MODEL 4
REMARK VINA RESULT:      -8.3      2.792      9.603
REMARK  8 active torsions:
REMARK  status: ('A' for Active; 'I' for Inactive)
REMARK    1  A    between atoms: C_4  and  O_5 
REMARK    2  A    between atoms: O_5  and  C_6 
REMARK    3  A    between atoms: C_6  and  C_7 
REMARK       I    between atoms: C_7  and  N_8 
REMARK    4  A    between atoms: N_8  and  N_9 
REMARK       I    between atoms: N_9  and  C_10 
REMARK    5  A    between atoms: C_10  and  C_11 
REMARK    6  A    between atoms: C_11  and  C_12 
REMARK    7  A    between atoms: C_12  and  N_13 
REMARK    8  A    between atoms: C_12  and  C_17 
REMARK       I    between atoms: N_13  and  C_14 
REMARK       I    between atoms: C_14  and  N_15 
ROOT
HETATM    1  N   UNL     1      42.345 -13.905   6.279  1.00  0.00    -0.267 N 
HETATM    2  C   UNL     1      41.086 -14.417   6.008  1.00  0.00     0.238 C 
HETATM    3  O   UNL     1      40.052 -13.975   6.503  1.00  0.00    -0.272 OA
HETATM    4  H   UNL     1      43.123 -14.147   5.667  1.00  0.00     0.190 HD
ENDROOT
BRANCH   2   5
HETATM    5  C   UNL     1      41.110 -15.564   5.026  1.00  0.00     0.134 C 
BRANCH   5   6
HETATM    6  C   UNL     1      42.273 -15.465   4.022  1.00  0.00     0.130 C 
BRANCH   6   7
HETATM    7  N   UNL     1      41.943 -14.654   2.848  1.00  0.00    -0.334 N 
HETATM    8  C   UNL     1      42.314 -13.347   2.765  1.00  0.00     0.314 C 
HETATM    9  N   UNL     1      41.820 -12.740   1.661  1.00  0.00    -0.352 N 
HETATM   10  O   UNL     1      42.962 -12.739   3.602  1.00  0.00    -0.248 OA
HETATM   11  H   UNL     1      41.687 -13.309   0.836  1.00  0.00     0.160 HD
HETATM   12  H   UNL     1      42.184 -11.810   1.496  1.00  0.00     0.160 HD
HETATM   13  H   UNL     1      41.103 -14.888   2.321  1.00  0.00     0.165 HD
ENDBRANCH   6   7
BRANCH   6  14
HETATM   14  C   UNL     1      42.866 -16.825   3.666  1.00  0.00    -0.013 A 
HETATM   15  C   UNL     1      43.853 -17.426   4.476  1.00  0.00     0.042 A 
HETATM   16 CL   UNL     1      44.445 -16.681   5.923  1.00  0.00    -0.084 Cl
HETATM   17  C   UNL     1      44.403 -18.668   4.143  1.00  0.00     0.024 A 
HETATM   18  C   UNL     1      43.982 -19.340   2.999  1.00  0.00     0.002 A 
HETATM   19  C   UNL     1      43.000 -18.774   2.194  1.00  0.00     0.001 A 
HETATM   20  C   UNL     1      42.442 -17.536   2.527  1.00  0.00     0.011 A 
ENDBRANCH   6  14
ENDBRANCH   5   6
ENDBRANCH   2   5
BRANCH   1  21
HETATM   21  N   UNL     1      42.420 -12.644   6.877  1.00  0.00    -0.266 N 
HETATM   22  C   UNL     1      43.664 -12.041   7.003  1.00  0.00     0.260 C 
HETATM   23  O   UNL     1      44.724 -12.620   6.757  1.00  0.00    -0.269 OA
HETATM   24  H   UNL     1      41.587 -12.059   6.829  1.00  0.00     0.190 HD
BRANCH  22  25
HETATM   25  C   UNL     1      43.581 -10.576   7.423  1.00  0.00     0.280 C 
BRANCH  25  26
HETATM   26  O   UNL     1      44.072 -10.465   8.756  1.00  0.00    -0.342 OA
BRANCH  26  27
HETATM   27  C   UNL     1      43.683  -9.383   9.491  1.00  0.00     0.069 A 
HETATM   28  C   UNL     1      43.612  -9.315  10.883  1.00  0.00     0.043 A 
HETATM   29  C   UNL     1      43.216  -8.125  11.516  1.00  0.00    -0.059 A 
HETATM   30  C   UNL     1      43.186  -8.024  13.013  1.00  0.00     0.048 C 
HETATM   31  C   UNL     1      42.908  -7.001  10.739  1.00  0.00     0.007 A 
HETATM   32  C   UNL     1      42.977  -7.066   9.350  1.00  0.00     0.003 A 
HETATM   33  C   UNL     1      43.368  -8.254   8.730  1.00  0.00     0.037 A 
ENDBRANCH  26  27
ENDBRANCH  25  26
ENDBRANCH  22  25
ENDBRANCH   1  21
TORSDOF 8
ENDMDL
MODEL 5
REMARK VINA RESULT:      -8.2      2.891      4.130
REMARK  8 active torsions:
REMARK  status: ('A' for Active; 'I' for Inactive)
REMARK    1  A    between atoms: C_4  and  O_5 
REMARK    2  A    between atoms: O_5  and  C_6 
REMARK    3  A    between atoms: C_6  and  C_7 
REMARK       I    between atoms: C_7  and  N_8 
REMARK    4  A    between atoms: N_8  and  N_9 
REMARK       I    between atoms: N_9  and  C_10 
REMARK    5  A    between atoms: C_10  and  C_11 
REMARK    6  A    between atoms: C_11  and  C_12 
REMARK    7  A    between atoms: C_12  and  N_13 
REMARK    8  A    between atoms: C_12  and  C_17 
REMARK       I    between atoms: N_13  and  C_14 
REMARK       I    between atoms: C_14  and  N_15 
ROOT
HETATM    1  N   UNL     1      43.656 -11.389   8.641  1.00  0.00    -0.267 N 
HETATM    2  C   UNL     1      43.565 -10.087   9.105  1.00  0.00     0.238 C 
HETATM    3  O   UNL     1      43.545  -9.103   8.370  1.00  0.00    -0.272 OA
HETATM    4  H   UNL     1      43.428 -12.159   9.269  1.00  0.00     0.190 HD
ENDROOT
BRANCH   2   5
HETATM    5  C   UNL     1      43.474  -9.997  10.610  1.00  0.00     0.134 C 
BRANCH   5   6
HETATM    6  C   UNL     1      42.093  -9.520  11.096  1.00  0.00     0.130 C 
BRANCH   6   7
HETATM    7  N   UNL     1      41.384  -8.720  10.095  1.00  0.00    -0.334 N 
HETATM    8  C   UNL     1      40.116  -9.032   9.709  1.00  0.00     0.314 C 
HETATM    9  N   UNL     1      39.678  -8.247   8.697  1.00  0.00    -0.352 N 
HETATM   10  O   UNL     1      39.445  -9.948  10.155  1.00  0.00    -0.248 OA
HETATM   11  H   UNL     1      40.029  -7.300   8.655  1.00  0.00     0.160 HD
HETATM   12  H   UNL     1      38.697  -8.360   8.475  1.00  0.00     0.160 HD
HETATM   13  H   UNL     1      41.933  -8.237   9.386  1.00  0.00     0.165 HD
ENDBRANCH   6   7
BRANCH   6  14
HETATM   14  C   UNL     1      42.145  -8.856  12.469  1.00  0.00    -0.013 A 
HETATM   15  C   UNL     1      41.247  -9.228  13.493  1.00  0.00     0.042 A 
HETATM   16 CL   UNL     1      40.049 -10.459  13.275  1.00  0.00    -0.084 Cl
HETATM   17  C   UNL     1      41.289  -8.612  14.748  1.00  0.00     0.024 A 
HETATM   18  C   UNL     1      42.224  -7.616  15.012  1.00  0.00     0.002 A 
HETATM   19  C   UNL     1      43.127  -7.244  14.024  1.00  0.00     0.001 A 
HETATM   20  C   UNL     1      43.094  -7.861  12.770  1.00  0.00     0.011 A 
ENDBRANCH   6  14
ENDBRANCH   5   6
ENDBRANCH   2   5
BRANCH   1  21
HETATM   21  N   UNL     1      43.390 -11.618   7.288  1.00  0.00    -0.266 N 
HETATM   22  C   UNL     1      43.351 -12.928   6.831  1.00  0.00     0.260 C 
HETATM   23  O   UNL     1      43.690 -13.894   7.517  1.00  0.00    -0.269 OA
HETATM   24  H   UNL     1      42.858 -10.903   6.795  1.00  0.00     0.190 HD
BRANCH  22  25
HETATM   25  C   UNL     1      42.796 -13.053   5.414  1.00  0.00     0.280 C 
BRANCH  25  26
HETATM   26  O   UNL     1      42.336 -14.390   5.233  1.00  0.00    -0.342 OA
BRANCH  26  27
HETATM   27  C   UNL     1      42.695 -15.036   4.085  1.00  0.00     0.069 A 
HETATM   28  C   UNL     1      42.771 -16.419   3.908  1.00  0.00     0.043 A 
HETATM   29  C   UNL     1      43.131 -16.956   2.661  1.00  0.00    -0.059 A 
HETATM   30  C   UNL     1      43.166 -18.440   2.444  1.00  0.00     0.048 C 
HETATM   31  C   UNL     1      43.400 -16.092   1.591  1.00  0.00     0.007 A 
HETATM   32  C   UNL     1      43.325 -14.712   1.765  1.00  0.00     0.003 A 
HETATM   33  C   UNL     1      42.970 -14.189   3.009  1.00  0.00     0.037 A 
ENDBRANCH  26  27
ENDBRANCH  25  26
ENDBRANCH  22  25
ENDBRANCH   1  21
TORSDOF 8
ENDMDL
MODEL 6
REMARK VINA RESULT:      -8.0      2.939      4.104
REMARK  8 active torsions:
REMARK  status: ('A' for Active; 'I' for Inactive)
REMARK    1  A    between atoms: C_4  and  O_5 
REMARK    2  A    between atoms: O_5  and  C_6 
REMARK    3  A    between atoms: C_6  and  C_7 
REMARK       I    between atoms: C_7  and  N_8 
REMARK    4  A    between atoms: N_8  and  N_9 
REMARK       I    between atoms: N_9  and  C_10 
REMARK    5  A    between atoms: C_10  and  C_11 
REMARK    6  A    between atoms: C_11  and  C_12 
REMARK    7  A    between atoms: C_12  and  N_13 
REMARK    8  A    between atoms: C_12  and  C_17 
REMARK       I    between atoms: N_13  and  C_14 
REMARK       I    between atoms: C_14  and  N_15 
ROOT
HETATM    1  N   UNL     1      39.922 -13.448   4.754  1.00  0.00    -0.267 N 
HETATM    2  C   UNL     1      40.984 -13.139   5.589  1.00  0.00     0.238 C 
HETATM    3  O   UNL     1      41.879 -13.932   5.870  1.00  0.00    -0.272 OA
HETATM    4  H   UNL     1      39.354 -12.694   4.370  1.00  0.00     0.190 HD
ENDROOT
BRANCH   2   5
HETATM    5  C   UNL     1      40.942 -11.720   6.104  1.00  0.00     0.134 C 
BRANCH   5   6
HETATM    6  C   UNL     1      42.026 -10.826   5.473  1.00  0.00     0.130 C 
BRANCH   6   7
HETATM    7  N   UNL     1      42.270 -11.137   4.063  1.00  0.00    -0.334 N 
HETATM    8  C   UNL     1      41.702 -10.402   3.068  1.00  0.00     0.314 C 
HETATM    9  N   UNL     1      41.956 -10.914   1.841  1.00  0.00    -0.352 N 
HETATM   10  O   UNL     1      40.987  -9.426   3.227  1.00  0.00    -0.248 OA
HETATM   11  H   UNL     1      42.832 -11.400   1.710  1.00  0.00     0.160 HD
HETATM   12  H   UNL     1      41.664 -10.322   1.073  1.00  0.00     0.160 HD
HETATM   13  H   UNL     1      42.473 -12.103   3.811  1.00  0.00     0.165 HD
ENDBRANCH   6   7
BRANCH   6  14
HETATM   14  C   UNL     1      43.303 -10.766   6.306  1.00  0.00    -0.013 A 
HETATM   15  C   UNL     1      43.372  -9.987   7.481  1.00  0.00     0.042 A 
HETATM   16 CL   UNL     1      42.027  -9.067   8.064  1.00  0.00    -0.084 Cl
HETATM   17  C   UNL     1      44.547  -9.925   8.238  1.00  0.00     0.024 A 
HETATM   18  C   UNL     1      45.676 -10.637   7.845  1.00  0.00     0.002 A 
HETATM   19  C   UNL     1      45.626 -11.423   6.699  1.00  0.00     0.001 A 
HETATM   20  C   UNL     1      44.452 -11.494   5.943  1.00  0.00     0.011 A 
ENDBRANCH   6  14
ENDBRANCH   5   6
ENDBRANCH   2   5
BRANCH   1  21
HETATM   21  N   UNL     1      40.035 -14.584   3.948  1.00  0.00    -0.266 N 
HETATM   22  C   UNL     1      40.217 -14.416   2.583  1.00  0.00     0.260 C 
HETATM   23  O   UNL     1      40.129 -13.323   2.019  1.00  0.00    -0.269 OA
HETATM   24  H   UNL     1      40.378 -15.434   4.394  1.00  0.00     0.190 HD
BRANCH  22  25
HETATM   25  C   UNL     1      40.589 -15.708   1.862  1.00  0.00     0.280 C 
BRANCH  25  26
HETATM   26  O   UNL     1      42.010 -15.775   1.772  1.00  0.00    -0.342 OA
BRANCH  26  27
HETATM   27  C   UNL     1      42.647 -16.764   2.465  1.00  0.00     0.069 A 
HETATM   28  C   UNL     1      42.798 -18.089   2.056  1.00  0.00     0.043 A 
HETATM   29  C   UNL     1      43.501 -19.004   2.859  1.00  0.00    -0.059 A 
HETATM   30  C   UNL     1      43.714 -20.418   2.406  1.00  0.00     0.048 C 
HETATM   31  C   UNL     1      44.061 -18.570   4.067  1.00  0.00     0.007 A 
HETATM   32  C   UNL     1      43.911 -17.248   4.478  1.00  0.00     0.003 A 
HETATM   33  C   UNL     1      43.209 -16.349   3.675  1.00  0.00     0.037 A 
ENDBRANCH  26  27
ENDBRANCH  25  26
ENDBRANCH  22  25
ENDBRANCH   1  21
TORSDOF 8
ENDMDL
MODEL 7
REMARK VINA RESULT:      -8.0      2.953      9.610
REMARK  8 active torsions:
REMARK  status: ('A' for Active; 'I' for Inactive)
REMARK    1  A    between atoms: C_4  and  O_5 
REMARK    2  A    between atoms: O_5  and  C_6 
REMARK    3  A    between atoms: C_6  and  C_7 
REMARK       I    between atoms: C_7  and  N_8 
REMARK    4  A    between atoms: N_8  and  N_9 
REMARK       I    between atoms: N_9  and  C_10 
REMARK    5  A    between atoms: C_10  and  C_11 
REMARK    6  A    between atoms: C_11  and  C_12 
REMARK    7  A    between atoms: C_12  and  N_13 
REMARK    8  A    between atoms: C_12  and  C_17 
REMARK       I    between atoms: N_13  and  C_14 
REMARK       I    between atoms: C_14  and  N_15 
ROOT
HETATM    1  N   UNL     1      43.050 -12.222   7.356  1.00  0.00    -0.267 N 
HETATM    2  C   UNL     1      43.246 -12.388   5.995  1.00  0.00     0.238 C 
HETATM    3  O   UNL     1      43.098 -11.488   5.172  1.00  0.00    -0.272 OA
HETATM    4  H   UNL     1      43.415 -12.921   8.001  1.00  0.00     0.190 HD
ENDROOT
BRANCH   2   5
HETATM    5  C   UNL     1      43.680 -13.787   5.623  1.00  0.00     0.134 C 
BRANCH   5   6
HETATM    6  C   UNL     1      42.807 -14.407   4.517  1.00  0.00     0.130 C 
BRANCH   6   7
HETATM    7  N   UNL     1      41.374 -14.208   4.746  1.00  0.00    -0.334 N 
HETATM    8  C   UNL     1      40.621 -13.455   3.897  1.00  0.00     0.314 C 
HETATM    9  N   UNL     1      39.351 -13.297   4.339  1.00  0.00    -0.352 N 
HETATM   10  O   UNL     1      41.025 -12.916   2.880  1.00  0.00    -0.248 OA
HETATM   11  H   UNL     1      38.949 -14.047   4.884  1.00  0.00     0.160 HD
HETATM   12  H   UNL     1      38.728 -12.859   3.672  1.00  0.00     0.160 HD
HETATM   13  H   UNL     1      41.030 -14.233   5.705  1.00  0.00     0.165 HD
ENDBRANCH   6   7
BRANCH   6  14
HETATM   14  C   UNL     1      43.172 -15.858   4.219  1.00  0.00    -0.013 A 
HETATM   15  C   UNL     1      43.192 -16.348   2.896  1.00  0.00     0.042 A 
HETATM   16 CL   UNL     1      42.824 -15.349   1.531  1.00  0.00    -0.084 Cl
HETATM   17  C   UNL     1      43.516 -17.682   2.624  1.00  0.00     0.024 A 
HETATM   18  C   UNL     1      43.830 -18.555   3.661  1.00  0.00     0.002 A 
HETATM   19  C   UNL     1      43.831 -18.090   4.972  1.00  0.00     0.001 A 
HETATM   20  C   UNL     1      43.514 -16.757   5.247  1.00  0.00     0.011 A 
ENDBRANCH   6  14
ENDBRANCH   5   6
ENDBRANCH   2   5
BRANCH   1  21
HETATM   21  N   UNL     1      42.997 -10.916   7.852  1.00  0.00    -0.266 N 
HETATM   22  C   UNL     1      44.072 -10.441   8.590  1.00  0.00     0.260 C 
HETATM   23  O   UNL     1      45.004 -11.157   8.965  1.00  0.00    -0.269 OA
HETATM   24  H   UNL     1      42.410 -10.254   7.347  1.00  0.00     0.190 HD
BRANCH  22  25
HETATM   25  C   UNL     1      44.011  -8.937   8.842  1.00  0.00     0.280 C 
BRANCH  25  26
HETATM   26  O   UNL     1      42.696  -8.614   9.289  1.00  0.00    -0.342 OA
BRANCH  26  27
HETATM   27  C   UNL     1      42.418  -8.774  10.616  1.00  0.00     0.069 A 
HETATM   28  C   UNL     1      41.332  -9.467  11.152  1.00  0.00     0.043 A 
HETATM   29  C   UNL     1      41.176  -9.577  12.544  1.00  0.00    -0.059 A 
HETATM   30  C   UNL     1      40.041 -10.362  13.131  1.00  0.00     0.048 C 
HETATM   31  C   UNL     1      42.130  -8.998  13.391  1.00  0.00     0.007 A 
HETATM   32  C   UNL     1      43.215  -8.306  12.859  1.00  0.00     0.003 A 
HETATM   33  C   UNL     1      43.358  -8.199  11.475  1.00  0.00     0.037 A 
ENDBRANCH  26  27
ENDBRANCH  25  26
ENDBRANCH  22  25
ENDBRANCH   1  21
TORSDOF 8
ENDMDL
MODEL 8
REMARK VINA RESULT:      -8.0      3.043      9.327
REMARK  8 active torsions:
REMARK  status: ('A' for Active; 'I' for Inactive)
REMARK    1  A    between atoms: C_4  and  O_5 
REMARK    2  A    between atoms: O_5  and  C_6 
REMARK    3  A    between atoms: C_6  and  C_7 
REMARK       I    between atoms: C_7  and  N_8 
REMARK    4  A    between atoms: N_8  and  N_9 
REMARK       I    between atoms: N_9  and  C_10 
REMARK    5  A    between atoms: C_10  and  C_11 
REMARK    6  A    between atoms: C_11  and  C_12 
REMARK    7  A    between atoms: C_12  and  N_13 
REMARK    8  A    between atoms: C_12  and  C_17 
REMARK       I    between atoms: N_13  and  C_14 
REMARK       I    between atoms: C_14  and  N_15 
ROOT
HETATM    1  N   UNL     1      41.422 -12.788   6.258  1.00  0.00    -0.267 N 
HETATM    2  C   UNL     1      42.360 -13.800   6.385  1.00  0.00     0.238 C 
HETATM    3  O   UNL     1      43.518 -13.611   6.746  1.00  0.00    -0.272 OA
HETATM    4  H   UNL     1      40.434 -13.030   6.192  1.00  0.00     0.190 HD
ENDROOT
BRANCH   2   5
HETATM    5  C   UNL     1      41.808 -15.167   6.055  1.00  0.00     0.134 C 
BRANCH   5   6
HETATM    6  C   UNL     1      42.032 -15.559   4.583  1.00  0.00     0.130 C 
BRANCH   6   7
HETATM    7  N   UNL     1      40.794 -15.556   3.800  1.00  0.00    -0.334 N 
HETATM    8  C   UNL     1      40.349 -14.425   3.186  1.00  0.00     0.314 C 
HETATM    9  N   UNL     1      39.137 -14.596   2.610  1.00  0.00    -0.352 N 
HETATM   10  O   UNL     1      40.919 -13.346   3.188  1.00  0.00    -0.248 OA
HETATM   11  H   UNL     1      38.912 -15.516   2.257  1.00  0.00     0.160 HD
HETATM   12  H   UNL     1      38.835 -13.821   2.032  1.00  0.00     0.160 HD
HETATM   13  H   UNL     1      40.059 -16.214   4.055  1.00  0.00     0.165 HD
ENDBRANCH   6   7
BRANCH   6  14
HETATM   14  C   UNL     1      42.838 -16.845   4.428  1.00  0.00    -0.013 A 
HETATM   15  C   UNL     1      43.329 -17.252   3.169  1.00  0.00     0.042 A 
HETATM   16 CL   UNL     1      43.071 -16.325   1.729  1.00  0.00    -0.084 Cl
HETATM   17  C   UNL     1      44.059 -18.437   3.027  1.00  0.00     0.024 A 
HETATM   18  C   UNL     1      44.317 -19.241   4.133  1.00  0.00     0.002 A 
HETATM   19  C   UNL     1      43.856 -18.853   5.386  1.00  0.00     0.001 A 
HETATM   20  C   UNL     1      43.132 -17.666   5.534  1.00  0.00     0.011 A 
ENDBRANCH   6  14
ENDBRANCH   5   6
ENDBRANCH   2   5
BRANCH   1  21
HETATM   21  N   UNL     1      41.701 -11.560   6.865  1.00  0.00    -0.266 N 
HETATM   22  C   UNL     1      41.237 -10.400   6.262  1.00  0.00     0.260 C 
HETATM   23  O   UNL     1      40.724 -10.379   5.141  1.00  0.00    -0.269 OA
HETATM   24  H   UNL     1      41.860 -11.569   7.871  1.00  0.00     0.190 HD
BRANCH  22  25
HETATM   25  C   UNL     1      41.375  -9.166   7.149  1.00  0.00     0.280 C 
BRANCH  25  26
HETATM   26  O   UNL     1      42.745  -8.775   7.160  1.00  0.00    -0.342 OA
BRANCH  26  27
HETATM   27  C   UNL     1      43.463  -9.001   8.299  1.00  0.00     0.069 A 
HETATM   28  C   UNL     1      43.105  -8.606   9.589  1.00  0.00     0.043 A 
HETATM   29  C   UNL     1      43.926  -8.926  10.683  1.00  0.00    -0.059 A 
HETATM   30  C   UNL     1      43.527  -8.551  12.080  1.00  0.00     0.048 C 
HETATM   31  C   UNL     1      45.101  -9.659  10.470  1.00  0.00     0.007 A 
HETATM   32  C   UNL     1      45.461 -10.054   9.185  1.00  0.00     0.003 A 
HETATM   33  C   UNL     1      44.640  -9.728   8.105  1.00  0.00     0.037 A 
ENDBRANCH  26  27
ENDBRANCH  25  26
ENDBRANCH  22  25
ENDBRANCH   1  21
TORSDOF 8
ENDMDL
MODEL 9
REMARK VINA RESULT:      -7.9      2.993      9.183
REMARK  8 active torsions:
REMARK  status: ('A' for Active; 'I' for Inactive)
REMARK    1  A    between atoms: C_4  and  O_5 
REMARK    2  A    between atoms: O_5  and  C_6 
REMARK    3  A    between atoms: C_6  and  C_7 
REMARK       I    between atoms: C_7  and  N_8 
REMARK    4  A    between atoms: N_8  and  N_9 
REMARK       I    between atoms: N_9  and  C_10 
REMARK    5  A    between atoms: C_10  and  C_11 
REMARK    6  A    between atoms: C_11  and  C_12 
REMARK    7  A    between atoms: C_12  and  N_13 
REMARK    8  A    between atoms: C_12  and  C_17 
REMARK       I    between atoms: N_13  and  C_14 
REMARK       I    between atoms: C_14  and  N_15 
ROOT
HETATM    1  N   UNL     1      41.203 -13.877   6.296  1.00  0.00    -0.267 N 
HETATM    2  C   UNL     1      40.667 -14.293   5.088  1.00  0.00     0.238 C 
HETATM    3  O   UNL     1      39.930 -13.595   4.396  1.00  0.00    -0.272 OA
HETATM    4  H   UNL     1      41.984 -14.393   6.698  1.00  0.00     0.190 HD
ENDROOT
BRANCH   2   5
HETATM    5  C   UNL     1      41.095 -15.688   4.696  1.00  0.00     0.134 C 
BRANCH   5   6
HETATM    6  C   UNL     1      42.204 -15.691   3.627  1.00  0.00     0.130 C 
BRANCH   6   7
HETATM    7  N   UNL     1      41.778 -15.085   2.364  1.00  0.00    -0.334 N 
HETATM    8  C   UNL     1      42.334 -13.926   1.913  1.00  0.00     0.314 C 
HETATM    9  N   UNL     1      41.730 -13.468   0.792  1.00  0.00    -0.352 N 
HETATM   10  O   UNL     1      43.230 -13.309   2.465  1.00  0.00    -0.248 OA
HETATM   11  H   UNL     1      41.339 -14.153   0.159  1.00  0.00     0.160 HD
HETATM   12  H   UNL     1      42.200 -12.686   0.354  1.00  0.00     0.160 HD
HETATM   13  H   UNL     1      40.821 -15.243   2.051  1.00  0.00     0.165 HD
ENDBRANCH   6   7
BRANCH   6  14
HETATM   14  C   UNL     1      42.849 -17.062   3.448  1.00  0.00    -0.013 A 
HETATM   15  C   UNL     1      43.802 -17.546   4.370  1.00  0.00     0.042 A 
HETATM   16 CL   UNL     1      44.291 -16.639   5.762  1.00  0.00    -0.084 Cl
HETATM   17  C   UNL     1      44.401 -18.799   4.199  1.00  0.00     0.024 A 
HETATM   18  C   UNL     1      44.063 -19.597   3.111  1.00  0.00     0.002 A 
HETATM   19  C   UNL     1      43.116 -19.148   2.198  1.00  0.00     0.001 A 
HETATM   20  C   UNL     1      42.510 -17.899   2.368  1.00  0.00     0.011 A 
ENDBRANCH   6  14
ENDBRANCH   5   6
ENDBRANCH   2   5
BRANCH   1  21
HETATM   21  N   UNL     1      41.173 -12.510   6.586  1.00  0.00    -0.266 N 
HETATM   22  C   UNL     1      42.239 -11.720   6.179  1.00  0.00     0.260 C 
HETATM   23  O   UNL     1      43.283 -12.182   5.712  1.00  0.00    -0.269 OA
HETATM   24  H   UNL     1      40.255 -12.084   6.705  1.00  0.00     0.190 HD
BRANCH  22  25
HETATM   25  C   UNL     1      41.965 -10.225   6.316  1.00  0.00     0.280 C 
BRANCH  25  26
HETATM   26  O   UNL     1      41.907  -9.908   7.705  1.00  0.00    -0.342 OA
BRANCH  26  27
HETATM   27  C   UNL     1      43.086  -9.807   8.385  1.00  0.00     0.069 A 
HETATM   28  C   UNL     1      44.356  -9.687   7.817  1.00  0.00     0.043 A 
HETATM   29  C   UNL     1      45.491  -9.565   8.636  1.00  0.00    -0.059 A 
HETATM   30  C   UNL     1      46.855  -9.384   8.037  1.00  0.00     0.048 C 
HETATM   31  C   UNL     1      45.337  -9.550  10.028  1.00  0.00     0.007 A 
HETATM   32  C   UNL     1      44.072  -9.670  10.597  1.00  0.00     0.003 A 
HETATM   33  C   UNL     1      42.951  -9.794   9.775  1.00  0.00     0.037 A 
ENDBRANCH  26  27
ENDBRANCH  25  26
ENDBRANCH  22  25
ENDBRANCH   1  21
TORSDOF 8
ENDMDL
MODEL 10
REMARK VINA RESULT:      -7.9      3.056      9.053
REMARK  8 active torsions:
REMARK  status: ('A' for Active; 'I' for Inactive)
REMARK    1  A    between atoms: C_4  and  O_5 
REMARK    2  A    between atoms: O_5  and  C_6 
REMARK    3  A    between atoms: C_6  and  C_7 
REMARK       I    between atoms: C_7  and  N_8 
REMARK    4  A    between atoms: N_8  and  N_9 
REMARK       I    between atoms: N_9  and  C_10 
REMARK    5  A    between atoms: C_10  and  C_11 
REMARK    6  A    between atoms: C_11  and  C_12 
REMARK    7  A    between atoms: C_12  and  N_13 
REMARK    8  A    between atoms: C_12  and  C_17 
REMARK       I    between atoms: N_13  and  C_14 
REMARK       I    between atoms: C_14  and  N_15 
ROOT
HETATM    1  N   UNL     1      40.386 -12.618   6.437  1.00  0.00    -0.267 N 
HETATM    2  C   UNL     1      40.741 -13.011   5.156  1.00  0.00     0.238 C 
HETATM    3  O   UNL     1      40.971 -12.222   4.243  1.00  0.00    -0.272 OA
HETATM    4  H   UNL     1      40.445 -13.292   7.199  1.00  0.00     0.190 HD
ENDROOT
BRANCH   2   5
HETATM    5  C   UNL     1      40.838 -14.510   5.000  1.00  0.00     0.134 C 
BRANCH   5   6
HETATM    6  C   UNL     1      42.234 -15.056   5.354  1.00  0.00     0.130 C 
BRANCH   6   7
HETATM    7  N   UNL     1      43.230 -13.997   5.535  1.00  0.00    -0.334 N 
HETATM    8  C   UNL     1      43.722 -13.694   6.767  1.00  0.00     0.314 C 
HETATM    9  N   UNL     1      44.541 -12.617   6.743  1.00  0.00    -0.352 N 
HETATM   10  O   UNL     1      43.431 -14.262   7.807  1.00  0.00    -0.248 OA
HETATM   11  H   UNL     1      45.078 -12.457   5.901  1.00  0.00     0.160 HD
HETATM   12  H   UNL     1      45.029 -12.443   7.612  1.00  0.00     0.160 HD
HETATM   13  H   UNL     1      43.233 -13.220   4.876  1.00  0.00     0.165 HD
ENDBRANCH   6   7
BRANCH   6  14
HETATM   14  C   UNL     1      42.695 -16.160   4.406  1.00  0.00    -0.013 A 
HETATM   15  C   UNL     1      43.325 -17.325   4.895  1.00  0.00     0.042 A 
HETATM   16 CL   UNL     1      43.603 -17.590   6.583  1.00  0.00    -0.084 Cl
HETATM   17  C   UNL     1      43.758 -18.331   4.024  1.00  0.00     0.024 A 
HETATM   18  C   UNL     1      43.571 -18.202   2.652  1.00  0.00     0.002 A 
HETATM   19  C   UNL     1      42.939 -17.070   2.149  1.00  0.00     0.001 A 
HETATM   20  C   UNL     1      42.499 -16.065   3.015  1.00  0.00     0.011 A 
ENDBRANCH   6  14
ENDBRANCH   5   6
ENDBRANCH   2   5
BRANCH   1  21
HETATM   21  N   UNL     1      40.608 -11.285   6.795  1.00  0.00    -0.266 N 
HETATM   22  C   UNL     1      39.554 -10.556   7.329  1.00  0.00     0.260 C 
HETATM   23  O   UNL     1      38.394 -10.971   7.363  1.00  0.00    -0.269 OA
HETATM   24  H   UNL     1      41.564 -11.023   7.031  1.00  0.00     0.190 HD
BRANCH  22  25
HETATM   25  C   UNL     1      39.989  -9.217   7.918  1.00  0.00     0.280 C 
BRANCH  25  26
HETATM   26  O   UNL     1      40.263  -9.407   9.303  1.00  0.00    -0.342 OA
BRANCH  26  27
HETATM   27  C   UNL     1      41.561  -9.307   9.715  1.00  0.00     0.069 A 
HETATM   28  C   UNL     1      42.660  -9.014   8.907  1.00  0.00     0.043 A 
HETATM   29  C   UNL     1      43.946  -8.917   9.465  1.00  0.00    -0.059 A 
HETATM   30  C   UNL     1      45.127  -8.552   8.616  1.00  0.00     0.048 C 
HETATM   31  C   UNL     1      44.113  -9.100  10.844  1.00  0.00     0.007 A 
HETATM   32  C   UNL     1      43.017  -9.393  11.653  1.00  0.00     0.003 A 
HETATM   33  C   UNL     1      41.746  -9.491  11.087  1.00  0.00     0.037 A 
ENDBRANCH  26  27
ENDBRANCH  25  26
ENDBRANCH  22  25
ENDBRANCH   1  21
TORSDOF 8
ENDMDL
