MODEL 1
REMARK VINA RESULT:      -8.3      0.000      0.000
REMARK  13 active torsions:
REMARK  status: ('A' for Active; 'I' for Inactive)
REMARK    1  A    between atoms: C_2  and  O_3 
REMARK    2  A    between atoms: O_3  and  C_4 
REMARK    3  A    between atoms: C_5  and  O_6 
REMARK    4  A    between atoms: C_9  and  C_10 
REMARK    5  A    between atoms: N_11  and  C_12 
REMARK    6  A    between atoms: C_12  and  C_13 
REMARK    7  A    between atoms: C_13  and  N_14 
REMARK    8  A    between atoms: C_20  and  O_21 
REMARK    9  A    between atoms: C_22  and  C_23 
REMARK   10  A    between atoms: C_23  and  C_24 
REMARK   11  A    between atoms: C_28  and  O_29 
REMARK   12  A    between atoms: O_29  and  C_30 
REMARK   13  A    between atoms: C_30  and  C_31 
ROOT
HETATM    1  C   UNL     1      40.042 -11.542   5.095  1.00  0.00     0.161 A 
HETATM    2  N   UNL     1      39.899 -10.368   5.964  1.00  0.00    -0.332 N 
HETATM    3  C   UNL     1      40.233  -9.218   5.289  1.00  0.00     0.278 A 
HETATM    4  O   UNL     1      40.088  -8.071   5.674  1.00  0.00    -0.265 OA
HETATM    5  C   UNL     1      40.741  -9.602   3.959  1.00  0.00     0.146 A 
HETATM    6  C   UNL     1      40.603 -10.929   3.847  1.00  0.00     0.059 A 
ENDROOT
BRANCH   6   7
HETATM    7  C   UNL     1      40.715 -11.609   2.532  1.00  0.00     0.194 C 
HETATM    8  O   UNL     1      40.478 -11.022   1.482  1.00  0.00    -0.287 OA
BRANCH   7   9
HETATM    9  C   UNL     1      40.992 -13.059   2.496  1.00  0.00     0.021 A 
HETATM   10  C   UNL     1      42.303 -13.546   2.636  1.00  0.00    -0.045 A 
HETATM   11  C   UNL     1      43.472 -12.644   2.922  1.00  0.00     0.049 C 
HETATM   12  C   UNL     1      42.511 -14.932   2.559  1.00  0.00     0.044 A 
HETATM   13  C   UNL     1      41.450 -15.814   2.335  1.00  0.00     0.069 A 
HETATM   14  C   UNL     1      40.149 -15.323   2.264  1.00  0.00     0.038 A 
HETATM   15  C   UNL     1      39.919 -13.948   2.365  1.00  0.00     0.019 A 
BRANCH  13  16
HETATM   16  O   UNL     1      41.805 -17.129   2.249  1.00  0.00    -0.347 OA
BRANCH  16  17
HETATM   17  C   UNL     1      43.204 -17.400   2.158  1.00  0.00     0.214 C 
BRANCH  17  18
HETATM   18  C   UNL     1      43.507 -18.553   3.080  1.00  0.00    -0.034 A 
HETATM   19  C   UNL     1      43.783 -18.329   4.436  1.00  0.00     0.009 A 
HETATM   20  C   UNL     1      44.090 -19.396   5.282  1.00  0.00     0.001 A 
HETATM   21  C   UNL     1      44.133 -20.695   4.781  1.00  0.00     0.000 A 
HETATM   22  C   UNL     1      43.873 -20.929   3.432  1.00  0.00     0.001 A 
HETATM   23  C   UNL     1      43.564 -19.864   2.583  1.00  0.00     0.009 A 
ENDBRANCH  17  18
ENDBRANCH  16  17
ENDBRANCH  13  16
ENDBRANCH   7   9
ENDBRANCH   6   7
BRANCH   1  24
HETATM   24  C   UNL     1      40.856 -12.612   5.793  1.00  0.00    -0.028 A 
HETATM   25  C   UNL     1      40.356 -13.912   5.995  1.00  0.00     0.012 A 
HETATM   26  C   UNL     1      41.157 -14.894   6.577  1.00  0.00     0.040 A 
HETATM   27  C   UNL     1      42.468 -14.591   6.919  1.00  0.00     0.099 A 
HETATM   28  C   UNL     1      43.007 -13.323   6.694  1.00  0.00     0.102 A 
HETATM   29  C   UNL     1      42.189 -12.328   6.159  1.00  0.00     0.049 A 
BRANCH  27  30
HETATM   30  O   UNL     1      43.235 -15.581   7.464  1.00  0.00    -0.358 OA
HETATM   31  H   UNL     1      43.918 -15.128   7.996  1.00  0.00     0.218 HD
ENDBRANCH  27  30
BRANCH  28  32
HETATM   32  O   UNL     1      44.329 -13.178   7.025  1.00  0.00    -0.349 OA
BRANCH  32  33
HETATM   33  C   UNL     1      44.964 -11.975   6.584  1.00  0.00     0.171 C 
HETATM   34  C   UNL     1      45.215 -11.098   7.797  1.00  0.00     0.034 C 
ENDBRANCH  32  33
ENDBRANCH  28  32
ENDBRANCH   1  24
BRANCH   5  35
HETATM   35  O   UNL     1      41.150  -8.695   3.029  1.00  0.00    -0.355 OA
HETATM   36  H   UNL     1      40.988  -7.802   3.385  1.00  0.00     0.218 HD
ENDBRANCH   5  35
BRANCH   2  37
HETATM   37  C   UNL     1      39.370 -10.477   7.330  1.00  0.00     0.155 C 
BRANCH  37  38
HETATM   38  C   UNL     1      39.738  -9.361   8.335  1.00  0.00     0.254 C 
BRANCH  38  39
HETATM   39  N   UNL     1      40.961  -9.680   9.167  1.00  0.00    -0.077 N 
HETATM   40  H   UNL     1      41.040 -10.718   9.142  1.00  0.00     0.279 HD
HETATM   41  C   UNL     1      42.235  -9.082   8.659  1.00  0.00     0.269 C 
HETATM   42  C   UNL     1      40.741  -9.365  10.620  1.00  0.00     0.269 C 
ENDBRANCH  38  39
ENDBRANCH  37  38
ENDBRANCH   2  37
TORSDOF 13
ENDMDL
MODEL 2
REMARK VINA RESULT:      -8.2      1.408      2.141
REMARK  13 active torsions:
REMARK  status: ('A' for Active; 'I' for Inactive)
REMARK    1  A    between atoms: C_2  and  O_3 
REMARK    2  A    between atoms: O_3  and  C_4 
REMARK    3  A    between atoms: C_5  and  O_6 
REMARK    4  A    between atoms: C_9  and  C_10 
REMARK    5  A    between atoms: N_11  and  C_12 
REMARK    6  A    between atoms: C_12  and  C_13 
REMARK    7  A    between atoms: C_13  and  N_14 
REMARK    8  A    between atoms: C_20  and  O_21 
REMARK    9  A    between atoms: C_22  and  C_23 
REMARK   10  A    between atoms: C_23  and  C_24 
REMARK   11  A    between atoms: C_28  and  O_29 
REMARK   12  A    between atoms: O_29  and  C_30 
REMARK   13  A    between atoms: C_30  and  C_31 
ROOT
HETATM    1  C   UNL     1      39.489 -11.605   5.130  1.00  0.00     0.161 A 
HETATM    2  N   UNL     1      38.985 -10.508   5.964  1.00  0.00    -0.332 N 
HETATM    3  C   UNL     1      38.285  -9.600   5.206  1.00  0.00     0.278 A 
HETATM    4  O   UNL     1      37.624  -8.659   5.609  1.00  0.00    -0.265 OA
HETATM    5  C   UNL     1      38.406  -9.999   3.791  1.00  0.00     0.146 A 
HETATM    6  C   UNL     1      39.072 -11.160   3.760  1.00  0.00     0.059 A 
ENDROOT
BRANCH   6   7
HETATM    7  C   UNL     1      39.096 -12.004   2.539  1.00  0.00     0.194 C 
HETATM    8  O   UNL     1      38.259 -11.877   1.652  1.00  0.00    -0.287 OA
BRANCH   7   9
HETATM    9  C   UNL     1      40.072 -13.108   2.450  1.00  0.00     0.021 A 
HETATM   10  C   UNL     1      41.355 -12.896   1.915  1.00  0.00    -0.045 A 
HETATM   11  C   UNL     1      41.838 -11.534   1.498  1.00  0.00     0.049 C 
HETATM   12  C   UNL     1      42.229 -13.990   1.825  1.00  0.00     0.044 A 
HETATM   13  C   UNL     1      41.839 -15.267   2.238  1.00  0.00     0.069 A 
HETATM   14  C   UNL     1      40.590 -15.449   2.826  1.00  0.00     0.038 A 
HETATM   15  C   UNL     1      39.716 -14.366   2.950  1.00  0.00     0.019 A 
BRANCH  13  16
HETATM   16  O   UNL     1      42.778 -16.240   2.058  1.00  0.00    -0.347 OA
BRANCH  16  17
HETATM   17  C   UNL     1      43.553 -16.590   3.206  1.00  0.00     0.214 C 
BRANCH  17  18
HETATM   18  C   UNL     1      43.609 -18.094   3.279  1.00  0.00    -0.034 A 
HETATM   19  C   UNL     1      44.097 -18.735   4.427  1.00  0.00     0.009 A 
HETATM   20  C   UNL     1      44.173 -20.128   4.481  1.00  0.00     0.001 A 
HETATM   21  C   UNL     1      43.772 -20.893   3.389  1.00  0.00     0.000 A 
HETATM   22  C   UNL     1      43.297 -20.267   2.237  1.00  0.00     0.001 A 
HETATM   23  C   UNL     1      43.218 -18.874   2.180  1.00  0.00     0.009 A 
ENDBRANCH  17  18
ENDBRANCH  16  17
ENDBRANCH  13  16
ENDBRANCH   7   9
ENDBRANCH   6   7
BRANCH   1  24
HETATM   24  C   UNL     1      40.965 -11.823   5.391  1.00  0.00    -0.028 A 
HETATM   25  C   UNL     1      41.933 -10.867   5.029  1.00  0.00     0.012 A 
HETATM   26  C   UNL     1      43.275 -11.065   5.347  1.00  0.00     0.040 A 
HETATM   27  C   UNL     1      43.648 -12.197   6.060  1.00  0.00     0.099 A 
HETATM   28  C   UNL     1      42.707 -13.144   6.470  1.00  0.00     0.102 A 
HETATM   29  C   UNL     1      41.372 -12.969   6.107  1.00  0.00     0.049 A 
BRANCH  27  30
HETATM   30  O   UNL     1      44.967 -12.351   6.378  1.00  0.00    -0.358 OA
HETATM   31  H   UNL     1      45.330 -11.446   6.453  1.00  0.00     0.218 HD
ENDBRANCH  27  30
BRANCH  28  32
HETATM   32  O   UNL     1      43.202 -14.181   7.216  1.00  0.00    -0.349 OA
BRANCH  32  33
HETATM   33  C   UNL     1      43.446 -15.404   6.517  1.00  0.00     0.171 C 
HETATM   34  C   UNL     1      42.305 -16.359   6.817  1.00  0.00     0.034 C 
ENDBRANCH  32  33
ENDBRANCH  28  32
ENDBRANCH   1  24
BRANCH   5  35
HETATM   35  O   UNL     1      37.816  -9.315   2.772  1.00  0.00    -0.355 OA
HETATM   36  H   UNL     1      37.025  -9.811   2.492  1.00  0.00     0.218 HD
ENDBRANCH   5  35
BRANCH   2  37
HETATM   37  C   UNL     1      39.162 -10.501   7.423  1.00  0.00     0.155 C 
BRANCH  37  38
HETATM   38  C   UNL     1      40.153  -9.478   8.023  1.00  0.00     0.254 C 
BRANCH  38  39
HETATM   39  N   UNL     1      40.524  -9.773   9.461  1.00  0.00    -0.077 N 
HETATM   40  H   UNL     1      40.853 -10.760   9.456  1.00  0.00     0.279 HD
HETATM   41  C   UNL     1      41.605  -8.902  10.018  1.00  0.00     0.269 C 
HETATM   42  C   UNL     1      39.315  -9.794  10.353  1.00  0.00     0.269 C 
ENDBRANCH  38  39
ENDBRANCH  37  38
ENDBRANCH   2  37
TORSDOF 13
ENDMDL
MODEL 3
REMARK VINA RESULT:      -8.0      0.961      1.530
REMARK  13 active torsions:
REMARK  status: ('A' for Active; 'I' for Inactive)
REMARK    1  A    between atoms: C_2  and  O_3 
REMARK    2  A    between atoms: O_3  and  C_4 
REMARK    3  A    between atoms: C_5  and  O_6 
REMARK    4  A    between atoms: C_9  and  C_10 
REMARK    5  A    between atoms: N_11  and  C_12 
REMARK    6  A    between atoms: C_12  and  C_13 
REMARK    7  A    between atoms: C_13  and  N_14 
REMARK    8  A    between atoms: C_20  and  O_21 
REMARK    9  A    between atoms: C_22  and  C_23 
REMARK   10  A    between atoms: C_23  and  C_24 
REMARK   11  A    between atoms: C_28  and  O_29 
REMARK   12  A    between atoms: O_29  and  C_30 
REMARK   13  A    between atoms: C_30  and  C_31 
ROOT
HETATM    1  C   UNL     1      40.435 -10.681   5.327  1.00  0.00     0.161 A 
HETATM    2  N   UNL     1      40.304  -9.642   6.356  1.00  0.00    -0.332 N 
HETATM    3  C   UNL     1      40.641  -8.409   5.851  1.00  0.00     0.278 A 
HETATM    4  O   UNL     1      40.505  -7.328   6.397  1.00  0.00    -0.265 OA
HETATM    5  C   UNL     1      41.140  -8.601   4.476  1.00  0.00     0.146 A 
HETATM    6  C   UNL     1      40.993  -9.898   4.177  1.00  0.00     0.059 A 
ENDROOT
BRANCH   6   7
HETATM    7  C   UNL     1      41.094 -10.384   2.777  1.00  0.00     0.194 C 
HETATM    8  O   UNL     1      40.925  -9.634   1.822  1.00  0.00    -0.287 OA
BRANCH   7   9
HETATM    9  C   UNL     1      41.273 -11.828   2.531  1.00  0.00     0.021 A 
HETATM   10  C   UNL     1      40.167 -12.662   2.295  1.00  0.00    -0.045 A 
HETATM   11  C   UNL     1      38.765 -12.129   2.183  1.00  0.00     0.049 C 
HETATM   12  C   UNL     1      40.395 -14.033   2.100  1.00  0.00     0.044 A 
HETATM   13  C   UNL     1      41.684 -14.570   2.154  1.00  0.00     0.069 A 
HETATM   14  C   UNL     1      42.776 -13.722   2.323  1.00  0.00     0.038 A 
HETATM   15  C   UNL     1      42.572 -12.350   2.491  1.00  0.00     0.019 A 
BRANCH  13  16
HETATM   16  O   UNL     1      41.751 -15.922   1.983  1.00  0.00    -0.347 OA
BRANCH  16  17
HETATM   17  C   UNL     1      43.039 -16.456   1.678  1.00  0.00     0.214 C 
BRANCH  17  18
HETATM   18  C   UNL     1      43.390 -17.449   2.757  1.00  0.00    -0.034 A 
HETATM   19  C   UNL     1      43.632 -17.019   4.069  1.00  0.00     0.009 A 
HETATM   20  C   UNL     1      43.982 -17.938   5.061  1.00  0.00     0.001 A 
HETATM   21  C   UNL     1      44.103 -19.290   4.750  1.00  0.00     0.000 A 
HETATM   22  C   UNL     1      43.878 -19.727   3.445  1.00  0.00     0.001 A 
HETATM   23  C   UNL     1      43.526 -18.811   2.452  1.00  0.00     0.009 A 
ENDBRANCH  17  18
ENDBRANCH  16  17
ENDBRANCH  13  16
ENDBRANCH   7   9
ENDBRANCH   6   7
BRANCH   1  24
HETATM   24  C   UNL     1      41.247 -11.844   5.860  1.00  0.00    -0.028 A 
HETATM   25  C   UNL     1      40.724 -13.149   5.918  1.00  0.00     0.012 A 
HETATM   26  C   UNL     1      41.520 -14.210   6.347  1.00  0.00     0.040 A 
HETATM   27  C   UNL     1      42.849 -13.976   6.679  1.00  0.00     0.099 A 
HETATM   28  C   UNL     1      43.409 -12.700   6.592  1.00  0.00     0.102 A 
HETATM   29  C   UNL     1      42.597 -11.632   6.212  1.00  0.00     0.049 A 
BRANCH  27  30
HETATM   30  O   UNL     1      43.610 -15.040   7.071  1.00  0.00    -0.358 OA
HETATM   31  H   UNL     1      43.055 -15.832   6.927  1.00  0.00     0.218 HD
ENDBRANCH  27  30
BRANCH  28  32
HETATM   32  O   UNL     1      44.743 -12.621   6.893  1.00  0.00    -0.349 OA
BRANCH  32  33
HETATM   33  C   UNL     1      45.433 -11.464   6.414  1.00  0.00     0.171 C 
HETATM   34  C   UNL     1      46.019 -10.732   7.607  1.00  0.00     0.034 C 
ENDBRANCH  32  33
ENDBRANCH  28  32
ENDBRANCH   1  24
BRANCH   5  35
HETATM   35  O   UNL     1      41.549  -7.573   3.683  1.00  0.00    -0.355 OA
HETATM   36  H   UNL     1      41.247  -7.753   2.774  1.00  0.00     0.218 HD
ENDBRANCH   5  35
BRANCH   2  37
HETATM   37  C   UNL     1      39.782  -9.943   7.696  1.00  0.00     0.155 C 
BRANCH  37  38
HETATM   38  C   UNL     1      40.337  -9.124   8.884  1.00  0.00     0.254 C 
BRANCH  38  39
HETATM   39  N   UNL     1      41.660  -9.642   9.406  1.00  0.00    -0.077 N 
HETATM   40  H   UNL     1      41.665 -10.655   9.166  1.00  0.00     0.279 HD
HETATM   41  C   UNL     1      42.866  -8.992   8.804  1.00  0.00     0.269 C 
HETATM   42  C   UNL     1      41.711  -9.622  10.908  1.00  0.00     0.269 C 
ENDBRANCH  38  39
ENDBRANCH  37  38
ENDBRANCH   2  37
TORSDOF 13
ENDMDL
MODEL 4
REMARK VINA RESULT:      -7.8      2.564      5.403
REMARK  13 active torsions:
REMARK  status: ('A' for Active; 'I' for Inactive)
REMARK    1  A    between atoms: C_2  and  O_3 
REMARK    2  A    between atoms: O_3  and  C_4 
REMARK    3  A    between atoms: C_5  and  O_6 
REMARK    4  A    between atoms: C_9  and  C_10 
REMARK    5  A    between atoms: N_11  and  C_12 
REMARK    6  A    between atoms: C_12  and  C_13 
REMARK    7  A    between atoms: C_13  and  N_14 
REMARK    8  A    between atoms: C_20  and  O_21 
REMARK    9  A    between atoms: C_22  and  C_23 
REMARK   10  A    between atoms: C_23  and  C_24 
REMARK   11  A    between atoms: C_28  and  O_29 
REMARK   12  A    between atoms: O_29  and  C_30 
REMARK   13  A    between atoms: C_30  and  C_31 
ROOT
HETATM    1  C   UNL     1      41.176  -9.192   9.601  1.00  0.00     0.161 A 
HETATM    2  N   UNL     1      41.139  -8.717  10.989  1.00  0.00    -0.332 N 
HETATM    3  C   UNL     1      40.128  -7.803  11.165  1.00  0.00     0.278 A 
HETATM    4  O   UNL     1      39.740  -7.328  12.218  1.00  0.00    -0.265 OA
HETATM    5  C   UNL     1      39.522  -7.534   9.847  1.00  0.00     0.146 A 
HETATM    6  C   UNL     1      40.109  -8.352   8.964  1.00  0.00     0.059 A 
ENDROOT
BRANCH   6   7
HETATM    7  C   UNL     1      39.530  -8.576   7.616  1.00  0.00     0.194 C 
HETATM    8  O   UNL     1      38.576  -7.923   7.208  1.00  0.00    -0.287 OA
BRANCH   7   9
HETATM    9  C   UNL     1      40.031  -9.700   6.799  1.00  0.00     0.021 A 
HETATM   10  C   UNL     1      41.028  -9.497   5.829  1.00  0.00    -0.045 A 
HETATM   11  C   UNL     1      41.704  -8.168   5.634  1.00  0.00     0.049 C 
HETATM   12  C   UNL     1      41.441 -10.595   5.059  1.00  0.00     0.044 A 
HETATM   13  C   UNL     1      40.871 -11.859   5.232  1.00  0.00     0.069 A 
HETATM   14  C   UNL     1      39.932 -12.059   6.241  1.00  0.00     0.038 A 
HETATM   15  C   UNL     1      39.528 -10.984   7.036  1.00  0.00     0.019 A 
BRANCH  13  16
HETATM   16  O   UNL     1      41.345 -12.823   4.390  1.00  0.00    -0.347 OA
BRANCH  16  17
HETATM   17  C   UNL     1      41.969 -13.949   5.008  1.00  0.00     0.214 C 
BRANCH  17  18
HETATM   18  C   UNL     1      42.395 -14.894   3.913  1.00  0.00    -0.034 A 
HETATM   19  C   UNL     1      42.244 -16.279   4.067  1.00  0.00     0.009 A 
HETATM   20  C   UNL     1      42.665 -17.153   3.062  1.00  0.00     0.001 A 
HETATM   21  C   UNL     1      43.247 -16.652   1.900  1.00  0.00     0.000 A 
HETATM   22  C   UNL     1      43.415 -15.278   1.741  1.00  0.00     0.001 A 
HETATM   23  C   UNL     1      42.994 -14.401   2.743  1.00  0.00     0.009 A 
ENDBRANCH  17  18
ENDBRANCH  16  17
ENDBRANCH  13  16
ENDBRANCH   7   9
ENDBRANCH   6   7
BRANCH   1  24
HETATM   24  C   UNL     1      42.584  -9.092   9.053  1.00  0.00    -0.028 A 
HETATM   25  C   UNL     1      43.290  -7.874   9.037  1.00  0.00     0.012 A 
HETATM   26  C   UNL     1      44.610  -7.829   8.591  1.00  0.00     0.040 A 
HETATM   27  C   UNL     1      45.240  -9.004   8.200  1.00  0.00     0.099 A 
HETATM   28  C   UNL     1      44.581 -10.235   8.243  1.00  0.00     0.102 A 
HETATM   29  C   UNL     1      43.244 -10.270   8.641  1.00  0.00     0.049 A 
BRANCH  27  30
HETATM   30  O   UNL     1      46.541  -8.931   7.793  1.00  0.00    -0.358 OA
HETATM   31  H   UNL     1      46.798  -9.844   7.554  1.00  0.00     0.218 HD
ENDBRANCH  27  30
BRANCH  28  32
HETATM   32  O   UNL     1      45.336 -11.320   7.886  1.00  0.00    -0.349 OA
BRANCH  32  33
HETATM   33  C   UNL     1      44.785 -12.172   6.879  1.00  0.00     0.171 C 
HETATM   34  C   UNL     1      44.900 -11.463   5.541  1.00  0.00     0.034 C 
ENDBRANCH  32  33
ENDBRANCH  28  32
ENDBRANCH   1  24
BRANCH   5  35
HETATM   35  O   UNL     1      38.479  -6.677   9.669  1.00  0.00    -0.355 OA
HETATM   36  H   UNL     1      37.945  -6.675  10.485  1.00  0.00     0.218 HD
ENDBRANCH   5  35
BRANCH   2  37
HETATM   37  C   UNL     1      42.032  -9.266  12.018  1.00  0.00     0.155 C 
BRANCH  37  38
HETATM   38  C   UNL     1      43.160  -8.354  12.552  1.00  0.00     0.254 C 
BRANCH  38  39
HETATM   39  N   UNL     1      42.888  -7.808  13.937  1.00  0.00    -0.077 N 
HETATM   40  H   UNL     1      43.774  -7.957  14.463  1.00  0.00     0.279 HD
HETATM   41  C   UNL     1      42.535  -6.355  13.978  1.00  0.00     0.269 C 
HETATM   42  C   UNL     1      41.880  -8.645  14.675  1.00  0.00     0.269 C 
ENDBRANCH  38  39
ENDBRANCH  37  38
ENDBRANCH   2  37
TORSDOF 13
ENDMDL
MODEL 5
REMARK VINA RESULT:      -7.7      2.885      6.607
REMARK  13 active torsions:
REMARK  status: ('A' for Active; 'I' for Inactive)
REMARK    1  A    between atoms: C_2  and  O_3 
REMARK    2  A    between atoms: O_3  and  C_4 
REMARK    3  A    between atoms: C_5  and  O_6 
REMARK    4  A    between atoms: C_9  and  C_10 
REMARK    5  A    between atoms: N_11  and  C_12 
REMARK    6  A    between atoms: C_12  and  C_13 
REMARK    7  A    between atoms: C_13  and  N_14 
REMARK    8  A    between atoms: C_20  and  O_21 
REMARK    9  A    between atoms: C_22  and  C_23 
REMARK   10  A    between atoms: C_23  and  C_24 
REMARK   11  A    between atoms: C_28  and  O_29 
REMARK   12  A    between atoms: O_29  and  C_30 
REMARK   13  A    between atoms: C_30  and  C_31 
ROOT
HETATM    1  C   UNL     1      42.860 -14.335   5.312  1.00  0.00     0.161 A 
HETATM    2  N   UNL     1      43.174 -14.174   6.737  1.00  0.00    -0.332 N 
HETATM    3  C   UNL     1      43.187 -15.391   7.375  1.00  0.00     0.278 A 
HETATM    4  O   UNL     1      43.549 -15.621   8.516  1.00  0.00    -0.265 OA
HETATM    5  C   UNL     1      42.750 -16.417   6.408  1.00  0.00     0.146 A 
HETATM    6  C   UNL     1      42.591 -15.808   5.226  1.00  0.00     0.059 A 
ENDROOT
BRANCH   6   7
HETATM    7  C   UNL     1      42.469 -16.586   3.968  1.00  0.00     0.194 C 
HETATM    8  O   UNL     1      43.091 -17.627   3.791  1.00  0.00    -0.287 OA
BRANCH   7   9
HETATM    9  C   UNL     1      41.679 -16.025   2.853  1.00  0.00     0.021 A 
HETATM   10  C   UNL     1      42.313 -15.426   1.750  1.00  0.00    -0.045 A 
HETATM   11  C   UNL     1      43.808 -15.405   1.594  1.00  0.00     0.049 C 
HETATM   12  C   UNL     1      41.511 -14.880   0.737  1.00  0.00     0.044 A 
HETATM   13  C   UNL     1      40.116 -14.911   0.818  1.00  0.00     0.069 A 
HETATM   14  C   UNL     1      39.503 -15.566   1.883  1.00  0.00     0.038 A 
HETATM   15  C   UNL     1      40.285 -16.140   2.888  1.00  0.00     0.019 A 
BRANCH  13  16
HETATM   16  O   UNL     1      39.467 -14.311  -0.222  1.00  0.00    -0.347 OA
BRANCH  16  17
HETATM   17  C   UNL     1      40.160 -14.288  -1.470  1.00  0.00     0.214 C 
BRANCH  17  18
HETATM   18  C   UNL     1      39.937 -12.933  -2.092  1.00  0.00    -0.034 A 
HETATM   19  C   UNL     1      38.639 -12.424  -2.245  1.00  0.00     0.009 A 
HETATM   20  C   UNL     1      38.434 -11.180  -2.846  1.00  0.00     0.001 A 
HETATM   21  C   UNL     1      39.519 -10.439  -3.307  1.00  0.00     0.000 A 
HETATM   22  C   UNL     1      40.813 -10.941  -3.171  1.00  0.00     0.001 A 
HETATM   23  C   UNL     1      41.022 -12.183  -2.570  1.00  0.00     0.009 A 
ENDBRANCH  17  18
ENDBRANCH  16  17
ENDBRANCH  13  16
ENDBRANCH   7   9
ENDBRANCH   6   7
BRANCH   1  24
HETATM   24  C   UNL     1      41.752 -13.383   4.911  1.00  0.00    -0.028 A 
HETATM   25  C   UNL     1      40.518 -13.354   5.588  1.00  0.00     0.012 A 
HETATM   26  C   UNL     1      39.545 -12.418   5.240  1.00  0.00     0.040 A 
HETATM   27  C   UNL     1      39.817 -11.486   4.247  1.00  0.00     0.099 A 
HETATM   28  C   UNL     1      41.047 -11.463   3.586  1.00  0.00     0.102 A 
HETATM   29  C   UNL     1      41.999 -12.431   3.899  1.00  0.00     0.049 A 
BRANCH  27  30
HETATM   30  O   UNL     1      38.853 -10.566   3.947  1.00  0.00    -0.358 OA
HETATM   31  H   UNL     1      38.334 -10.447   4.767  1.00  0.00     0.218 HD
ENDBRANCH  27  30
BRANCH  28  32
HETATM   32  O   UNL     1      41.203 -10.456   2.670  1.00  0.00    -0.349 OA
BRANCH  32  33
HETATM   33  C   UNL     1      41.321 -10.856   1.302  1.00  0.00     0.171 C 
HETATM   34  C   UNL     1      40.203 -10.196   0.516  1.00  0.00     0.034 C 
ENDBRANCH  32  33
ENDBRANCH  28  32
ENDBRANCH   1  24
BRANCH   5  35
HETATM   35  O   UNL     1      42.663 -17.740   6.716  1.00  0.00    -0.355 OA
HETATM   36  H   UNL     1      43.429 -18.195   6.321  1.00  0.00     0.218 HD
ENDBRANCH   5  35
BRANCH   2  37
HETATM   37  C   UNL     1      43.513 -12.865   7.311  1.00  0.00     0.155 C 
BRANCH  37  38
HETATM   38  C   UNL     1      44.745 -12.127   6.739  1.00  0.00     0.254 C 
BRANCH  38  39
HETATM   39  N   UNL     1      44.828 -10.676   7.163  1.00  0.00    -0.077 N 
HETATM   40  H   UNL     1      44.814 -10.135   6.274  1.00  0.00     0.279 HD
HETATM   41  C   UNL     1      43.702 -10.214   8.033  1.00  0.00     0.269 C 
HETATM   42  C   UNL     1      46.165 -10.350   7.768  1.00  0.00     0.269 C 
ENDBRANCH  38  39
ENDBRANCH  37  38
ENDBRANCH   2  37
TORSDOF 13
ENDMDL
MODEL 6
REMARK VINA RESULT:      -7.7      1.326      2.504
REMARK  13 active torsions:
REMARK  status: ('A' for Active; 'I' for Inactive)
REMARK    1  A    between atoms: C_2  and  O_3 
REMARK    2  A    between atoms: O_3  and  C_4 
REMARK    3  A    between atoms: C_5  and  O_6 
REMARK    4  A    between atoms: C_9  and  C_10 
REMARK    5  A    between atoms: N_11  and  C_12 
REMARK    6  A    between atoms: C_12  and  C_13 
REMARK    7  A    between atoms: C_13  and  N_14 
REMARK    8  A    between atoms: C_20  and  O_21 
REMARK    9  A    between atoms: C_22  and  C_23 
REMARK   10  A    between atoms: C_23  and  C_24 
REMARK   11  A    between atoms: C_28  and  O_29 
REMARK   12  A    between atoms: O_29  and  C_30 
REMARK   13  A    between atoms: C_30  and  C_31 
ROOT
HETATM    1  C   UNL     1      40.322 -10.600   5.669  1.00  0.00     0.161 A 
HETATM    2  N   UNL     1      39.462  -9.822   6.568  1.00  0.00    -0.332 N 
HETATM    3  C   UNL     1      38.848  -8.797   5.889  1.00  0.00     0.278 A 
HETATM    4  O   UNL     1      37.970  -8.060   6.305  1.00  0.00    -0.265 OA
HETATM    5  C   UNL     1      39.383  -8.775   4.514  1.00  0.00     0.146 A 
HETATM    6  C   UNL     1      40.204  -9.825   4.390  1.00  0.00     0.059 A 
ENDROOT
BRANCH   6   7
HETATM    7  C   UNL     1      40.665 -10.292   3.058  1.00  0.00     0.194 C 
HETATM    8  O   UNL     1      40.371  -9.694   2.030  1.00  0.00    -0.287 OA
BRANCH   7   9
HETATM    9  C   UNL     1      41.386 -11.577   2.959  1.00  0.00     0.021 A 
HETATM   10  C   UNL     1      40.684 -12.790   2.846  1.00  0.00    -0.045 A 
HETATM   11  C   UNL     1      39.187 -12.846   2.725  1.00  0.00     0.049 C 
HETATM   12  C   UNL     1      41.421 -13.982   2.789  1.00  0.00     0.044 A 
HETATM   13  C   UNL     1      42.817 -13.978   2.858  1.00  0.00     0.069 A 
HETATM   14  C   UNL     1      43.501 -12.766   2.903  1.00  0.00     0.038 A 
HETATM   15  C   UNL     1      42.785 -11.566   2.932  1.00  0.00     0.019 A 
BRANCH  13  16
HETATM   16  O   UNL     1      43.398 -15.213   2.827  1.00  0.00    -0.347 OA
BRANCH  16  17
HETATM   17  C   UNL     1      42.576 -16.285   2.364  1.00  0.00     0.214 C 
BRANCH  17  18
HETATM   18  C   UNL     1      43.098 -17.559   2.978  1.00  0.00    -0.034 A 
HETATM   19  C   UNL     1      43.609 -17.564   4.283  1.00  0.00     0.009 A 
HETATM   20  C   UNL     1      44.117 -18.740   4.840  1.00  0.00     0.001 A 
HETATM   21  C   UNL     1      44.126 -19.917   4.096  1.00  0.00     0.000 A 
HETATM   22  C   UNL     1      43.632 -19.922   2.793  1.00  0.00     0.001 A 
HETATM   23  C   UNL     1      43.123 -18.748   2.234  1.00  0.00     0.009 A 
ENDBRANCH  17  18
ENDBRANCH  16  17
ENDBRANCH  13  16
ENDBRANCH   7   9
ENDBRANCH   6   7
BRANCH   1  24
HETATM   24  C   UNL     1      41.699 -10.766   6.278  1.00  0.00    -0.028 A 
HETATM   25  C   UNL     1      42.418  -9.673   6.796  1.00  0.00     0.012 A 
HETATM   26  C   UNL     1      43.652  -9.869   7.415  1.00  0.00     0.040 A 
HETATM   27  C   UNL     1      44.150 -11.158   7.552  1.00  0.00     0.099 A 
HETATM   28  C   UNL     1      43.442 -12.268   7.085  1.00  0.00     0.102 A 
HETATM   29  C   UNL     1      42.232 -12.065   6.422  1.00  0.00     0.049 A 
BRANCH  27  30
HETATM   30  O   UNL     1      45.350 -11.319   8.185  1.00  0.00    -0.358 OA
HETATM   31  H   UNL     1      45.470 -12.284   8.286  1.00  0.00     0.218 HD
ENDBRANCH  27  30
BRANCH  28  32
HETATM   32  O   UNL     1      44.020 -13.483   7.338  1.00  0.00    -0.349 OA
BRANCH  32  33
HETATM   33  C   UNL     1      43.490 -14.599   6.618  1.00  0.00     0.171 C 
HETATM   34  C   UNL     1      42.898 -15.573   7.619  1.00  0.00     0.034 C 
ENDBRANCH  32  33
ENDBRANCH  28  32
ENDBRANCH   1  24
BRANCH   5  35
HETATM   35  O   UNL     1      38.974  -7.883   3.570  1.00  0.00    -0.355 OA
HETATM   36  H   UNL     1      38.056  -7.626   3.774  1.00  0.00     0.218 HD
ENDBRANCH   5  35
BRANCH   2  37
HETATM   37  C   UNL     1      39.259 -10.208   7.971  1.00  0.00     0.155 C 
BRANCH  37  38
HETATM   38  C   UNL     1      39.596  -9.164   9.060  1.00  0.00     0.254 C 
BRANCH  38  39
HETATM   39  N   UNL     1      40.504  -9.700  10.146  1.00  0.00    -0.077 N 
HETATM   40  H   UNL     1      40.824 -10.626   9.795  1.00  0.00     0.279 HD
HETATM   41  C   UNL     1      41.700  -8.849  10.436  1.00  0.00     0.269 C 
HETATM   42  C   UNL     1      39.740 -10.026  11.398  1.00  0.00     0.269 C 
ENDBRANCH  38  39
ENDBRANCH  37  38
ENDBRANCH   2  37
TORSDOF 13
ENDMDL
MODEL 7
REMARK VINA RESULT:      -7.6      2.998      5.984
REMARK  13 active torsions:
REMARK  status: ('A' for Active; 'I' for Inactive)
REMARK    1  A    between atoms: C_2  and  O_3 
REMARK    2  A    between atoms: O_3  and  C_4 
REMARK    3  A    between atoms: C_5  and  O_6 
REMARK    4  A    between atoms: C_9  and  C_10 
REMARK    5  A    between atoms: N_11  and  C_12 
REMARK    6  A    between atoms: C_12  and  C_13 
REMARK    7  A    between atoms: C_13  and  N_14 
REMARK    8  A    between atoms: C_20  and  O_21 
REMARK    9  A    between atoms: C_22  and  C_23 
REMARK   10  A    between atoms: C_23  and  C_24 
REMARK   11  A    between atoms: C_28  and  O_29 
REMARK   12  A    between atoms: O_29  and  C_30 
REMARK   13  A    between atoms: C_30  and  C_31 
ROOT
HETATM    1  C   UNL     1      42.446  -8.445   9.641  1.00  0.00     0.161 A 
HETATM    2  N   UNL     1      42.870  -7.895  10.934  1.00  0.00    -0.332 N 
HETATM    3  C   UNL     1      42.404  -6.612  11.096  1.00  0.00     0.278 A 
HETATM    4  O   UNL     1      42.457  -5.932  12.106  1.00  0.00    -0.265 OA
HETATM    5  C   UNL     1      41.745  -6.206   9.840  1.00  0.00     0.146 A 
HETATM    6  C   UNL     1      41.751  -7.268   9.025  1.00  0.00     0.059 A 
ENDROOT
BRANCH   6   7
HETATM    7  C   UNL     1      40.897  -7.314   7.811  1.00  0.00     0.194 C 
HETATM    8  O   UNL     1      40.482  -6.292   7.277  1.00  0.00    -0.287 OA
BRANCH   7   9
HETATM    9  C   UNL     1      40.429  -8.623   7.313  1.00  0.00     0.021 A 
HETATM   10  C   UNL     1      39.489  -9.376   8.037  1.00  0.00    -0.045 A 
HETATM   11  C   UNL     1      38.838  -8.861   9.292  1.00  0.00     0.049 C 
HETATM   12  C   UNL     1      39.107 -10.628   7.533  1.00  0.00     0.044 A 
HETATM   13  C   UNL     1      39.654 -11.132   6.349  1.00  0.00     0.069 A 
HETATM   14  C   UNL     1      40.534 -10.347   5.608  1.00  0.00     0.038 A 
HETATM   15  C   UNL     1      40.906  -9.085   6.081  1.00  0.00     0.019 A 
BRANCH  13  16
HETATM   16  O   UNL     1      39.216 -12.376   5.998  1.00  0.00    -0.347 OA
BRANCH  16  17
HETATM   17  C   UNL     1      39.722 -12.899   4.770  1.00  0.00     0.214 C 
BRANCH  17  18
HETATM   18  C   UNL     1      40.523 -14.134   5.094  1.00  0.00    -0.034 A 
HETATM   19  C   UNL     1      40.424 -14.737   6.356  1.00  0.00     0.009 A 
HETATM   20  C   UNL     1      41.187 -15.866   6.663  1.00  0.00     0.001 A 
HETATM   21  C   UNL     1      42.061 -16.396   5.717  1.00  0.00     0.000 A 
HETATM   22  C   UNL     1      42.177 -15.798   4.463  1.00  0.00     0.001 A 
HETATM   23  C   UNL     1      41.415 -14.671   4.153  1.00  0.00     0.009 A 
ENDBRANCH  17  18
ENDBRANCH  16  17
ENDBRANCH  13  16
ENDBRANCH   7   9
ENDBRANCH   6   7
BRANCH   1  24
HETATM   24  C   UNL     1      43.634  -9.035   8.910  1.00  0.00    -0.028 A 
HETATM   25  C   UNL     1      44.844  -8.330   8.770  1.00  0.00     0.012 A 
HETATM   26  C   UNL     1      45.942  -8.928   8.153  1.00  0.00     0.040 A 
HETATM   27  C   UNL     1      45.846 -10.241   7.713  1.00  0.00     0.099 A 
HETATM   28  C   UNL     1      44.673 -10.981   7.874  1.00  0.00     0.102 A 
HETATM   29  C   UNL     1      43.560 -10.365   8.445  1.00  0.00     0.049 A 
BRANCH  27  30
HETATM   30  O   UNL     1      46.948 -10.807   7.136  1.00  0.00    -0.358 OA
HETATM   31  H   UNL     1      47.371 -11.341   7.836  1.00  0.00     0.218 HD
ENDBRANCH  27  30
BRANCH  28  32
HETATM   32  O   UNL     1      44.735 -12.282   7.447  1.00  0.00    -0.349 OA
BRANCH  32  33
HETATM   33  C   UNL     1      43.660 -12.728   6.617  1.00  0.00     0.171 C 
HETATM   34  C   UNL     1      43.790 -12.050   5.265  1.00  0.00     0.034 C 
ENDBRANCH  32  33
ENDBRANCH  28  32
ENDBRANCH   1  24
BRANCH   5  35
HETATM   35  O   UNL     1      41.160  -4.988   9.668  1.00  0.00    -0.355 OA
HETATM   36  H   UNL     1      41.075  -4.566  10.542  1.00  0.00     0.218 HD
ENDBRANCH   5  35
BRANCH   2  37
HETATM   37  C   UNL     1      43.610  -8.703  11.913  1.00  0.00     0.155 C 
BRANCH  37  38
HETATM   38  C   UNL     1      42.966 -10.027  12.385  1.00  0.00     0.254 C 
BRANCH  38  39
HETATM   39  N   UNL     1      41.868  -9.830  13.408  1.00  0.00    -0.077 N 
HETATM   40  H   UNL     1      41.844 -10.718  13.951  1.00  0.00     0.279 HD
HETATM   41  C   UNL     1      42.088  -8.689  14.350  1.00  0.00     0.269 C 
HETATM   42  C   UNL     1      40.513  -9.761  12.761  1.00  0.00     0.269 C 
ENDBRANCH  38  39
ENDBRANCH  37  38
ENDBRANCH   2  37
TORSDOF 13
ENDMDL
MODEL 8
REMARK VINA RESULT:      -7.5      2.477      4.476
REMARK  13 active torsions:
REMARK  status: ('A' for Active; 'I' for Inactive)
REMARK    1  A    between atoms: C_2  and  O_3 
REMARK    2  A    between atoms: O_3  and  C_4 
REMARK    3  A    between atoms: C_5  and  O_6 
REMARK    4  A    between atoms: C_9  and  C_10 
REMARK    5  A    between atoms: N_11  and  C_12 
REMARK    6  A    between atoms: C_12  and  C_13 
REMARK    7  A    between atoms: C_13  and  N_14 
REMARK    8  A    between atoms: C_20  and  O_21 
REMARK    9  A    between atoms: C_22  and  C_23 
REMARK   10  A    between atoms: C_23  and  C_24 
REMARK   11  A    between atoms: C_28  and  O_29 
REMARK   12  A    between atoms: O_29  and  C_30 
REMARK   13  A    between atoms: C_30  and  C_31 
ROOT
HETATM    1  C   UNL     1      40.231 -11.886   1.498  1.00  0.00     0.161 A 
HETATM    2  N   UNL     1      40.075 -10.598   0.812  1.00  0.00    -0.332 N 
HETATM    3  C   UNL     1      40.430 -10.705  -0.512  1.00  0.00     0.278 A 
HETATM    4  O   UNL     1      40.283  -9.865  -1.383  1.00  0.00    -0.265 OA
HETATM    5  C   UNL     1      40.967 -12.061  -0.732  1.00  0.00     0.146 A 
HETATM    6  C   UNL     1      40.824 -12.737   0.415  1.00  0.00     0.059 A 
ENDROOT
BRANCH   6   7
HETATM    7  C   UNL     1      40.963 -14.214   0.463  1.00  0.00     0.194 C 
HETATM    8  O   UNL     1      40.515 -14.932  -0.425  1.00  0.00    -0.287 OA
BRANCH   7   9
HETATM    9  C   UNL     1      41.539 -14.842   1.669  1.00  0.00     0.021 A 
HETATM   10  C   UNL     1      40.721 -15.521   2.588  1.00  0.00    -0.045 A 
HETATM   11  C   UNL     1      39.250 -15.733   2.356  1.00  0.00     0.049 C 
HETATM   12  C   UNL     1      41.318 -16.069   3.734  1.00  0.00     0.044 A 
HETATM   13  C   UNL     1      42.688 -15.934   3.974  1.00  0.00     0.069 A 
HETATM   14  C   UNL     1      43.496 -15.315   3.023  1.00  0.00     0.038 A 
HETATM   15  C   UNL     1      42.924 -14.788   1.862  1.00  0.00     0.019 A 
BRANCH  13  16
HETATM   16  O   UNL     1      43.124 -16.485   5.144  1.00  0.00    -0.347 OA
BRANCH  16  17
HETATM   17  C   UNL     1      44.403 -17.118   5.105  1.00  0.00     0.214 C 
BRANCH  17  18
HETATM   18  C   UNL     1      44.204 -18.518   4.581  1.00  0.00    -0.034 A 
HETATM   19  C   UNL     1      44.139 -18.760   3.201  1.00  0.00     0.009 A 
HETATM   20  C   UNL     1      43.928 -20.053   2.718  1.00  0.00     0.001 A 
HETATM   21  C   UNL     1      43.771 -21.113   3.608  1.00  0.00     0.000 A 
HETATM   22  C   UNL     1      43.821 -20.883   4.982  1.00  0.00     0.001 A 
HETATM   23  C   UNL     1      44.033 -19.591   5.467  1.00  0.00     0.009 A 
ENDBRANCH  17  18
ENDBRANCH  16  17
ENDBRANCH  13  16
ENDBRANCH   7   9
ENDBRANCH   6   7
BRANCH   1  24
HETATM   24  C   UNL     1      41.023 -11.704   2.776  1.00  0.00    -0.028 A 
HETATM   25  C   UNL     1      42.358 -11.256   2.765  1.00  0.00     0.012 A 
HETATM   26  C   UNL     1      43.037 -11.030   3.961  1.00  0.00     0.040 A 
HETATM   27  C   UNL     1      42.374 -11.211   5.167  1.00  0.00     0.099 A 
HETATM   28  C   UNL     1      41.037 -11.614   5.212  1.00  0.00     0.102 A 
HETATM   29  C   UNL     1      40.375 -11.888   4.016  1.00  0.00     0.049 A 
BRANCH  27  30
HETATM   30  O   UNL     1      43.059 -10.957   6.322  1.00  0.00    -0.358 OA
HETATM   31  H   UNL     1      43.759 -11.637   6.372  1.00  0.00     0.218 HD
ENDBRANCH  27  30
BRANCH  28  32
HETATM   32  O   UNL     1      40.490 -11.697   6.466  1.00  0.00    -0.349 OA
BRANCH  32  33
HETATM   33  C   UNL     1      39.176 -11.154   6.619  1.00  0.00     0.171 C 
HETATM   34  C   UNL     1      39.282  -9.873   7.426  1.00  0.00     0.034 C 
ENDBRANCH  32  33
ENDBRANCH  28  32
ENDBRANCH   1  24
BRANCH   5  35
HETATM   35  O   UNL     1      41.402 -12.501  -1.945  1.00  0.00    -0.355 OA
HETATM   36  H   UNL     1      42.216 -13.017  -1.806  1.00  0.00     0.218 HD
ENDBRANCH   5  35
BRANCH   2  37
HETATM   37  C   UNL     1      39.514  -9.423   1.492  1.00  0.00     0.155 C 
BRANCH  37  38
HETATM   38  C   UNL     1      38.075  -9.531   2.046  1.00  0.00     0.254 C 
BRANCH  38  39
HETATM   39  N   UNL     1      37.865  -8.755   3.329  1.00  0.00    -0.077 N 
HETATM   40  H   UNL     1      37.312  -9.391   3.940  1.00  0.00     0.279 HD
HETATM   41  C   UNL     1      39.124  -8.369   4.039  1.00  0.00     0.269 C 
HETATM   42  C   UNL     1      36.962  -7.572   3.120  1.00  0.00     0.269 C 
ENDBRANCH  38  39
ENDBRANCH  37  38
ENDBRANCH   2  37
TORSDOF 13
ENDMDL
MODEL 9
REMARK VINA RESULT:      -7.4      2.376      4.187
REMARK  13 active torsions:
REMARK  status: ('A' for Active; 'I' for Inactive)
REMARK    1  A    between atoms: C_2  and  O_3 
REMARK    2  A    between atoms: O_3  and  C_4 
REMARK    3  A    between atoms: C_5  and  O_6 
REMARK    4  A    between atoms: C_9  and  C_10 
REMARK    5  A    between atoms: N_11  and  C_12 
REMARK    6  A    between atoms: C_12  and  C_13 
REMARK    7  A    between atoms: C_13  and  N_14 
REMARK    8  A    between atoms: C_20  and  O_21 
REMARK    9  A    between atoms: C_22  and  C_23 
REMARK   10  A    between atoms: C_23  and  C_24 
REMARK   11  A    between atoms: C_28  and  O_29 
REMARK   12  A    between atoms: O_29  and  C_30 
REMARK   13  A    between atoms: C_30  and  C_31 
ROOT
HETATM    1  C   UNL     1      41.196  -8.132   8.293  1.00  0.00     0.161 A 
HETATM    2  N   UNL     1      41.870  -6.870   7.965  1.00  0.00    -0.332 N 
HETATM    3  C   UNL     1      41.879  -6.661   6.606  1.00  0.00     0.278 A 
HETATM    4  O   UNL     1      42.230  -5.652   6.019  1.00  0.00    -0.265 OA
HETATM    5  C   UNL     1      41.312  -7.858   5.957  1.00  0.00     0.146 A 
HETATM    6  C   UNL     1      40.901  -8.682   6.929  1.00  0.00     0.059 A 
ENDROOT
BRANCH   6   7
HETATM    7  C   UNL     1      40.000  -9.826   6.642  1.00  0.00     0.194 C 
HETATM    8  O   UNL     1      38.876  -9.898   7.126  1.00  0.00    -0.287 OA
BRANCH   7   9
HETATM    9  C   UNL     1      40.518 -10.967   5.860  1.00  0.00     0.021 A 
HETATM   10  C   UNL     1      39.935 -11.323   4.632  1.00  0.00    -0.045 A 
HETATM   11  C   UNL     1      38.830 -10.520   4.001  1.00  0.00     0.049 C 
HETATM   12  C   UNL     1      40.447 -12.437   3.949  1.00  0.00     0.044 A 
HETATM   13  C   UNL     1      41.500 -13.190   4.475  1.00  0.00     0.069 A 
HETATM   14  C   UNL     1      42.110 -12.787   5.660  1.00  0.00     0.038 A 
HETATM   15  C   UNL     1      41.632 -11.664   6.341  1.00  0.00     0.019 A 
BRANCH  13  16
HETATM   16  O   UNL     1      41.870 -14.265   3.721  1.00  0.00    -0.347 OA
BRANCH  16  17
HETATM   17  C   UNL     1      41.205 -15.496   4.007  1.00  0.00     0.214 C 
BRANCH  17  18
HETATM   18  C   UNL     1      42.181 -16.615   3.744  1.00  0.00    -0.034 A 
HETATM   19  C   UNL     1      43.152 -16.953   4.698  1.00  0.00     0.009 A 
HETATM   20  C   UNL     1      44.071 -17.972   4.441  1.00  0.00     0.001 A 
HETATM   21  C   UNL     1      44.035 -18.655   3.227  1.00  0.00     0.000 A 
HETATM   22  C   UNL     1      43.083 -18.320   2.266  1.00  0.00     0.001 A 
HETATM   23  C   UNL     1      42.161 -17.302   2.521  1.00  0.00     0.009 A 
ENDBRANCH  17  18
ENDBRANCH  16  17
ENDBRANCH  13  16
ENDBRANCH   7   9
ENDBRANCH   6   7
BRANCH   1  24
HETATM   24  C   UNL     1      42.059  -8.958   9.224  1.00  0.00    -0.028 A 
HETATM   25  C   UNL     1      41.657  -9.260  10.538  1.00  0.00     0.012 A 
HETATM   26  C   UNL     1      42.441 -10.082  11.346  1.00  0.00     0.040 A 
HETATM   27  C   UNL     1      43.606 -10.636  10.830  1.00  0.00     0.099 A 
HETATM   28  C   UNL     1      44.011 -10.390   9.516  1.00  0.00     0.102 A 
HETATM   29  C   UNL     1      43.252  -9.527   8.727  1.00  0.00     0.049 A 
BRANCH  27  30
HETATM   30  O   UNL     1      44.339 -11.457  11.638  1.00  0.00    -0.358 OA
HETATM   31  H   UNL     1      44.251 -12.354  11.257  1.00  0.00     0.218 HD
ENDBRANCH  27  30
BRANCH  28  32
HETATM   32  O   UNL     1      45.146 -11.045   9.118  1.00  0.00    -0.349 OA
BRANCH  32  33
HETATM   33  C   UNL     1      45.850 -10.478   8.011  1.00  0.00     0.171 C 
HETATM   34  C   UNL     1      45.580 -11.333   6.786  1.00  0.00     0.034 C 
ENDBRANCH  32  33
ENDBRANCH  28  32
ENDBRANCH   1  24
BRANCH   5  35
HETATM   35  O   UNL     1      41.166  -7.974   4.608  1.00  0.00    -0.355 OA
HETATM   36  H   UNL     1      42.015  -7.740   4.190  1.00  0.00     0.218 HD
ENDBRANCH   5  35
BRANCH   2  37
HETATM   37  C   UNL     1      42.357  -5.959   9.009  1.00  0.00     0.155 C 
BRANCH  37  38
HETATM   38  C   UNL     1      41.353  -4.947   9.606  1.00  0.00     0.254 C 
BRANCH  38  39
HETATM   39  N   UNL     1      41.056  -5.187  11.071  1.00  0.00    -0.077 N 
HETATM   40  H   UNL     1      41.037  -4.239  11.500  1.00  0.00     0.279 HD
HETATM   41  C   UNL     1      39.752  -5.871  11.340  1.00  0.00     0.269 C 
HETATM   42  C   UNL     1      42.197  -5.879  11.762  1.00  0.00     0.269 C 
ENDBRANCH  38  39
ENDBRANCH  37  38
ENDBRANCH   2  37
TORSDOF 13
ENDMDL
MODEL 10
REMARK VINA RESULT:      -7.4      2.675      6.181
REMARK  13 active torsions:
REMARK  status: ('A' for Active; 'I' for Inactive)
REMARK    1  A    between atoms: C_2  and  O_3 
REMARK    2  A    between atoms: O_3  and  C_4 
REMARK    3  A    between atoms: C_5  and  O_6 
REMARK    4  A    between atoms: C_9  and  C_10 
REMARK    5  A    between atoms: N_11  and  C_12 
REMARK    6  A    between atoms: C_12  and  C_13 
REMARK    7  A    between atoms: C_13  and  N_14 
REMARK    8  A    between atoms: C_20  and  O_21 
REMARK    9  A    between atoms: C_22  and  C_23 
REMARK   10  A    between atoms: C_23  and  C_24 
REMARK   11  A    between atoms: C_28  and  O_29 
REMARK   12  A    between atoms: O_29  and  C_30 
REMARK   13  A    between atoms: C_30  and  C_31 
ROOT
HETATM    1  C   UNL     1      42.677 -13.208   5.330  1.00  0.00     0.161 A 
HETATM    2  N   UNL     1      43.348 -13.348   6.628  1.00  0.00    -0.332 N 
HETATM    3  C   UNL     1      42.935 -14.492   7.270  1.00  0.00     0.278 A 
HETATM    4  O   UNL     1      43.398 -14.971   8.290  1.00  0.00    -0.265 OA
HETATM    5  C   UNL     1      41.860 -15.103   6.465  1.00  0.00     0.146 A 
HETATM    6  C   UNL     1      41.738 -14.378   5.346  1.00  0.00     0.059 A 
ENDROOT
BRANCH   6   7
HETATM    7  C   UNL     1      40.980 -14.886   4.176  1.00  0.00     0.194 C 
HETATM    8  O   UNL     1      40.635 -16.059   4.092  1.00  0.00    -0.287 OA
BRANCH   7   9
HETATM    9  C   UNL     1      40.749 -13.988   3.026  1.00  0.00     0.021 A 
HETATM   10  C   UNL     1      41.686 -13.899   1.982  1.00  0.00    -0.045 A 
HETATM   11  C   UNL     1      42.912 -14.768   1.922  1.00  0.00     0.049 C 
HETATM   12  C   UNL     1      41.430 -13.003   0.932  1.00  0.00     0.044 A 
HETATM   13  C   UNL     1      40.284 -12.204   0.923  1.00  0.00     0.069 A 
HETATM   14  C   UNL     1      39.333 -12.350   1.930  1.00  0.00     0.038 A 
HETATM   15  C   UNL     1      39.557 -13.257   2.970  1.00  0.00     0.019 A 
BRANCH  13  16
HETATM   16  O   UNL     1      40.184 -11.356  -0.142  1.00  0.00    -0.347 OA
BRANCH  16  17
HETATM   17  C   UNL     1      40.713 -11.832  -1.379  1.00  0.00     0.214 C 
BRANCH  17  18
HETATM   18  C   UNL     1      39.657 -12.691  -2.028  1.00  0.00    -0.034 A 
HETATM   19  C   UNL     1      38.349 -12.212  -2.190  1.00  0.00     0.009 A 
HETATM   20  C   UNL     1      37.366 -13.019  -2.767  1.00  0.00     0.001 A 
HETATM   21  C   UNL     1      37.678 -14.313  -3.178  1.00  0.00     0.000 A 
HETATM   22  C   UNL     1      38.972 -14.804  -3.010  1.00  0.00     0.001 A 
HETATM   23  C   UNL     1      39.957 -13.999  -2.435  1.00  0.00     0.009 A 
ENDBRANCH  17  18
ENDBRANCH  16  17
ENDBRANCH  13  16
ENDBRANCH   7   9
ENDBRANCH   6   7
BRANCH   1  24
HETATM   24  C   UNL     1      42.085 -11.820   5.195  1.00  0.00    -0.028 A 
HETATM   25  C   UNL     1      42.521 -10.921   4.204  1.00  0.00     0.012 A 
HETATM   26  C   UNL     1      41.907  -9.677   4.061  1.00  0.00     0.040 A 
HETATM   27  C   UNL     1      40.834  -9.347   4.878  1.00  0.00     0.099 A 
HETATM   28  C   UNL     1      40.352 -10.234   5.844  1.00  0.00     0.102 A 
HETATM   29  C   UNL     1      40.999 -11.456   6.019  1.00  0.00     0.049 A 
BRANCH  27  30
HETATM   30  O   UNL     1      40.238  -8.131   4.696  1.00  0.00    -0.358 OA
HETATM   31  H   UNL     1      40.252  -7.694   5.571  1.00  0.00     0.218 HD
ENDBRANCH  27  30
BRANCH  28  32
HETATM   32  O   UNL     1      39.253  -9.804   6.540  1.00  0.00    -0.349 OA
BRANCH  32  33
HETATM   33  C   UNL     1      39.431  -9.606   7.945  1.00  0.00     0.171 C 
HETATM   34  C   UNL     1      39.458  -8.113   8.214  1.00  0.00     0.034 C 
ENDBRANCH  32  33
ENDBRANCH  28  32
ENDBRANCH   1  24
BRANCH   5  35
HETATM   35  O   UNL     1      41.236 -16.262   6.815  1.00  0.00    -0.355 OA
HETATM   36  H   UNL     1      40.292 -16.065   6.960  1.00  0.00     0.218 HD
ENDBRANCH   5  35
BRANCH   2  37
HETATM   37  C   UNL     1      44.382 -12.403   7.070  1.00  0.00     0.155 C 
BRANCH  37  38
HETATM   38  C   UNL     1      43.984 -11.338   8.116  1.00  0.00     0.254 C 
BRANCH  38  39
HETATM   39  N   UNL     1      44.261  -9.919   7.666  1.00  0.00    -0.077 N 
HETATM   40  H   UNL     1      44.401  -9.988   6.636  1.00  0.00     0.279 HD
HETATM   41  C   UNL     1      43.157  -8.949   7.944  1.00  0.00     0.269 C 
HETATM   42  C   UNL     1      45.581  -9.421   8.183  1.00  0.00     0.269 C 
ENDBRANCH  38  39
ENDBRANCH  37  38
ENDBRANCH   2  37
TORSDOF 13
ENDMDL
