MODEL 1
REMARK VINA RESULT:      -9.0      0.000      0.000
REMARK  9 active torsions:
REMARK  status: ('A' for Active; 'I' for Inactive)
REMARK    1  A    between atoms: C_2  and  C_3 
REMARK    2  A    between atoms: C_4  and  N_5 
REMARK       I    between atoms: N_5  and  C_6 
REMARK    3  A    between atoms: C_6  and  C_7 
REMARK    4  A    between atoms: C_7  and  S_8 
REMARK    5  A    between atoms: S_8  and  C_9 
REMARK    6  A    between atoms: C_13  and  C_14 
REMARK       I    between atoms: C_14  and  N_15 
REMARK    7  A    between atoms: N_15  and  C_16 
REMARK    8  A    between atoms: C_17  and  O_18 
REMARK    9  A    between atoms: C_25  and  C_26 
ROOT
HETATM    1  C   UNL     1      43.797 -12.092   6.057  1.00  0.00     0.088 C 
HETATM    2  N   UNL     1      43.069 -11.103   5.415  1.00  0.00    -0.353 N 
HETATM    3  C   UNL     1      41.739 -11.263   5.030  1.00  0.00     0.019 C 
HETATM    4  C   UNL     1      40.945  -9.980   5.049  1.00  0.00     0.069 C 
HETATM    5  C   UNL     1      41.242 -12.510   4.829  1.00  0.00     0.046 C 
HETATM    6  C   UNL     1      42.133 -13.727   5.162  1.00  0.00     0.106 C 
HETATM    7  C   UNL     1      43.398 -13.380   5.956  1.00  0.00     0.069 C 
HETATM    8  C   UNL     1      44.033 -14.449   6.657  1.00  0.00     0.099 C 
HETATM    9  N   UNL     1      44.538 -15.330   7.219  1.00  0.00    -0.192 NA
HETATM   10  H   UNL     1      43.315 -10.173   5.748  1.00  0.00     0.166 HD
ENDROOT
BRANCH   1  11
HETATM   11  S   UNL     1      45.056 -11.591   7.165  1.00  0.00    -0.102 SA
BRANCH  11  12
HETATM   12  C   UNL     1      44.471  -9.966   7.737  1.00  0.00     0.184 C 
BRANCH  12  13
HETATM   13  C   UNL     1      44.106 -10.097   9.215  1.00  0.00     0.231 C 
HETATM   14  N   UNL     1      43.623  -8.913   9.755  1.00  0.00    -0.326 N 
HETATM   15  H   UNL     1      43.739  -8.087   9.186  1.00  0.00     0.169 HD
HETATM   16  O   UNL     1      44.253 -11.158   9.815  1.00  0.00    -0.272 OA
BRANCH  14  17
HETATM   17  C   UNL     1      42.871  -8.749  10.942  1.00  0.00     0.041 A 
HETATM   18  C   UNL     1      41.470  -8.926  10.901  1.00  0.00    -0.032 A 
HETATM   19  C   UNL     1      40.736  -8.881  12.102  1.00  0.00     0.009 A 
HETATM   20  C   UNL     1      41.367  -8.649  13.321  1.00  0.00     0.001 A 
HETATM   21  C   UNL     1      42.742  -8.451  13.356  1.00  0.00     0.002 A 
HETATM   22  C   UNL     1      43.487  -8.500  12.175  1.00  0.00     0.030 A 
BRANCH  18  23
HETATM   23  C   UNL     1      40.699  -9.166   9.620  1.00  0.00     0.036 C 
HETATM   24  C   UNL     1      39.200  -9.273   9.857  1.00  0.00     0.010 C 
ENDBRANCH  18  23
ENDBRANCH  14  17
ENDBRANCH  12  13
ENDBRANCH  11  12
ENDBRANCH   1  11
BRANCH   6  25
HETATM   25  C   UNL     1      42.462 -14.617   3.966  1.00  0.00    -0.044 A 
HETATM   26  C   UNL     1      43.105 -14.119   2.825  1.00  0.00     0.008 A 
HETATM   27  C   UNL     1      43.460 -14.977   1.780  1.00  0.00     0.001 A 
HETATM   28  C   UNL     1      43.178 -16.340   1.862  1.00  0.00     0.000 A 
HETATM   29  C   UNL     1      42.542 -16.849   2.991  1.00  0.00     0.001 A 
HETATM   30  C   UNL     1      42.185 -15.995   4.035  1.00  0.00     0.008 A 
ENDBRANCH   6  25
BRANCH   5  31
HETATM   31  C   UNL     1      39.797 -12.870   4.647  1.00  0.00     0.255 C 
HETATM   32  N   UNL     1      39.177 -13.103   3.460  1.00  0.00    -0.321 N 
HETATM   33  H   UNL     1      38.176 -12.994   3.576  1.00  0.00     0.169 HD
HETATM   34  O   UNL     1      39.061 -12.834   5.640  1.00  0.00    -0.268 OA
BRANCH  32  35
HETATM   35  C   UNL     1      39.597 -13.438   2.164  1.00  0.00     0.068 A 
HETATM   36  C   UNL     1      40.059 -12.540   1.196  1.00  0.00     0.095 A 
HETATM   37  C   UNL     1      40.375 -13.004  -0.091  1.00  0.00     0.039 A 
HETATM   38  C   UNL     1      40.303 -14.364  -0.392  1.00  0.00     0.003 A 
HETATM   39  C   UNL     1      39.927 -15.272   0.591  1.00  0.00     0.002 A 
HETATM   40  C   UNL     1      39.587 -14.811   1.864  1.00  0.00     0.032 A 
BRANCH  36  41
HETATM   41  O   UNL     1      40.241 -11.226   1.534  1.00  0.00    -0.354 OA
HETATM   42  C   UNL     1      41.600 -10.811   1.378  1.00  0.00     0.210 C 
ENDBRANCH  36  41
ENDBRANCH  32  35
ENDBRANCH   5  31
TORSDOF 9
ENDMDL
MODEL 2
REMARK VINA RESULT:      -8.8      2.867      9.216
REMARK  9 active torsions:
REMARK  status: ('A' for Active; 'I' for Inactive)
REMARK    1  A    between atoms: C_2  and  C_3 
REMARK    2  A    between atoms: C_4  and  N_5 
REMARK       I    between atoms: N_5  and  C_6 
REMARK    3  A    between atoms: C_6  and  C_7 
REMARK    4  A    between atoms: C_7  and  S_8 
REMARK    5  A    between atoms: S_8  and  C_9 
REMARK    6  A    between atoms: C_13  and  C_14 
REMARK       I    between atoms: C_14  and  N_15 
REMARK    7  A    between atoms: N_15  and  C_16 
REMARK    8  A    between atoms: C_17  and  O_18 
REMARK    9  A    between atoms: C_25  and  C_26 
ROOT
HETATM    1  C   UNL     1      42.288 -12.110   5.795  1.00  0.00     0.088 C 
HETATM    2  N   UNL     1      41.052 -11.930   6.395  1.00  0.00    -0.353 N 
HETATM    3  C   UNL     1      40.585 -10.688   6.822  1.00  0.00     0.019 C 
HETATM    4  C   UNL     1      39.085 -10.548   6.746  1.00  0.00     0.069 C 
HETATM    5  C   UNL     1      41.469  -9.700   7.111  1.00  0.00     0.046 C 
HETATM    6  C   UNL     1      42.969  -9.939   6.829  1.00  0.00     0.106 C 
HETATM    7  C   UNL     1      43.257 -11.186   5.983  1.00  0.00     0.069 C 
HETATM    8  C   UNL     1      44.526 -11.244   5.332  1.00  0.00     0.099 C 
HETATM    9  N   UNL     1      45.563 -11.277   4.812  1.00  0.00    -0.192 NA
HETATM   10  H   UNL     1      40.345 -12.547   6.000  1.00  0.00     0.166 HD
ENDROOT
BRANCH   1  11
HETATM   11  S   UNL     1      42.450 -13.405   4.627  1.00  0.00    -0.102 SA
BRANCH  11  12
HETATM   12  C   UNL     1      40.820 -14.212   4.688  1.00  0.00     0.184 C 
BRANCH  12  13
HETATM   13  C   UNL     1      41.007 -15.668   4.265  1.00  0.00     0.231 C 
HETATM   14  N   UNL     1      42.219 -15.889   3.624  1.00  0.00    -0.326 N 
HETATM   15  H   UNL     1      42.734 -15.063   3.355  1.00  0.00     0.169 HD
HETATM   16  O   UNL     1      40.142 -16.510   4.484  1.00  0.00    -0.272 OA
BRANCH  14  17
HETATM   17  C   UNL     1      42.877 -17.125   3.426  1.00  0.00     0.041 A 
HETATM   18  C   UNL     1      43.778 -17.592   4.410  1.00  0.00    -0.032 A 
HETATM   19  C   UNL     1      44.342 -18.875   4.270  1.00  0.00     0.009 A 
HETATM   20  C   UNL     1      44.040 -19.678   3.173  1.00  0.00     0.001 A 
HETATM   21  C   UNL     1      43.173 -19.206   2.196  1.00  0.00     0.002 A 
HETATM   22  C   UNL     1      42.598 -17.939   2.321  1.00  0.00     0.030 A 
BRANCH  18  23
HETATM   23  C   UNL     1      44.178 -16.782   5.624  1.00  0.00     0.036 C 
HETATM   24  C   UNL     1      43.401 -17.182   6.870  1.00  0.00     0.010 C 
ENDBRANCH  18  23
ENDBRANCH  14  17
ENDBRANCH  12  13
ENDBRANCH  11  12
ENDBRANCH   1  11
BRANCH   6  25
HETATM   25  C   UNL     1      43.861  -9.898   8.068  1.00  0.00    -0.044 A 
HETATM   26  C   UNL     1      44.867  -8.935   8.226  1.00  0.00     0.008 A 
HETATM   27  C   UNL     1      45.614  -8.879   9.406  1.00  0.00     0.001 A 
HETATM   28  C   UNL     1      45.364  -9.779  10.440  1.00  0.00     0.000 A 
HETATM   29  C   UNL     1      44.365 -10.737  10.299  1.00  0.00     0.001 A 
HETATM   30  C   UNL     1      43.619 -10.798   9.121  1.00  0.00     0.008 A 
ENDBRANCH   6  25
BRANCH   5  31
HETATM   31  C   UNL     1      41.139  -8.257   7.351  1.00  0.00     0.255 C 
HETATM   32  N   UNL     1      41.015  -7.658   8.565  1.00  0.00    -0.321 N 
HETATM   33  H   UNL     1      40.477  -6.805   8.467  1.00  0.00     0.169 HD
HETATM   34  O   UNL     1      40.824  -7.563   6.375  1.00  0.00    -0.268 OA
BRANCH  32  35
HETATM   35  C   UNL     1      41.443  -7.951   9.869  1.00  0.00     0.068 A 
HETATM   36  C   UNL     1      42.440  -7.269  10.574  1.00  0.00     0.095 A 
HETATM   37  C   UNL     1      42.823  -7.718  11.848  1.00  0.00     0.039 A 
HETATM   38  C   UNL     1      42.167  -8.792  12.449  1.00  0.00     0.003 A 
HETATM   39  C   UNL     1      41.117  -9.419  11.787  1.00  0.00     0.002 A 
HETATM   40  C   UNL     1      40.752  -8.992  10.510  1.00  0.00     0.032 A 
BRANCH  36  41
HETATM   41  O   UNL     1      42.997  -6.144  10.029  1.00  0.00    -0.354 OA
HETATM   42  C   UNL     1      42.486  -4.946  10.620  1.00  0.00     0.210 C 
ENDBRANCH  36  41
ENDBRANCH  32  35
ENDBRANCH   5  31
TORSDOF 9
ENDMDL
MODEL 3
REMARK VINA RESULT:      -8.7      2.882      9.419
REMARK  9 active torsions:
REMARK  status: ('A' for Active; 'I' for Inactive)
REMARK    1  A    between atoms: C_2  and  C_3 
REMARK    2  A    between atoms: C_4  and  N_5 
REMARK       I    between atoms: N_5  and  C_6 
REMARK    3  A    between atoms: C_6  and  C_7 
REMARK    4  A    between atoms: C_7  and  S_8 
REMARK    5  A    between atoms: S_8  and  C_9 
REMARK    6  A    between atoms: C_13  and  C_14 
REMARK       I    between atoms: C_14  and  N_15 
REMARK    7  A    between atoms: N_15  and  C_16 
REMARK    8  A    between atoms: C_17  and  O_18 
REMARK    9  A    between atoms: C_25  and  C_26 
ROOT
HETATM    1  C   UNL     1      42.351 -12.116   6.066  1.00  0.00     0.088 C 
HETATM    2  N   UNL     1      41.080 -11.893   6.570  1.00  0.00    -0.353 N 
HETATM    3  C   UNL     1      40.602 -10.626   6.900  1.00  0.00     0.019 C 
HETATM    4  C   UNL     1      39.112 -10.474   6.715  1.00  0.00     0.069 C 
HETATM    5  C   UNL     1      41.477  -9.633   7.196  1.00  0.00     0.046 C 
HETATM    6  C   UNL     1      42.990  -9.901   7.030  1.00  0.00     0.106 C 
HETATM    7  C   UNL     1      43.318 -11.193   6.272  1.00  0.00     0.069 C 
HETATM    8  C   UNL     1      44.627 -11.297   5.712  1.00  0.00     0.099 C 
HETATM    9  N   UNL     1      45.696 -11.367   5.266  1.00  0.00    -0.192 NA
HETATM   10  H   UNL     1      40.392 -12.523   6.161  1.00  0.00     0.166 HD
ENDROOT
BRANCH   1  11
HETATM   11  S   UNL     1      42.574 -13.472   4.980  1.00  0.00    -0.102 SA
BRANCH  11  12
HETATM   12  C   UNL     1      43.163 -14.788   6.090  1.00  0.00     0.184 C 
BRANCH  12  13
HETATM   13  C   UNL     1      42.672 -16.122   5.530  1.00  0.00     0.231 C 
HETATM   14  N   UNL     1      43.630 -16.764   4.756  1.00  0.00    -0.326 N 
HETATM   15  H   UNL     1      44.439 -16.214   4.507  1.00  0.00     0.169 HD
HETATM   16  O   UNL     1      41.539 -16.531   5.763  1.00  0.00    -0.272 OA
BRANCH  14  17
HETATM   17  C   UNL     1      43.671 -18.130   4.391  1.00  0.00     0.041 A 
HETATM   18  C   UNL     1      43.482 -18.488   3.037  1.00  0.00    -0.032 A 
HETATM   19  C   UNL     1      43.640 -19.834   2.654  1.00  0.00     0.009 A 
HETATM   20  C   UNL     1      43.961 -20.814   3.591  1.00  0.00     0.001 A 
HETATM   21  C   UNL     1      44.123 -20.463   4.925  1.00  0.00     0.002 A 
HETATM   22  C   UNL     1      43.977 -19.131   5.321  1.00  0.00     0.030 A 
BRANCH  18  23
HETATM   23  C   UNL     1      43.115 -17.494   1.956  1.00  0.00     0.036 C 
HETATM   24  C   UNL     1      41.695 -16.969   2.109  1.00  0.00     0.010 C 
ENDBRANCH  18  23
ENDBRANCH  14  17
ENDBRANCH  12  13
ENDBRANCH  11  12
ENDBRANCH   1  11
BRANCH   6  25
HETATM   25  C   UNL     1      43.796  -9.802   8.323  1.00  0.00    -0.044 A 
HETATM   26  C   UNL     1      43.527 -10.620   9.429  1.00  0.00     0.008 A 
HETATM   27  C   UNL     1      44.333 -10.556  10.569  1.00  0.00     0.001 A 
HETATM   28  C   UNL     1      45.416  -9.680  10.617  1.00  0.00     0.000 A 
HETATM   29  C   UNL     1      45.697  -8.865   9.525  1.00  0.00     0.001 A 
HETATM   30  C   UNL     1      44.893  -8.924   8.386  1.00  0.00     0.008 A 
ENDBRANCH   6  25
BRANCH   5  31
HETATM   31  C   UNL     1      41.150  -8.175   7.338  1.00  0.00     0.255 C 
HETATM   32  N   UNL     1      40.979  -7.507   8.509  1.00  0.00    -0.321 N 
HETATM   33  H   UNL     1      40.454  -6.657   8.339  1.00  0.00     0.169 HD
HETATM   34  O   UNL     1      40.886  -7.537   6.312  1.00  0.00    -0.268 OA
BRANCH  32  35
HETATM   35  C   UNL     1      41.346  -7.727   9.846  1.00  0.00     0.068 A 
HETATM   36  C   UNL     1      42.373  -7.069  10.530  1.00  0.00     0.095 A 
HETATM   37  C   UNL     1      42.685  -7.443  11.847  1.00  0.00     0.039 A 
HETATM   38  C   UNL     1      41.930  -8.414  12.506  1.00  0.00     0.003 A 
HETATM   39  C   UNL     1      40.853  -9.010  11.859  1.00  0.00     0.002 A 
HETATM   40  C   UNL     1      40.558  -8.658  10.541  1.00  0.00     0.032 A 
BRANCH  36  41
HETATM   41  O   UNL     1      43.032  -6.036   9.919  1.00  0.00    -0.354 OA
HETATM   42  C   UNL     1      42.587  -4.759  10.385  1.00  0.00     0.210 C 
ENDBRANCH  36  41
ENDBRANCH  32  35
ENDBRANCH   5  31
TORSDOF 9
ENDMDL
MODEL 4
REMARK VINA RESULT:      -8.5      4.788      8.328
REMARK  9 active torsions:
REMARK  status: ('A' for Active; 'I' for Inactive)
REMARK    1  A    between atoms: C_2  and  C_3 
REMARK    2  A    between atoms: C_4  and  N_5 
REMARK       I    between atoms: N_5  and  C_6 
REMARK    3  A    between atoms: C_6  and  C_7 
REMARK    4  A    between atoms: C_7  and  S_8 
REMARK    5  A    between atoms: S_8  and  C_9 
REMARK    6  A    between atoms: C_13  and  C_14 
REMARK       I    between atoms: C_14  and  N_15 
REMARK    7  A    between atoms: N_15  and  C_16 
REMARK    8  A    between atoms: C_17  and  O_18 
REMARK    9  A    between atoms: C_25  and  C_26 
ROOT
HETATM    1  C   UNL     1      39.494 -12.590   3.133  1.00  0.00     0.088 C 
HETATM    2  N   UNL     1      39.397 -13.575   2.163  1.00  0.00    -0.353 N 
HETATM    3  C   UNL     1      39.754 -13.372   0.831  1.00  0.00     0.019 C 
HETATM    4  C   UNL     1      40.273 -14.614   0.148  1.00  0.00     0.069 C 
HETATM    5  C   UNL     1      39.757 -12.116   0.320  1.00  0.00     0.046 C 
HETATM    6  C   UNL     1      39.491 -10.926   1.269  1.00  0.00     0.106 C 
HETATM    7  C   UNL     1      39.528 -11.292   2.758  1.00  0.00     0.069 C 
HETATM    8  C   UNL     1      39.719 -10.219   3.680  1.00  0.00     0.099 C 
HETATM    9  N   UNL     1      39.871  -9.335   4.417  1.00  0.00    -0.192 NA
HETATM   10  H   UNL     1      39.616 -14.498   2.535  1.00  0.00     0.166 HD
ENDROOT
BRANCH   1  11
HETATM   11  S   UNL     1      39.812 -13.093   4.780  1.00  0.00    -0.102 SA
BRANCH  11  12
HETATM   12  C   UNL     1      41.535 -13.673   4.702  1.00  0.00     0.184 C 
BRANCH  12  13
HETATM   13  C   UNL     1      41.516 -15.118   4.206  1.00  0.00     0.231 C 
HETATM   14  N   UNL     1      42.743 -15.527   3.699  1.00  0.00    -0.326 N 
HETATM   15  H   UNL     1      43.426 -14.798   3.550  1.00  0.00     0.169 HD
HETATM   16  O   UNL     1      40.496 -15.798   4.263  1.00  0.00    -0.272 OA
BRANCH  14  17
HETATM   17  C   UNL     1      43.194 -16.852   3.497  1.00  0.00     0.041 A 
HETATM   18  C   UNL     1      43.917 -17.499   4.525  1.00  0.00    -0.032 A 
HETATM   19  C   UNL     1      44.264 -18.856   4.372  1.00  0.00     0.009 A 
HETATM   20  C   UNL     1      43.920 -19.559   3.221  1.00  0.00     0.001 A 
HETATM   21  C   UNL     1      43.230 -18.915   2.202  1.00  0.00     0.002 A 
HETATM   22  C   UNL     1      42.872 -17.571   2.339  1.00  0.00     0.030 A 
BRANCH  18  23
HETATM   23  C   UNL     1      44.348 -16.809   5.801  1.00  0.00     0.036 C 
HETATM   24  C   UNL     1      43.401 -17.086   6.959  1.00  0.00     0.010 C 
ENDBRANCH  18  23
ENDBRANCH  14  17
ENDBRANCH  12  13
ENDBRANCH  11  12
ENDBRANCH   1  11
BRANCH   6  25
HETATM   25  C   UNL     1      38.241 -10.116   0.933  1.00  0.00    -0.044 A 
HETATM   26  C   UNL     1      38.305  -8.756   0.601  1.00  0.00     0.008 A 
HETATM   27  C   UNL     1      37.150  -8.063   0.225  1.00  0.00     0.001 A 
HETATM   28  C   UNL     1      35.922  -8.719   0.175  1.00  0.00     0.000 A 
HETATM   29  C   UNL     1      35.843 -10.070   0.499  1.00  0.00     0.001 A 
HETATM   30  C   UNL     1      36.994 -10.764   0.876  1.00  0.00     0.008 A 
ENDBRANCH   6  25
BRANCH   5  31
HETATM   31  C   UNL     1      40.332 -11.697  -1.001  1.00  0.00     0.255 C 
HETATM   32  N   UNL     1      39.658 -11.631  -2.179  1.00  0.00    -0.321 N 
HETATM   33  H   UNL     1      40.320 -11.652  -2.947  1.00  0.00     0.169 HD
HETATM   34  O   UNL     1      41.554 -11.512  -1.069  1.00  0.00    -0.268 OA
BRANCH  32  35
HETATM   35  C   UNL     1      38.308 -11.553  -2.553  1.00  0.00     0.068 A 
HETATM   36  C   UNL     1      37.424 -12.632  -2.656  1.00  0.00     0.095 A 
HETATM   37  C   UNL     1      36.116 -12.419  -3.118  1.00  0.00     0.039 A 
HETATM   38  C   UNL     1      35.665 -11.131  -3.405  1.00  0.00     0.003 A 
HETATM   39  C   UNL     1      36.514 -10.045  -3.224  1.00  0.00     0.002 A 
HETATM   40  C   UNL     1      37.823 -10.256  -2.789  1.00  0.00     0.032 A 
BRANCH  36  41
HETATM   41  O   UNL     1      37.835 -13.875  -2.258  1.00  0.00    -0.354 OA
HETATM   42  C   UNL     1      38.197 -14.706  -3.364  1.00  0.00     0.210 C 
ENDBRANCH  36  41
ENDBRANCH  32  35
ENDBRANCH   5  31
TORSDOF 9
ENDMDL
MODEL 5
REMARK VINA RESULT:      -8.5      2.371      4.430
REMARK  9 active torsions:
REMARK  status: ('A' for Active; 'I' for Inactive)
REMARK    1  A    between atoms: C_2  and  C_3 
REMARK    2  A    between atoms: C_4  and  N_5 
REMARK       I    between atoms: N_5  and  C_6 
REMARK    3  A    between atoms: C_6  and  C_7 
REMARK    4  A    between atoms: C_7  and  S_8 
REMARK    5  A    between atoms: S_8  and  C_9 
REMARK    6  A    between atoms: C_13  and  C_14 
REMARK       I    between atoms: C_14  and  N_15 
REMARK    7  A    between atoms: N_15  and  C_16 
REMARK    8  A    between atoms: C_17  and  O_18 
REMARK    9  A    between atoms: C_25  and  C_26 
ROOT
HETATM    1  C   UNL     1      41.305  -9.931   6.489  1.00  0.00     0.088 C 
HETATM    2  N   UNL     1      41.796 -11.196   6.773  1.00  0.00    -0.353 N 
HETATM    3  C   UNL     1      42.598 -11.918   5.891  1.00  0.00     0.019 C 
HETATM    4  C   UNL     1      43.580 -12.834   6.579  1.00  0.00     0.069 C 
HETATM    5  C   UNL     1      42.548 -11.649   4.562  1.00  0.00     0.046 C 
HETATM    6  C   UNL     1      41.699 -10.453   4.077  1.00  0.00     0.106 C 
HETATM    7  C   UNL     1      41.222  -9.526   5.202  1.00  0.00     0.069 C 
HETATM    8  C   UNL     1      40.817  -8.210   4.824  1.00  0.00     0.099 C 
HETATM    9  N   UNL     1      40.487  -7.145   4.500  1.00  0.00    -0.192 NA
HETATM   10  H   UNL     1      42.031 -11.301   7.758  1.00  0.00     0.166 HD
ENDROOT
BRANCH   1  11
HETATM   11  S   UNL     1      41.045  -8.836   7.830  1.00  0.00    -0.102 SA
BRANCH  11  12
HETATM   12  C   UNL     1      39.675  -9.619   8.735  1.00  0.00     0.184 C 
BRANCH  12  13
HETATM   13  C   UNL     1      39.740  -9.137  10.183  1.00  0.00     0.231 C 
HETATM   14  N   UNL     1      40.792  -9.703  10.891  1.00  0.00    -0.326 N 
HETATM   15  H   UNL     1      41.261 -10.477  10.443  1.00  0.00     0.169 HD
HETATM   16  O   UNL     1      38.918  -8.340  10.626  1.00  0.00    -0.272 OA
BRANCH  14  17
HETATM   17  C   UNL     1      41.369  -9.241  12.097  1.00  0.00     0.041 A 
HETATM   18  C   UNL     1      42.597  -8.543  12.051  1.00  0.00    -0.032 A 
HETATM   19  C   UNL     1      43.112  -7.979  13.235  1.00  0.00     0.009 A 
HETATM   20  C   UNL     1      42.439  -8.115  14.446  1.00  0.00     0.001 A 
HETATM   21  C   UNL     1      41.244  -8.822  14.493  1.00  0.00     0.002 A 
HETATM   22  C   UNL     1      40.715  -9.382  13.327  1.00  0.00     0.030 A 
BRANCH  18  23
HETATM   23  C   UNL     1      43.404  -8.361  10.784  1.00  0.00     0.036 C 
HETATM   24  C   UNL     1      44.533  -9.373  10.665  1.00  0.00     0.010 C 
ENDBRANCH  18  23
ENDBRANCH  14  17
ENDBRANCH  12  13
ENDBRANCH  11  12
ENDBRANCH   1  11
BRANCH   6  25
HETATM   25  C   UNL     1      40.546 -10.830   3.150  1.00  0.00    -0.044 A 
HETATM   26  C   UNL     1      40.431 -10.303   1.857  1.00  0.00     0.008 A 
HETATM   27  C   UNL     1      39.405 -10.728   1.007  1.00  0.00     0.001 A 
HETATM   28  C   UNL     1      38.486 -11.683   1.438  1.00  0.00     0.000 A 
HETATM   29  C   UNL     1      38.590 -12.218   2.718  1.00  0.00     0.001 A 
HETATM   30  C   UNL     1      39.612 -11.794   3.569  1.00  0.00     0.008 A 
ENDBRANCH   6  25
BRANCH   5  31
HETATM   31  C   UNL     1      43.499 -12.157   3.518  1.00  0.00     0.255 C 
HETATM   32  N   UNL     1      43.325 -13.267   2.754  1.00  0.00    -0.321 N 
HETATM   33  H   UNL     1      44.221 -13.568   2.389  1.00  0.00     0.169 HD
HETATM   34  O   UNL     1      44.600 -11.601   3.417  1.00  0.00    -0.268 OA
BRANCH  32  35
HETATM   35  C   UNL     1      42.229 -14.058   2.380  1.00  0.00     0.068 A 
HETATM   36  C   UNL     1      41.624 -15.042   3.170  1.00  0.00     0.095 A 
HETATM   37  C   UNL     1      40.579 -15.816   2.640  1.00  0.00     0.039 A 
HETATM   38  C   UNL     1      40.088 -15.564   1.358  1.00  0.00     0.003 A 
HETATM   39  C   UNL     1      40.630 -14.531   0.601  1.00  0.00     0.002 A 
HETATM   40  C   UNL     1      41.686 -13.777   1.116  1.00  0.00     0.032 A 
BRANCH  36  41
HETATM   41  O   UNL     1      42.029 -15.203   4.467  1.00  0.00    -0.354 OA
HETATM   42  C   UNL     1      41.081 -15.939   5.244  1.00  0.00     0.210 C 
ENDBRANCH  36  41
ENDBRANCH  32  35
ENDBRANCH   5  31
TORSDOF 9
ENDMDL
MODEL 6
REMARK VINA RESULT:      -8.3      2.627      9.769
REMARK  9 active torsions:
REMARK  status: ('A' for Active; 'I' for Inactive)
REMARK    1  A    between atoms: C_2  and  C_3 
REMARK    2  A    between atoms: C_4  and  N_5 
REMARK       I    between atoms: N_5  and  C_6 
REMARK    3  A    between atoms: C_6  and  C_7 
REMARK    4  A    between atoms: C_7  and  S_8 
REMARK    5  A    between atoms: S_8  and  C_9 
REMARK    6  A    between atoms: C_13  and  C_14 
REMARK       I    between atoms: C_14  and  N_15 
REMARK    7  A    between atoms: N_15  and  C_16 
REMARK    8  A    between atoms: C_17  and  O_18 
REMARK    9  A    between atoms: C_25  and  C_26 
ROOT
HETATM    1  C   UNL     1      40.751  -9.446   3.927  1.00  0.00     0.088 C 
HETATM    2  N   UNL     1      42.007  -9.927   3.589  1.00  0.00    -0.353 N 
HETATM    3  C   UNL     1      42.689 -10.877   4.346  1.00  0.00     0.019 C 
HETATM    4  C   UNL     1      43.589 -11.770   3.527  1.00  0.00     0.069 C 
HETATM    5  C   UNL     1      42.397 -11.025   5.662  1.00  0.00     0.046 C 
HETATM    6  C   UNL     1      41.217 -10.224   6.256  1.00  0.00     0.106 C 
HETATM    7  C   UNL     1      40.325  -9.551   5.206  1.00  0.00     0.069 C 
HETATM    8  C   UNL     1      39.014  -9.168   5.623  1.00  0.00     0.099 C 
HETATM    9  N   UNL     1      37.954  -8.859   5.980  1.00  0.00    -0.192 NA
HETATM   10  H   UNL     1      42.123 -10.010   2.581  1.00  0.00     0.166 HD
ENDROOT
BRANCH   1  11
HETATM   11  S   UNL     1      39.689  -8.949   2.628  1.00  0.00    -0.102 SA
BRANCH  11  12
HETATM   12  C   UNL     1      38.725 -10.456   2.293  1.00  0.00     0.184 C 
BRANCH  12  13
HETATM   13  C   UNL     1      39.382 -11.175   1.116  1.00  0.00     0.231 C 
HETATM   14  N   UNL     1      38.652 -12.275   0.685  1.00  0.00    -0.326 N 
HETATM   15  H   UNL     1      37.901 -12.573   1.291  1.00  0.00     0.169 HD
HETATM   16  O   UNL     1      40.446 -10.785   0.645  1.00  0.00    -0.272 OA
BRANCH  14  17
HETATM   17  C   UNL     1      38.748 -12.941  -0.559  1.00  0.00     0.041 A 
HETATM   18  C   UNL     1      39.616 -14.050  -0.683  1.00  0.00    -0.032 A 
HETATM   19  C   UNL     1      39.623 -14.785  -1.885  1.00  0.00     0.009 A 
HETATM   20  C   UNL     1      38.804 -14.425  -2.952  1.00  0.00     0.001 A 
HETATM   21  C   UNL     1      37.970 -13.321  -2.836  1.00  0.00     0.002 A 
HETATM   22  C   UNL     1      37.944 -12.584  -1.649  1.00  0.00     0.030 A 
BRANCH  18  23
HETATM   23  C   UNL     1      40.552 -14.502   0.417  1.00  0.00     0.036 C 
HETATM   24  C   UNL     1      39.980 -15.654   1.228  1.00  0.00     0.010 C 
ENDBRANCH  18  23
ENDBRANCH  14  17
ENDBRANCH  12  13
ENDBRANCH  11  12
ENDBRANCH   1  11
BRANCH   6  25
HETATM   25  C   UNL     1      41.610  -9.240   7.356  1.00  0.00    -0.044 A 
HETATM   26  C   UNL     1      42.487  -8.174   7.119  1.00  0.00     0.008 A 
HETATM   27  C   UNL     1      42.766  -7.248   8.128  1.00  0.00     0.001 A 
HETATM   28  C   UNL     1      42.171  -7.374   9.382  1.00  0.00     0.000 A 
HETATM   29  C   UNL     1      41.294  -8.426   9.631  1.00  0.00     0.001 A 
HETATM   30  C   UNL     1      41.016  -9.353   8.626  1.00  0.00     0.008 A 
ENDBRANCH   6  25
BRANCH   5  31
HETATM   31  C   UNL     1      42.858 -12.141   6.553  1.00  0.00     0.255 C 
HETATM   32  N   UNL     1      43.901 -12.088   7.422  1.00  0.00    -0.321 N 
HETATM   33  H   UNL     1      44.205 -13.030   7.641  1.00  0.00     0.169 HD
HETATM   34  O   UNL     1      42.334 -13.253   6.409  1.00  0.00    -0.268 OA
BRANCH  32  35
HETATM   35  C   UNL     1      44.625 -11.063   8.050  1.00  0.00     0.068 A 
HETATM   36  C   UNL     1      44.451 -10.628   9.368  1.00  0.00     0.095 A 
HETATM   37  C   UNL     1      45.193  -9.537   9.846  1.00  0.00     0.039 A 
HETATM   38  C   UNL     1      46.157  -8.928   9.042  1.00  0.00     0.003 A 
HETATM   39  C   UNL     1      46.394  -9.411   7.760  1.00  0.00     0.002 A 
HETATM   40  C   UNL     1      45.640 -10.479   7.274  1.00  0.00     0.032 A 
BRANCH  36  41
HETATM   41  O   UNL     1      43.590 -11.306  10.189  1.00  0.00    -0.354 OA
HETATM   42  C   UNL     1      43.598 -10.793  11.524  1.00  0.00     0.210 C 
ENDBRANCH  36  41
ENDBRANCH  32  35
ENDBRANCH   5  31
TORSDOF 9
ENDMDL
MODEL 7
REMARK VINA RESULT:      -8.2      5.479      8.835
REMARK  9 active torsions:
REMARK  status: ('A' for Active; 'I' for Inactive)
REMARK    1  A    between atoms: C_2  and  C_3 
REMARK    2  A    between atoms: C_4  and  N_5 
REMARK       I    between atoms: N_5  and  C_6 
REMARK    3  A    between atoms: C_6  and  C_7 
REMARK    4  A    between atoms: C_7  and  S_8 
REMARK    5  A    between atoms: S_8  and  C_9 
REMARK    6  A    between atoms: C_13  and  C_14 
REMARK       I    between atoms: C_14  and  N_15 
REMARK    7  A    between atoms: N_15  and  C_16 
REMARK    8  A    between atoms: C_17  and  O_18 
REMARK    9  A    between atoms: C_25  and  C_26 
ROOT
HETATM    1  C   UNL     1      39.786 -12.428   1.226  1.00  0.00     0.088 C 
HETATM    2  N   UNL     1      38.851 -12.641   0.225  1.00  0.00    -0.353 N 
HETATM    3  C   UNL     1      39.152 -12.546  -1.133  1.00  0.00     0.019 C 
HETATM    4  C   UNL     1      38.327 -13.465  -2.000  1.00  0.00     0.069 C 
HETATM    5  C   UNL     1      40.208 -11.796  -1.537  1.00  0.00     0.046 C 
HETATM    6  C   UNL     1      41.130 -11.173  -0.467  1.00  0.00     0.106 C 
HETATM    7  C   UNL     1      40.899 -11.712   0.950  1.00  0.00     0.069 C 
HETATM    8  C   UNL     1      41.956 -11.522   1.892  1.00  0.00     0.099 C 
HETATM    9  N   UNL     1      42.822 -11.356   2.646  1.00  0.00    -0.192 NA
HETATM   10  H   UNL     1      38.189 -13.373   0.472  1.00  0.00     0.166 HD
ENDROOT
BRANCH   1  11
HETATM   11  S   UNL     1      39.589 -13.304   2.728  1.00  0.00    -0.102 SA
BRANCH  11  12
HETATM   12  C   UNL     1      39.669 -15.043   2.197  1.00  0.00     0.184 C 
BRANCH  12  13
HETATM   13  C   UNL     1      41.134 -15.474   2.239  1.00  0.00     0.231 C 
HETATM   14  N   UNL     1      41.406 -16.348   3.284  1.00  0.00    -0.326 N 
HETATM   15  H   UNL     1      40.680 -16.447   3.979  1.00  0.00     0.169 HD
HETATM   16  O   UNL     1      41.944 -15.056   1.418  1.00  0.00    -0.272 OA
BRANCH  14  17
HETATM   17  C   UNL     1      42.517 -17.213   3.418  1.00  0.00     0.041 A 
HETATM   18  C   UNL     1      43.292 -17.163   4.599  1.00  0.00    -0.032 A 
HETATM   19  C   UNL     1      44.324 -18.103   4.784  1.00  0.00     0.009 A 
HETATM   20  C   UNL     1      44.601 -19.065   3.816  1.00  0.00     0.001 A 
HETATM   21  C   UNL     1      43.853 -19.097   2.645  1.00  0.00     0.002 A 
HETATM   22  C   UNL     1      42.821 -18.176   2.448  1.00  0.00     0.030 A 
BRANCH  18  23
HETATM   23  C   UNL     1      43.073 -16.143   5.695  1.00  0.00     0.036 C 
HETATM   24  C   UNL     1      44.319 -15.923   6.540  1.00  0.00     0.010 C 
ENDBRANCH  18  23
ENDBRANCH  14  17
ENDBRANCH  12  13
ENDBRANCH  11  12
ENDBRANCH   1  11
BRANCH   6  25
HETATM   25  C   UNL     1      41.167  -9.646  -0.475  1.00  0.00    -0.044 A 
HETATM   26  C   UNL     1      42.333  -8.934  -0.785  1.00  0.00     0.008 A 
HETATM   27  C   UNL     1      42.312  -7.538  -0.857  1.00  0.00     0.001 A 
HETATM   28  C   UNL     1      41.129  -6.839  -0.623  1.00  0.00     0.000 A 
HETATM   29  C   UNL     1      39.963  -7.534  -0.318  1.00  0.00     0.001 A 
HETATM   30  C   UNL     1      39.981  -8.927  -0.243  1.00  0.00     0.008 A 
ENDBRANCH   6  25
BRANCH   5  31
HETATM   31  C   UNL     1      40.806 -11.777  -2.913  1.00  0.00     0.255 C 
HETATM   32  N   UNL     1      40.568 -10.844  -3.873  1.00  0.00    -0.321 N 
HETATM   33  H   UNL     1      40.811 -11.225  -4.780  1.00  0.00     0.169 HD
HETATM   34  O   UNL     1      41.479 -12.753  -3.267  1.00  0.00    -0.268 OA
BRANCH  32  35
HETATM   35  C   UNL     1      40.074  -9.531  -3.887  1.00  0.00     0.068 A 
HETATM   36  C   UNL     1      38.746  -9.154  -3.662  1.00  0.00     0.095 A 
HETATM   37  C   UNL     1      38.374  -7.806  -3.783  1.00  0.00     0.039 A 
HETATM   38  C   UNL     1      39.331  -6.827  -4.052  1.00  0.00     0.003 A 
HETATM   39  C   UNL     1      40.667  -7.186  -4.192  1.00  0.00     0.002 A 
HETATM   40  C   UNL     1      41.036  -8.529  -4.098  1.00  0.00     0.032 A 
BRANCH  36  41
HETATM   41  O   UNL     1      37.836 -10.103  -3.280  1.00  0.00    -0.354 OA
HETATM   42  C   UNL     1      36.927  -9.614  -2.292  1.00  0.00     0.210 C 
ENDBRANCH  36  41
ENDBRANCH  32  35
ENDBRANCH   5  31
TORSDOF 9
ENDMDL
MODEL 8
REMARK VINA RESULT:      -8.1      2.649      9.703
REMARK  9 active torsions:
REMARK  status: ('A' for Active; 'I' for Inactive)
REMARK    1  A    between atoms: C_2  and  C_3 
REMARK    2  A    between atoms: C_4  and  N_5 
REMARK       I    between atoms: N_5  and  C_6 
REMARK    3  A    between atoms: C_6  and  C_7 
REMARK    4  A    between atoms: C_7  and  S_8 
REMARK    5  A    between atoms: S_8  and  C_9 
REMARK    6  A    between atoms: C_13  and  C_14 
REMARK       I    between atoms: C_14  and  N_15 
REMARK    7  A    between atoms: N_15  and  C_16 
REMARK    8  A    between atoms: C_17  and  O_18 
REMARK    9  A    between atoms: C_25  and  C_26 
ROOT
HETATM    1  C   UNL     1      40.359 -10.194   7.022  1.00  0.00     0.088 C 
HETATM    2  N   UNL     1      39.578  -9.693   8.052  1.00  0.00    -0.353 N 
HETATM    3  C   UNL     1      39.842  -8.483   8.691  1.00  0.00     0.019 C 
HETATM    4  C   UNL     1      38.604  -7.782   9.194  1.00  0.00     0.069 C 
HETATM    5  C   UNL     1      41.100  -7.976   8.678  1.00  0.00     0.046 C 
HETATM    6  C   UNL     1      42.182  -8.692   7.840  1.00  0.00     0.106 C 
HETATM    7  C   UNL     1      41.631  -9.755   6.882  1.00  0.00     0.069 C 
HETATM    8  C   UNL     1      42.474 -10.146   5.798  1.00  0.00     0.099 C 
HETATM    9  N   UNL     1      43.173 -10.455   4.925  1.00  0.00    -0.192 NA
HETATM   10  H   UNL     1      38.592  -9.909   7.921  1.00  0.00     0.166 HD
ENDROOT
BRANCH   1  11
HETATM   11  S   UNL     1      39.577 -11.187   5.812  1.00  0.00    -0.102 SA
BRANCH  11  12
HETATM   12  C   UNL     1      40.269 -12.838   6.132  1.00  0.00     0.184 C 
BRANCH  12  13
HETATM   13  C   UNL     1      40.618 -13.465   4.783  1.00  0.00     0.231 C 
HETATM   14  N   UNL     1      41.892 -14.018   4.762  1.00  0.00    -0.326 N 
HETATM   15  H   UNL     1      42.487 -13.788   5.544  1.00  0.00     0.169 HD
HETATM   16  O   UNL     1      39.824 -13.447   3.847  1.00  0.00    -0.272 OA
BRANCH  14  17
HETATM   17  C   UNL     1      42.405 -14.969   3.849  1.00  0.00     0.041 A 
HETATM   18  C   UNL     1      42.443 -16.332   4.220  1.00  0.00    -0.032 A 
HETATM   19  C   UNL     1      42.842 -17.292   3.271  1.00  0.00     0.009 A 
HETATM   20  C   UNL     1      43.214 -16.916   1.982  1.00  0.00     0.001 A 
HETATM   21  C   UNL     1      43.199 -15.573   1.627  1.00  0.00     0.002 A 
HETATM   22  C   UNL     1      42.799 -14.608   2.554  1.00  0.00     0.030 A 
BRANCH  18  23
HETATM   23  C   UNL     1      42.073 -16.828   5.602  1.00  0.00     0.036 C 
HETATM   24  C   UNL     1      43.212 -17.582   6.272  1.00  0.00     0.010 C 
ENDBRANCH  18  23
ENDBRANCH  14  17
ENDBRANCH  12  13
ENDBRANCH  11  12
ENDBRANCH   1  11
BRANCH   6  25
HETATM   25  C   UNL     1      43.354  -9.239   8.652  1.00  0.00    -0.044 A 
HETATM   26  C   UNL     1      44.678  -8.866   8.387  1.00  0.00     0.008 A 
HETATM   27  C   UNL     1      45.720  -9.326   9.199  1.00  0.00     0.001 A 
HETATM   28  C   UNL     1      45.451 -10.161  10.282  1.00  0.00     0.000 A 
HETATM   29  C   UNL     1      44.140 -10.537  10.559  1.00  0.00     0.001 A 
HETATM   30  C   UNL     1      43.098 -10.081   9.749  1.00  0.00     0.008 A 
ENDBRANCH   6  25
BRANCH   5  31
HETATM   31  C   UNL     1      41.504  -6.595   9.103  1.00  0.00     0.255 C 
HETATM   32  N   UNL     1      41.588  -6.147  10.384  1.00  0.00    -0.321 N 
HETATM   33  H   UNL     1      41.550  -5.134  10.390  1.00  0.00     0.169 HD
HETATM   34  O   UNL     1      41.658  -5.738   8.223  1.00  0.00    -0.268 OA
BRANCH  32  35
HETATM   35  C   UNL     1      41.702  -6.750  11.646  1.00  0.00     0.068 A 
HETATM   36  C   UNL     1      40.691  -6.826  12.609  1.00  0.00     0.095 A 
HETATM   37  C   UNL     1      40.965  -7.392  13.864  1.00  0.00     0.039 A 
HETATM   38  C   UNL     1      42.217  -7.945  14.135  1.00  0.00     0.003 A 
HETATM   39  C   UNL     1      43.199  -7.948  13.151  1.00  0.00     0.002 A 
HETATM   40  C   UNL     1      42.937  -7.363  11.911  1.00  0.00     0.032 A 
BRANCH  36  41
HETATM   41  O   UNL     1      39.431  -6.390  12.295  1.00  0.00    -0.354 OA
HETATM   42  C   UNL     1      38.420  -7.080  13.033  1.00  0.00     0.210 C 
ENDBRANCH  36  41
ENDBRANCH  32  35
ENDBRANCH   5  31
TORSDOF 9
ENDMDL
MODEL 9
REMARK VINA RESULT:      -7.8      4.415      7.539
REMARK  9 active torsions:
REMARK  status: ('A' for Active; 'I' for Inactive)
REMARK    1  A    between atoms: C_2  and  C_3 
REMARK    2  A    between atoms: C_4  and  N_5 
REMARK       I    between atoms: N_5  and  C_6 
REMARK    3  A    between atoms: C_6  and  C_7 
REMARK    4  A    between atoms: C_7  and  S_8 
REMARK    5  A    between atoms: S_8  and  C_9 
REMARK    6  A    between atoms: C_13  and  C_14 
REMARK       I    between atoms: C_14  and  N_15 
REMARK    7  A    between atoms: N_15  and  C_16 
REMARK    8  A    between atoms: C_17  and  O_18 
REMARK    9  A    between atoms: C_25  and  C_26 
ROOT
HETATM    1  C   UNL     1      39.777 -11.578   3.182  1.00  0.00     0.088 C 
HETATM    2  N   UNL     1      39.514 -10.223   3.057  1.00  0.00    -0.353 N 
HETATM    3  C   UNL     1      38.498  -9.715   2.250  1.00  0.00     0.019 C 
HETATM    4  C   UNL     1      37.902  -8.428   2.766  1.00  0.00     0.069 C 
HETATM    5  C   UNL     1      38.039 -10.447   1.204  1.00  0.00     0.046 C 
HETATM    6  C   UNL     1      38.566 -11.888   1.017  1.00  0.00     0.106 C 
HETATM    7  C   UNL     1      39.355 -12.427   2.217  1.00  0.00     0.069 C 
HETATM    8  C   UNL     1      39.500 -13.844   2.308  1.00  0.00     0.099 C 
HETATM    9  N   UNL     1      39.613 -14.998   2.365  1.00  0.00    -0.192 NA
HETATM   10  H   UNL     1      39.663  -9.725   3.932  1.00  0.00     0.166 HD
ENDROOT
BRANCH   1  11
HETATM   11  S   UNL     1      40.430 -12.147   4.703  1.00  0.00    -0.102 SA
BRANCH  11  12
HETATM   12  C   UNL     1      42.123 -11.481   4.692  1.00  0.00     0.184 C 
BRANCH  12  13
HETATM   13  C   UNL     1      43.023 -12.511   4.011  1.00  0.00     0.231 C 
HETATM   14  N   UNL     1      42.640 -13.819   4.279  1.00  0.00    -0.326 N 
HETATM   15  H   UNL     1      41.956 -13.938   5.012  1.00  0.00     0.169 HD
HETATM   16  O   UNL     1      43.976 -12.165   3.319  1.00  0.00    -0.272 OA
BRANCH  14  17
HETATM   17  C   UNL     1      42.991 -14.985   3.560  1.00  0.00     0.041 A 
HETATM   18  C   UNL     1      43.190 -16.195   4.263  1.00  0.00    -0.032 A 
HETATM   19  C   UNL     1      43.422 -17.381   3.538  1.00  0.00     0.009 A 
HETATM   20  C   UNL     1      43.474 -17.373   2.147  1.00  0.00     0.001 A 
HETATM   21  C   UNL     1      43.302 -16.178   1.460  1.00  0.00     0.002 A 
HETATM   22  C   UNL     1      43.064 -14.994   2.162  1.00  0.00     0.030 A 
BRANCH  18  23
HETATM   23  C   UNL     1      43.167 -16.294   5.773  1.00  0.00     0.036 C 
HETATM   24  C   UNL     1      44.564 -16.365   6.371  1.00  0.00     0.010 C 
ENDBRANCH  18  23
ENDBRANCH  14  17
ENDBRANCH  12  13
ENDBRANCH  11  12
ENDBRANCH   1  11
BRANCH   6  25
HETATM   25  C   UNL     1      39.324 -12.120  -0.288  1.00  0.00    -0.044 A 
HETATM   26  C   UNL     1      38.791 -12.893  -1.328  1.00  0.00     0.008 A 
HETATM   27  C   UNL     1      39.479 -13.023  -2.538  1.00  0.00     0.001 A 
HETATM   28  C   UNL     1      40.702 -12.382  -2.724  1.00  0.00     0.000 A 
HETATM   29  C   UNL     1      41.242 -11.608  -1.701  1.00  0.00     0.001 A 
HETATM   30  C   UNL     1      40.559 -11.479  -0.491  1.00  0.00     0.008 A 
ENDBRANCH   6  25
BRANCH   5  31
HETATM   31  C   UNL     1      36.811 -10.161   0.391  1.00  0.00     0.255 C 
HETATM   32  N   UNL     1      36.783  -9.552  -0.823  1.00  0.00    -0.321 N 
HETATM   33  H   UNL     1      35.854  -9.185  -0.996  1.00  0.00     0.169 HD
HETATM   34  O   UNL     1      35.708 -10.376   0.910  1.00  0.00    -0.268 OA
BRANCH  32  35
HETATM   35  C   UNL     1      37.717  -9.320  -1.845  1.00  0.00     0.068 A 
HETATM   36  C   UNL     1      37.653  -9.837  -3.143  1.00  0.00     0.095 A 
HETATM   37  C   UNL     1      38.699  -9.587  -4.045  1.00  0.00     0.039 A 
HETATM   38  C   UNL     1      39.768  -8.767  -3.683  1.00  0.00     0.003 A 
HETATM   39  C   UNL     1      39.794  -8.181  -2.422  1.00  0.00     0.002 A 
HETATM   40  C   UNL     1      38.768  -8.449  -1.514  1.00  0.00     0.032 A 
BRANCH  36  41
HETATM   41  O   UNL     1      36.545 -10.542  -3.530  1.00  0.00    -0.354 OA
HETATM   42  C   UNL     1      35.653  -9.755  -4.324  1.00  0.00     0.210 C 
ENDBRANCH  36  41
ENDBRANCH  32  35
ENDBRANCH   5  31
TORSDOF 9
ENDMDL
MODEL 10
REMARK VINA RESULT:      -7.7     18.427     20.611
REMARK  9 active torsions:
REMARK  status: ('A' for Active; 'I' for Inactive)
REMARK    1  A    between atoms: C_2  and  C_3 
REMARK    2  A    between atoms: C_4  and  N_5 
REMARK       I    between atoms: N_5  and  C_6 
REMARK    3  A    between atoms: C_6  and  C_7 
REMARK    4  A    between atoms: C_7  and  S_8 
REMARK    5  A    between atoms: S_8  and  C_9 
REMARK    6  A    between atoms: C_13  and  C_14 
REMARK       I    between atoms: C_14  and  N_15 
REMARK    7  A    between atoms: N_15  and  C_16 
REMARK    8  A    between atoms: C_17  and  O_18 
REMARK    9  A    between atoms: C_25  and  C_26 
ROOT
HETATM    1  C   UNL     1      44.723 -33.469   0.992  1.00  0.00     0.088 C 
HETATM    2  N   UNL     1      44.241 -33.039  -0.234  1.00  0.00    -0.353 N 
HETATM    3  C   UNL     1      43.825 -31.731  -0.474  1.00  0.00     0.019 C 
HETATM    4  C   UNL     1      44.041 -31.279  -1.897  1.00  0.00     0.069 C 
HETATM    5  C   UNL     1      43.423 -30.952   0.561  1.00  0.00     0.046 C 
HETATM    6  C   UNL     1      43.564 -31.497   2.000  1.00  0.00     0.106 C 
HETATM    7  C   UNL     1      44.414 -32.769   2.108  1.00  0.00     0.069 C 
HETATM    8  C   UNL     1      44.941 -33.085   3.396  1.00  0.00     0.099 C 
HETATM    9  N   UNL     1      45.358 -33.329   4.451  1.00  0.00    -0.192 NA
HETATM   10  H   UNL     1      44.720 -33.491  -1.010  1.00  0.00     0.166 HD
ENDROOT
BRANCH   1  11
HETATM   11  S   UNL     1      45.907 -34.758   0.999  1.00  0.00    -0.102 SA
BRANCH  11  12
HETATM   12  C   UNL     1      47.294 -34.041   0.065  1.00  0.00     0.184 C 
BRANCH  12  13
HETATM   13  C   UNL     1      47.528 -32.626   0.594  1.00  0.00     0.231 C 
HETATM   14  N   UNL     1      48.029 -32.614   1.889  1.00  0.00    -0.326 N 
HETATM   15  H   UNL     1      48.007 -33.495   2.381  1.00  0.00     0.169 HD
HETATM   16  O   UNL     1      47.274 -31.641  -0.092  1.00  0.00    -0.272 OA
BRANCH  14  17
HETATM   17  C   UNL     1      48.689 -31.551   2.548  1.00  0.00     0.041 A 
HETATM   18  C   UNL     1      50.004 -31.209   2.160  1.00  0.00    -0.032 A 
HETATM   19  C   UNL     1      50.617 -30.077   2.733  1.00  0.00     0.009 A 
HETATM   20  C   UNL     1      49.954 -29.305   3.683  1.00  0.00     0.001 A 
HETATM   21  C   UNL     1      48.670 -29.657   4.079  1.00  0.00     0.002 A 
HETATM   22  C   UNL     1      48.044 -30.772   3.517  1.00  0.00     0.030 A 
BRANCH  18  23
HETATM   23  C   UNL     1      50.807 -32.000   1.149  1.00  0.00     0.036 C 
HETATM   24  C   UNL     1      51.130 -31.190  -0.097  1.00  0.00     0.010 C 
ENDBRANCH  18  23
ENDBRANCH  14  17
ENDBRANCH  12  13
ENDBRANCH  11  12
ENDBRANCH   1  11
BRANCH   6  25
HETATM   25  C   UNL     1      42.244 -31.652   2.751  1.00  0.00    -0.044 A 
HETATM   26  C   UNL     1      41.309 -32.639   2.411  1.00  0.00     0.008 A 
HETATM   27  C   UNL     1      40.145 -32.803   3.167  1.00  0.00     0.001 A 
HETATM   28  C   UNL     1      39.903 -31.987   4.271  1.00  0.00     0.000 A 
HETATM   29  C   UNL     1      40.824 -31.005   4.623  1.00  0.00     0.001 A 
HETATM   30  C   UNL     1      41.986 -30.838   3.868  1.00  0.00     0.008 A 
ENDBRANCH   6  25
BRANCH   5  31
HETATM   31  C   UNL     1      43.173 -29.473   0.514  1.00  0.00     0.255 C 
HETATM   32  N   UNL     1      44.122 -28.509   0.380  1.00  0.00    -0.321 N 
HETATM   33  H   UNL     1      43.750 -27.623   0.705  1.00  0.00     0.169 HD
HETATM   34  O   UNL     1      42.026 -29.070   0.742  1.00  0.00    -0.268 OA
BRANCH  32  35
HETATM   35  C   UNL     1      45.446 -28.470  -0.083  1.00  0.00     0.068 A 
HETATM   36  C   UNL     1      45.842 -28.280  -1.411  1.00  0.00     0.095 A 
HETATM   37  C   UNL     1      47.204 -28.340  -1.747  1.00  0.00     0.039 A 
HETATM   38  C   UNL     1      48.172 -28.514  -0.757  1.00  0.00     0.003 A 
HETATM   39  C   UNL     1      47.788 -28.618   0.575  1.00  0.00     0.002 A 
HETATM   40  C   UNL     1      46.434 -28.584   0.909  1.00  0.00     0.032 A 
BRANCH  36  41
HETATM   41  O   UNL     1      44.897 -27.990  -2.358  1.00  0.00    -0.354 OA
HETATM   42  C   UNL     1      45.350 -28.284  -3.682  1.00  0.00     0.210 C 
ENDBRANCH  36  41
ENDBRANCH  32  35
ENDBRANCH   5  31
TORSDOF 9
ENDMDL
