MODEL 1
REMARK VINA RESULT:      -8.8      0.000      0.000
REMARK  11 active torsions:
REMARK  status: ('A' for Active; 'I' for Inactive)
REMARK    1  A    between atoms: C_2  and  C_3 
REMARK    2  A    between atoms: C_3  and  C_4 
REMARK    3  A    between atoms: C_4  and  O_5 
REMARK    4  A    between atoms: O_5  and  C_6 
REMARK    5  A    between atoms: C_8  and  C_9 
REMARK       I    between atoms: C_9  and  N_10 
REMARK    6  A    between atoms: N_10  and  C_11 
REMARK    7  A    between atoms: C_11  and  N_12 
REMARK    8  A    between atoms: N_12  and  C_13 
REMARK    9  A    between atoms: C_15  and  O_16 
REMARK   10  A    between atoms: C_17  and  C_18 
REMARK   11  A    between atoms: C_25  and  C_26 
ROOT
HETATM    1  C   UNL     1      40.204 -10.788   6.284  1.00  0.00     0.036 C 
HETATM    2  C   UNL     1      39.614 -12.047   6.392  1.00  0.00     0.067 C 
HETATM    3  C   UNL     1      40.305 -13.194   5.998  1.00  0.00     0.082 C 
HETATM    4  C   UNL     1      41.611 -13.106   5.501  1.00  0.00     0.050 C 
HETATM    5  C   UNL     1      42.253 -11.856   5.572  1.00  0.00     0.021 C 
HETATM    6  C   UNL     1      41.561 -10.706   5.975  1.00  0.00     0.030 C 
ENDROOT
BRANCH   1   7
HETATM    7  N   UNL     1      39.478  -9.587   6.438  1.00  0.00    -0.333 N 
HETATM    8  H   UNL     1      38.493  -9.617   6.173  1.00  0.00     0.168 HD
BRANCH   7   9
HETATM    9  C   UNL     1      39.810  -8.500   7.218  1.00  0.00     0.179 C 
HETATM   10  S   UNL     1      39.896  -6.874   6.814  1.00  0.00    -0.040 SA
BRANCH   9  11
HETATM   11  N   UNL     1      40.175  -8.783   8.516  1.00  0.00    -0.299 N 
HETATM   12  C   UNL     1      39.564  -9.568   9.481  1.00  0.00     0.257 C 
HETATM   13  O   UNL     1      38.478 -10.121   9.351  1.00  0.00    -0.267 OA
HETATM   14  H   UNL     1      41.048  -8.333   8.760  1.00  0.00     0.171 HD
BRANCH  12  15
HETATM   15  C   UNL     1      40.337  -9.653  10.749  1.00  0.00     0.035 A 
HETATM   16  C   UNL     1      41.707  -9.360  10.761  1.00  0.00     0.053 A 
HETATM   17  C   UNL     1      42.389  -9.310  11.974  1.00  0.00     0.069 A 
HETATM   18  C   UNL     1      41.735  -9.625  13.163  1.00  0.00     0.037 A 
HETATM   19  C   UNL     1      40.378  -9.954  13.145  1.00  0.00     0.004 A 
HETATM   20  C   UNL     1      39.673  -9.967  11.938  1.00  0.00     0.017 A 
BRANCH  17  21
HETATM   21  O   UNL     1      43.720  -9.004  12.023  1.00  0.00    -0.351 OA
BRANCH  21  22
HETATM   22  C   UNL     1      44.309  -8.919  10.715  1.00  0.00     0.175 C 
BRANCH  22  23
HETATM   23  C   UNL     1      45.160 -10.155  10.422  1.00  0.00     0.026 C 
BRANCH  23  24
HETATM   24  C   UNL     1      45.502 -10.290   8.937  1.00  0.00    -0.002 C 
HETATM   25  C   UNL     1      45.802  -8.935   8.313  1.00  0.00     0.005 C 
ENDBRANCH  23  24
ENDBRANCH  22  23
ENDBRANCH  21  22
ENDBRANCH  17  21
ENDBRANCH  12  15
ENDBRANCH   9  11
ENDBRANCH   7   9
ENDBRANCH   1   7
BRANCH   3  26
HETATM   26  O   UNL     1      39.662 -14.400   6.079  1.00  0.00    -0.360 OA
HETATM   27  H   UNL     1      39.085 -14.406   6.860  1.00  0.00     0.217 HD
ENDBRANCH   3  26
BRANCH   4  28
HETATM   28  C   UNL     1      42.274 -14.189   4.770  1.00  0.00     0.183 A 
HETATM   29  O   UNL     1      43.196 -14.925   5.472  1.00  0.00    -0.289 OA
HETATM   30  C   UNL     1      43.379 -16.042   4.723  1.00  0.00     0.106 A 
HETATM   31  C   UNL     1      42.600 -15.920   3.588  1.00  0.00     0.094 A 
HETATM   32  C   UNL     1      44.152 -17.148   5.047  1.00  0.00     0.040 A 
HETATM   33  N   UNL     1      41.932 -14.720   3.606  1.00  0.00    -0.221 NA
HETATM   34  C   UNL     1      42.559 -16.988   2.682  1.00  0.00     0.041 A 
HETATM   35  C   UNL     1      43.287 -18.157   2.986  1.00  0.00    -0.056 A 
HETATM   36  C   UNL     1      44.075 -18.220   4.152  1.00  0.00     0.010 A 
BRANCH  35  37
HETATM   37  C   UNL     1      43.155 -19.371   2.099  1.00  0.00     0.034 C 
HETATM   38  C   UNL     1      43.735 -20.610   2.768  1.00  0.00     0.010 C 
ENDBRANCH  35  37
ENDBRANCH   4  28
TORSDOF 11
ENDMDL
MODEL 2
REMARK VINA RESULT:      -8.7      1.787      2.684
REMARK  11 active torsions:
REMARK  status: ('A' for Active; 'I' for Inactive)
REMARK    1  A    between atoms: C_2  and  C_3 
REMARK    2  A    between atoms: C_3  and  C_4 
REMARK    3  A    between atoms: C_4  and  O_5 
REMARK    4  A    between atoms: O_5  and  C_6 
REMARK    5  A    between atoms: C_8  and  C_9 
REMARK       I    between atoms: C_9  and  N_10 
REMARK    6  A    between atoms: N_10  and  C_11 
REMARK    7  A    between atoms: C_11  and  N_12 
REMARK    8  A    between atoms: N_12  and  C_13 
REMARK    9  A    between atoms: C_15  and  O_16 
REMARK   10  A    between atoms: C_17  and  C_18 
REMARK   11  A    between atoms: C_25  and  C_26 
ROOT
HETATM    1  C   UNL     1      40.059  -9.658   6.016  1.00  0.00     0.036 C 
HETATM    2  C   UNL     1      39.386 -10.831   6.358  1.00  0.00     0.067 C 
HETATM    3  C   UNL     1      39.768 -12.057   5.810  1.00  0.00     0.082 C 
HETATM    4  C   UNL     1      40.844 -12.137   4.918  1.00  0.00     0.050 C 
HETATM    5  C   UNL     1      41.622 -10.980   4.728  1.00  0.00     0.021 C 
HETATM    6  C   UNL     1      41.242  -9.751   5.286  1.00  0.00     0.030 C 
ENDROOT
BRANCH   1   7
HETATM    7  N   UNL     1      39.574  -8.374   6.347  1.00  0.00    -0.333 N 
HETATM    8  H   UNL     1      38.716  -8.081   5.878  1.00  0.00     0.168 HD
BRANCH   7   9
HETATM    9  C   UNL     1      39.887  -7.619   7.456  1.00  0.00     0.179 C 
HETATM   10  S   UNL     1      39.235  -6.167   7.987  1.00  0.00    -0.040 SA
BRANCH   9  11
HETATM   11  N   UNL     1      40.925  -8.091   8.229  1.00  0.00    -0.299 N 
HETATM   12  C   UNL     1      40.923  -8.744   9.452  1.00  0.00     0.257 C 
HETATM   13  O   UNL     1      39.926  -8.958  10.132  1.00  0.00    -0.267 OA
HETATM   14  H   UNL     1      41.820  -7.926   7.788  1.00  0.00     0.171 HD
BRANCH  12  15
HETATM   15  C   UNL     1      42.282  -9.140   9.912  1.00  0.00     0.035 A 
HETATM   16  C   UNL     1      43.107  -9.913   9.087  1.00  0.00     0.053 A 
HETATM   17  C   UNL     1      44.423 -10.162   9.470  1.00  0.00     0.069 A 
HETATM   18  C   UNL     1      44.895  -9.711  10.701  1.00  0.00     0.037 A 
HETATM   19  C   UNL     1      44.057  -8.973  11.540  1.00  0.00     0.004 A 
HETATM   20  C   UNL     1      42.747  -8.683  11.148  1.00  0.00     0.017 A 
BRANCH  17  21
HETATM   21  O   UNL     1      45.263 -10.892   8.678  1.00  0.00    -0.351 OA
BRANCH  21  22
HETATM   22  C   UNL     1      44.917 -10.802   7.287  1.00  0.00     0.175 C 
BRANCH  22  23
HETATM   23  C   UNL     1      44.902 -12.187   6.640  1.00  0.00     0.026 C 
BRANCH  23  24
HETATM   24  C   UNL     1      43.687 -13.016   7.060  1.00  0.00    -0.002 C 
HETATM   25  C   UNL     1      43.717 -14.400   6.429  1.00  0.00     0.005 C 
ENDBRANCH  23  24
ENDBRANCH  22  23
ENDBRANCH  21  22
ENDBRANCH  17  21
ENDBRANCH  12  15
ENDBRANCH   9  11
ENDBRANCH   7   9
ENDBRANCH   1   7
BRANCH   3  26
HETATM   26  O   UNL     1      39.043 -13.171   6.141  1.00  0.00    -0.360 OA
HETATM   27  H   UNL     1      38.189 -12.899   6.516  1.00  0.00     0.217 HD
ENDBRANCH   3  26
BRANCH   4  28
HETATM   28  C   UNL     1      41.097 -13.295   4.057  1.00  0.00     0.183 A 
HETATM   29  O   UNL     1      42.040 -13.131   3.073  1.00  0.00    -0.289 OA
HETATM   30  C   UNL     1      42.343 -14.395   2.679  1.00  0.00     0.106 A 
HETATM   31  C   UNL     1      41.548 -15.263   3.404  1.00  0.00     0.094 A 
HETATM   32  C   UNL     1      43.315 -14.775   1.766  1.00  0.00     0.040 A 
HETATM   33  N   UNL     1      40.730 -14.554   4.249  1.00  0.00    -0.221 NA
HETATM   34  C   UNL     1      41.726 -16.642   3.232  1.00  0.00     0.041 A 
HETATM   35  C   UNL     1      42.735 -17.085   2.351  1.00  0.00    -0.056 A 
HETATM   36  C   UNL     1      43.506 -16.154   1.628  1.00  0.00     0.010 A 
BRANCH  35  37
HETATM   37  C   UNL     1      43.040 -18.559   2.246  1.00  0.00     0.034 C 
HETATM   38  C   UNL     1      43.896 -19.031   3.413  1.00  0.00     0.010 C 
ENDBRANCH  35  37
ENDBRANCH   4  28
TORSDOF 11
ENDMDL
MODEL 3
REMARK VINA RESULT:      -8.5      2.914      9.497
REMARK  11 active torsions:
REMARK  status: ('A' for Active; 'I' for Inactive)
REMARK    1  A    between atoms: C_2  and  C_3 
REMARK    2  A    between atoms: C_3  and  C_4 
REMARK    3  A    between atoms: C_4  and  O_5 
REMARK    4  A    between atoms: O_5  and  C_6 
REMARK    5  A    between atoms: C_8  and  C_9 
REMARK       I    between atoms: C_9  and  N_10 
REMARK    6  A    between atoms: N_10  and  C_11 
REMARK    7  A    between atoms: C_11  and  N_12 
REMARK    8  A    between atoms: N_12  and  C_13 
REMARK    9  A    between atoms: C_15  and  O_16 
REMARK   10  A    between atoms: C_17  and  C_18 
REMARK   11  A    between atoms: C_25  and  C_26 
ROOT
HETATM    1  C   UNL     1      42.365 -11.738   4.206  1.00  0.00     0.036 C 
HETATM    2  C   UNL     1      43.675 -11.810   4.679  1.00  0.00     0.067 C 
HETATM    3  C   UNL     1      44.004 -11.313   5.942  1.00  0.00     0.082 C 
HETATM    4  C   UNL     1      43.024 -10.748   6.766  1.00  0.00     0.050 C 
HETATM    5  C   UNL     1      41.683 -10.852   6.351  1.00  0.00     0.021 C 
HETATM    6  C   UNL     1      41.353 -11.358   5.086  1.00  0.00     0.030 C 
ENDROOT
BRANCH   1   7
HETATM    7  N   UNL     1      42.021 -12.001   2.863  1.00  0.00    -0.333 N 
HETATM    8  H   UNL     1      42.551 -11.492   2.153  1.00  0.00     0.168 HD
BRANCH   7   9
HETATM    9  C   UNL     1      41.334 -13.089   2.369  1.00  0.00     0.179 C 
HETATM   10  S   UNL     1      39.881 -13.155   1.534  1.00  0.00    -0.040 SA
BRANCH   9  11
HETATM   11  N   UNL     1      41.891 -14.321   2.638  1.00  0.00    -0.299 N 
HETATM   12  C   UNL     1      43.116 -14.862   2.280  1.00  0.00     0.257 C 
HETATM   13  O   UNL     1      43.936 -14.319   1.550  1.00  0.00    -0.267 OA
HETATM   14  H   UNL     1      41.275 -14.889   3.204  1.00  0.00     0.171 HD
BRANCH  12  15
HETATM   15  C   UNL     1      43.347 -16.222   2.839  1.00  0.00     0.035 A 
HETATM   16  C   UNL     1      43.655 -16.383   4.195  1.00  0.00     0.053 A 
HETATM   17  C   UNL     1      43.734 -17.666   4.734  1.00  0.00     0.069 A 
HETATM   18  C   UNL     1      43.584 -18.783   3.916  1.00  0.00     0.037 A 
HETATM   19  C   UNL     1      43.314 -18.619   2.556  1.00  0.00     0.004 A 
HETATM   20  C   UNL     1      43.193 -17.337   2.012  1.00  0.00     0.017 A 
BRANCH  17  21
HETATM   21  O   UNL     1      44.009 -17.858   6.059  1.00  0.00    -0.351 OA
BRANCH  21  22
HETATM   22  C   UNL     1      44.401 -16.643   6.717  1.00  0.00     0.175 C 
BRANCH  22  23
HETATM   23  C   UNL     1      43.267 -16.112   7.595  1.00  0.00     0.026 C 
BRANCH  23  24
HETATM   24  C   UNL     1      42.867 -14.682   7.231  1.00  0.00    -0.002 C 
HETATM   25  C   UNL     1      41.478 -14.636   6.613  1.00  0.00     0.005 C 
ENDBRANCH  23  24
ENDBRANCH  22  23
ENDBRANCH  21  22
ENDBRANCH  17  21
ENDBRANCH  12  15
ENDBRANCH   9  11
ENDBRANCH   7   9
ENDBRANCH   1   7
BRANCH   3  26
HETATM   26  O   UNL     1      45.314 -11.363   6.338  1.00  0.00    -0.360 OA
HETATM   27  H   UNL     1      45.768 -10.554   6.051  1.00  0.00     0.217 HD
ENDBRANCH   3  26
BRANCH   4  28
HETATM   28  C   UNL     1      43.328  -9.921   7.937  1.00  0.00     0.183 A 
HETATM   29  O   UNL     1      42.780  -8.663   7.956  1.00  0.00    -0.289 OA
HETATM   30  C   UNL     1      42.898  -8.262   9.247  1.00  0.00     0.106 A 
HETATM   31  C   UNL     1      43.543  -9.267   9.944  1.00  0.00     0.094 A 
HETATM   32  C   UNL     1      42.407  -7.090   9.806  1.00  0.00     0.040 A 
HETATM   33  N   UNL     1      43.850 -10.301   9.094  1.00  0.00    -0.221 NA
HETATM   34  C   UNL     1      43.718  -9.122  11.326  1.00  0.00     0.041 A 
HETATM   35  C   UNL     1      43.196  -7.972  11.954  1.00  0.00    -0.056 A 
HETATM   36  C   UNL     1      42.559  -6.974  11.192  1.00  0.00     0.010 A 
BRANCH  35  37
HETATM   37  C   UNL     1      43.252  -7.852  13.457  1.00  0.00     0.034 C 
HETATM   38  C   UNL     1      42.103  -8.606  14.114  1.00  0.00     0.010 C 
ENDBRANCH  35  37
ENDBRANCH   4  28
TORSDOF 11
ENDMDL
MODEL 4
REMARK VINA RESULT:      -8.5      1.407      1.881
REMARK  11 active torsions:
REMARK  status: ('A' for Active; 'I' for Inactive)
REMARK    1  A    between atoms: C_2  and  C_3 
REMARK    2  A    between atoms: C_3  and  C_4 
REMARK    3  A    between atoms: C_4  and  O_5 
REMARK    4  A    between atoms: O_5  and  C_6 
REMARK    5  A    between atoms: C_8  and  C_9 
REMARK       I    between atoms: C_9  and  N_10 
REMARK    6  A    between atoms: N_10  and  C_11 
REMARK    7  A    between atoms: C_11  and  N_12 
REMARK    8  A    between atoms: N_12  and  C_13 
REMARK    9  A    between atoms: C_15  and  O_16 
REMARK   10  A    between atoms: C_17  and  C_18 
REMARK   11  A    between atoms: C_25  and  C_26 
ROOT
HETATM    1  C   UNL     1      40.141 -10.869   5.103  1.00  0.00     0.036 C 
HETATM    2  C   UNL     1      40.084 -11.997   5.921  1.00  0.00     0.067 C 
HETATM    3  C   UNL     1      40.920 -13.090   5.687  1.00  0.00     0.082 C 
HETATM    4  C   UNL     1      41.845 -13.070   4.635  1.00  0.00     0.050 C 
HETATM    5  C   UNL     1      42.015 -11.859   3.939  1.00  0.00     0.021 C 
HETATM    6  C   UNL     1      41.181 -10.760   4.181  1.00  0.00     0.030 C 
ENDROOT
BRANCH   1   7
HETATM    7  N   UNL     1      39.169  -9.846   5.142  1.00  0.00    -0.333 N 
HETATM    8  H   UNL     1      38.257 -10.074   4.743  1.00  0.00     0.168 HD
BRANCH   7   9
HETATM    9  C   UNL     1      39.159  -8.727   5.947  1.00  0.00     0.179 C 
HETATM   10  S   UNL     1      38.239  -7.330   5.834  1.00  0.00    -0.040 SA
BRANCH   9  11
HETATM   11  N   UNL     1      40.075  -8.723   6.977  1.00  0.00    -0.299 N 
HETATM   12  C   UNL     1      39.945  -9.080   8.310  1.00  0.00     0.257 C 
HETATM   13  O   UNL     1      38.896  -9.415   8.847  1.00  0.00    -0.267 OA
HETATM   14  H   UNL     1      40.985  -8.412   6.661  1.00  0.00     0.171 HD
BRANCH  12  15
HETATM   15  C   UNL     1      41.217  -8.980   9.075  1.00  0.00     0.035 A 
HETATM   16  C   UNL     1      42.447  -9.044   8.408  1.00  0.00     0.053 A 
HETATM   17  C   UNL     1      43.625  -8.813   9.115  1.00  0.00     0.069 A 
HETATM   18  C   UNL     1      43.589  -8.597  10.490  1.00  0.00     0.037 A 
HETATM   19  C   UNL     1      42.364  -8.572  11.160  1.00  0.00     0.004 A 
HETATM   20  C   UNL     1      41.173  -8.762  10.454  1.00  0.00     0.017 A 
BRANCH  17  21
HETATM   21  O   UNL     1      44.840  -8.844   8.490  1.00  0.00    -0.351 OA
BRANCH  21  22
HETATM   22  C   UNL     1      45.594 -10.022   8.819  1.00  0.00     0.175 C 
BRANCH  22  23
HETATM   23  C   UNL     1      46.151 -10.680   7.557  1.00  0.00     0.026 C 
BRANCH  23  24
HETATM   24  C   UNL     1      45.048 -11.163   6.614  1.00  0.00    -0.002 C 
HETATM   25  C   UNL     1      44.127 -12.159   7.303  1.00  0.00     0.005 C 
ENDBRANCH  23  24
ENDBRANCH  22  23
ENDBRANCH  21  22
ENDBRANCH  17  21
ENDBRANCH  12  15
ENDBRANCH   9  11
ENDBRANCH   7   9
ENDBRANCH   1   7
BRANCH   3  26
HETATM   26  O   UNL     1      40.791 -14.192   6.490  1.00  0.00    -0.360 OA
HETATM   27  H   UNL     1      41.179 -14.962   6.043  1.00  0.00     0.217 HD
ENDBRANCH   3  26
BRANCH   4  28
HETATM   28  C   UNL     1      42.512 -14.269   4.121  1.00  0.00     0.183 A 
HETATM   29  O   UNL     1      43.266 -14.982   5.020  1.00  0.00    -0.289 OA
HETATM   30  C   UNL     1      43.459 -16.185   4.421  1.00  0.00     0.106 A 
HETATM   31  C   UNL     1      42.856 -16.138   3.178  1.00  0.00     0.094 A 
HETATM   32  C   UNL     1      44.088 -17.297   4.963  1.00  0.00     0.040 A 
HETATM   33  N   UNL     1      42.291 -14.903   2.978  1.00  0.00    -0.221 NA
HETATM   34  C   UNL     1      42.853 -17.295   2.388  1.00  0.00     0.041 A 
HETATM   35  C   UNL     1      43.435 -18.469   2.910  1.00  0.00    -0.056 A 
HETATM   36  C   UNL     1      44.048 -18.454   4.179  1.00  0.00     0.010 A 
BRANCH  35  37
HETATM   37  C   UNL     1      43.329 -19.762   2.140  1.00  0.00     0.034 C 
HETATM   38  C   UNL     1      43.859 -20.935   2.953  1.00  0.00     0.010 C 
ENDBRANCH  35  37
ENDBRANCH   4  28
TORSDOF 11
ENDMDL
MODEL 5
REMARK VINA RESULT:      -8.4      2.437      4.204
REMARK  11 active torsions:
REMARK  status: ('A' for Active; 'I' for Inactive)
REMARK    1  A    between atoms: C_2  and  C_3 
REMARK    2  A    between atoms: C_3  and  C_4 
REMARK    3  A    between atoms: C_4  and  O_5 
REMARK    4  A    between atoms: O_5  and  C_6 
REMARK    5  A    between atoms: C_8  and  C_9 
REMARK       I    between atoms: C_9  and  N_10 
REMARK    6  A    between atoms: N_10  and  C_11 
REMARK    7  A    between atoms: C_11  and  N_12 
REMARK    8  A    between atoms: N_12  and  C_13 
REMARK    9  A    between atoms: C_15  and  O_16 
REMARK   10  A    between atoms: C_17  and  C_18 
REMARK   11  A    between atoms: C_25  and  C_26 
ROOT
HETATM    1  C   UNL     1      39.149 -10.101   5.818  1.00  0.00     0.036 C 
HETATM    2  C   UNL     1      39.154  -9.971   4.429  1.00  0.00     0.067 C 
HETATM    3  C   UNL     1      39.426 -11.070   3.612  1.00  0.00     0.082 C 
HETATM    4  C   UNL     1      39.684 -12.328   4.169  1.00  0.00     0.050 C 
HETATM    5  C   UNL     1      39.493 -12.480   5.555  1.00  0.00     0.021 C 
HETATM    6  C   UNL     1      39.212 -11.377   6.373  1.00  0.00     0.030 C 
ENDROOT
BRANCH   1   7
HETATM    7  N   UNL     1      39.118  -8.991   6.689  1.00  0.00    -0.333 N 
HETATM    8  H   UNL     1      38.329  -8.947   7.337  1.00  0.00     0.168 HD
BRANCH   7   9
HETATM    9  C   UNL     1      40.165  -8.163   7.033  1.00  0.00     0.179 C 
HETATM   10  S   UNL     1      40.196  -6.500   7.243  1.00  0.00    -0.040 SA
BRANCH   9  11
HETATM   11  N   UNL     1      41.389  -8.777   7.181  1.00  0.00    -0.299 N 
HETATM   12  C   UNL     1      42.178  -8.972   8.304  1.00  0.00     0.257 C 
HETATM   13  O   UNL     1      41.930  -8.532   9.420  1.00  0.00    -0.267 OA
HETATM   14  H   UNL     1      41.727  -9.145   6.301  1.00  0.00     0.171 HD
BRANCH  12  15
HETATM   15  C   UNL     1      43.417  -9.749   8.028  1.00  0.00     0.035 A 
HETATM   16  C   UNL     1      43.354 -10.937   7.290  1.00  0.00     0.053 A 
HETATM   17  C   UNL     1      44.533 -11.582   6.923  1.00  0.00     0.069 A 
HETATM   18  C   UNL     1      45.765 -11.093   7.350  1.00  0.00     0.037 A 
HETATM   19  C   UNL     1      45.823  -9.928   8.119  1.00  0.00     0.004 A 
HETATM   20  C   UNL     1      44.649  -9.251   8.460  1.00  0.00     0.017 A 
BRANCH  17  21
HETATM   21  O   UNL     1      44.507 -12.730   6.183  1.00  0.00    -0.351 OA
BRANCH  21  22
HETATM   22  C   UNL     1      43.169 -13.155   5.879  1.00  0.00     0.175 C 
BRANCH  22  23
HETATM   23  C   UNL     1      42.904 -14.552   6.439  1.00  0.00     0.026 C 
BRANCH  23  24
HETATM   24  C   UNL     1      43.594 -15.649   5.627  1.00  0.00    -0.002 C 
HETATM   25  C   UNL     1      44.587 -16.426   6.479  1.00  0.00     0.005 C 
ENDBRANCH  23  24
ENDBRANCH  22  23
ENDBRANCH  21  22
ENDBRANCH  17  21
ENDBRANCH  12  15
ENDBRANCH   9  11
ENDBRANCH   7   9
ENDBRANCH   1   7
BRANCH   3  26
HETATM   26  O   UNL     1      39.467 -10.878   2.257  1.00  0.00    -0.360 OA
HETATM   27  H   UNL     1      39.309 -11.725   1.808  1.00  0.00     0.217 HD
ENDBRANCH   3  26
BRANCH   4  28
HETATM   28  C   UNL     1      40.292 -13.434   3.425  1.00  0.00     0.183 A 
HETATM   29  O   UNL     1      41.457 -13.153   2.756  1.00  0.00    -0.289 OA
HETATM   30  C   UNL     1      41.988 -14.370   2.473  1.00  0.00     0.106 A 
HETATM   31  C   UNL     1      41.111 -15.331   2.940  1.00  0.00     0.094 A 
HETATM   32  C   UNL     1      43.217 -14.629   1.882  1.00  0.00     0.040 A 
HETATM   33  N   UNL     1      40.015 -14.727   3.507  1.00  0.00    -0.221 NA
HETATM   34  C   UNL     1      41.471 -16.680   2.832  1.00  0.00     0.041 A 
HETATM   35  C   UNL     1      42.731 -16.999   2.284  1.00  0.00    -0.056 A 
HETATM   36  C   UNL     1      43.579 -15.978   1.812  1.00  0.00     0.010 A 
BRANCH  35  37
HETATM   37  C   UNL     1      43.201 -18.433   2.278  1.00  0.00     0.034 C 
HETATM   38  C   UNL     1      44.181 -18.697   3.414  1.00  0.00     0.010 C 
ENDBRANCH  35  37
ENDBRANCH   4  28
TORSDOF 11
ENDMDL
MODEL 6
REMARK VINA RESULT:      -8.3      2.451      3.655
REMARK  11 active torsions:
REMARK  status: ('A' for Active; 'I' for Inactive)
REMARK    1  A    between atoms: C_2  and  C_3 
REMARK    2  A    between atoms: C_3  and  C_4 
REMARK    3  A    between atoms: C_4  and  O_5 
REMARK    4  A    between atoms: O_5  and  C_6 
REMARK    5  A    between atoms: C_8  and  C_9 
REMARK       I    between atoms: C_9  and  N_10 
REMARK    6  A    between atoms: N_10  and  C_11 
REMARK    7  A    between atoms: C_11  and  N_12 
REMARK    8  A    between atoms: N_12  and  C_13 
REMARK    9  A    between atoms: C_15  and  O_16 
REMARK   10  A    between atoms: C_17  and  C_18 
REMARK   11  A    between atoms: C_25  and  C_26 
ROOT
HETATM    1  C   UNL     1      43.158 -11.024   7.024  1.00  0.00     0.036 C 
HETATM    2  C   UNL     1      41.961 -11.293   6.361  1.00  0.00     0.067 C 
HETATM    3  C   UNL     1      41.664 -12.584   5.922  1.00  0.00     0.082 C 
HETATM    4  C   UNL     1      42.555 -13.640   6.151  1.00  0.00     0.050 C 
HETATM    5  C   UNL     1      43.666 -13.389   6.978  1.00  0.00     0.021 C 
HETATM    6  C   UNL     1      43.958 -12.093   7.426  1.00  0.00     0.030 C 
ENDROOT
BRANCH   1   7
HETATM    7  N   UNL     1      43.615  -9.713   7.276  1.00  0.00    -0.333 N 
HETATM    8  H   UNL     1      43.050  -8.956   6.890  1.00  0.00     0.168 HD
BRANCH   7   9
HETATM    9  C   UNL     1      44.498  -9.305   8.252  1.00  0.00     0.179 C 
HETATM   10  S   UNL     1      46.166  -9.136   8.191  1.00  0.00    -0.040 SA
BRANCH   9  11
HETATM   11  N   UNL     1      43.945  -9.038   9.486  1.00  0.00    -0.299 N 
HETATM   12  C   UNL     1      43.787  -9.842  10.604  1.00  0.00     0.257 C 
HETATM   13  O   UNL     1      44.069 -11.033  10.657  1.00  0.00    -0.267 OA
HETATM   14  H   UNL     1      43.625  -8.080   9.548  1.00  0.00     0.171 HD
BRANCH  12  15
HETATM   15  C   UNL     1      43.186  -9.129  11.764  1.00  0.00     0.035 A 
HETATM   16  C   UNL     1      43.101  -7.731  11.764  1.00  0.00     0.053 A 
HETATM   17  C   UNL     1      42.415  -7.085  12.790  1.00  0.00     0.069 A 
HETATM   18  C   UNL     1      41.883  -7.815  13.850  1.00  0.00     0.037 A 
HETATM   19  C   UNL     1      42.003  -9.207  13.867  1.00  0.00     0.004 A 
HETATM   20  C   UNL     1      42.654  -9.869  12.822  1.00  0.00     0.017 A 
BRANCH  17  21
HETATM   21  O   UNL     1      42.292  -5.724  12.809  1.00  0.00    -0.351 OA
BRANCH  21  22
HETATM   22  C   UNL     1      41.785  -5.205  11.569  1.00  0.00     0.175 C 
BRANCH  22  23
HETATM   23  C   UNL     1      40.257  -5.196  11.569  1.00  0.00     0.026 C 
BRANCH  23  24
HETATM   24  C   UNL     1      39.667  -6.164  10.543  1.00  0.00    -0.002 C 
HETATM   25  C   UNL     1      39.171  -7.441  11.207  1.00  0.00     0.005 C 
ENDBRANCH  23  24
ENDBRANCH  22  23
ENDBRANCH  21  22
ENDBRANCH  17  21
ENDBRANCH  12  15
ENDBRANCH   9  11
ENDBRANCH   7   9
ENDBRANCH   1   7
BRANCH   3  26
HETATM   26  O   UNL     1      40.498 -12.785   5.233  1.00  0.00    -0.360 OA
HETATM   27  H   UNL     1      40.419 -12.117   4.532  1.00  0.00     0.217 HD
ENDBRANCH   3  26
BRANCH   4  28
HETATM   28  C   UNL     1      42.484 -14.926   5.452  1.00  0.00     0.183 A 
HETATM   29  O   UNL     1      42.074 -14.888   4.143  1.00  0.00    -0.289 OA
HETATM   30  C   UNL     1      42.435 -16.096   3.639  1.00  0.00     0.106 A 
HETATM   31  C   UNL     1      43.007 -16.825   4.665  1.00  0.00     0.094 A 
HETATM   32  C   UNL     1      42.322 -16.520   2.323  1.00  0.00     0.040 A 
HETATM   33  N   UNL     1      42.997 -16.090   5.824  1.00  0.00    -0.221 NA
HETATM   34  C   UNL     1      43.533 -18.091   4.378  1.00  0.00     0.041 A 
HETATM   35  C   UNL     1      43.489 -18.553   3.045  1.00  0.00    -0.056 A 
HETATM   36  C   UNL     1      42.882 -17.771   2.043  1.00  0.00     0.010 A 
BRANCH  35  37
HETATM   37  C   UNL     1      44.166 -19.851   2.681  1.00  0.00     0.034 C 
HETATM   38  C   UNL     1      43.476 -20.523   1.502  1.00  0.00     0.010 C 
ENDBRANCH  35  37
ENDBRANCH   4  28
TORSDOF 11
ENDMDL
MODEL 7
REMARK VINA RESULT:      -8.2      2.530      4.105
REMARK  11 active torsions:
REMARK  status: ('A' for Active; 'I' for Inactive)
REMARK    1  A    between atoms: C_2  and  C_3 
REMARK    2  A    between atoms: C_3  and  C_4 
REMARK    3  A    between atoms: C_4  and  O_5 
REMARK    4  A    between atoms: O_5  and  C_6 
REMARK    5  A    between atoms: C_8  and  C_9 
REMARK       I    between atoms: C_9  and  N_10 
REMARK    6  A    between atoms: N_10  and  C_11 
REMARK    7  A    between atoms: C_11  and  N_12 
REMARK    8  A    between atoms: N_12  and  C_13 
REMARK    9  A    between atoms: C_15  and  O_16 
REMARK   10  A    between atoms: C_17  and  C_18 
REMARK   11  A    between atoms: C_25  and  C_26 
ROOT
HETATM    1  C   UNL     1      43.043 -10.943   6.960  1.00  0.00     0.036 C 
HETATM    2  C   UNL     1      41.854 -11.205   6.281  1.00  0.00     0.067 C 
HETATM    3  C   UNL     1      41.578 -12.484   5.794  1.00  0.00     0.082 C 
HETATM    4  C   UNL     1      42.483 -13.534   5.992  1.00  0.00     0.050 C 
HETATM    5  C   UNL     1      43.585 -13.297   6.834  1.00  0.00     0.021 C 
HETATM    6  C   UNL     1      43.856 -12.014   7.329  1.00  0.00     0.030 C 
ENDROOT
BRANCH   1   7
HETATM    7  N   UNL     1      43.480  -9.635   7.261  1.00  0.00    -0.333 N 
HETATM    8  H   UNL     1      43.075  -8.883   6.702  1.00  0.00     0.168 HD
BRANCH   7   9
HETATM    9  C   UNL     1      44.093  -9.199   8.417  1.00  0.00     0.179 C 
HETATM   10  S   UNL     1      45.679  -8.722   8.678  1.00  0.00    -0.040 SA
BRANCH   9  11
HETATM   11  N   UNL     1      43.305  -9.197   9.547  1.00  0.00    -0.299 N 
HETATM   12  C   UNL     1      43.248 -10.078  10.617  1.00  0.00     0.257 C 
HETATM   13  O   UNL     1      43.887 -11.120  10.702  1.00  0.00    -0.267 OA
HETATM   14  H   UNL     1      42.688  -8.396   9.567  1.00  0.00     0.171 HD
BRANCH  12  15
HETATM   15  C   UNL     1      42.284  -9.664  11.671  1.00  0.00     0.035 A 
HETATM   16  C   UNL     1      42.748  -9.149  12.888  1.00  0.00     0.053 A 
HETATM   17  C   UNL     1      41.837  -8.640  13.811  1.00  0.00     0.069 A 
HETATM   18  C   UNL     1      40.468  -8.711  13.562  1.00  0.00     0.037 A 
HETATM   19  C   UNL     1      40.006  -9.260  12.364  1.00  0.00     0.004 A 
HETATM   20  C   UNL     1      40.912  -9.737  11.413  1.00  0.00     0.017 A 
BRANCH  17  21
HETATM   21  O   UNL     1      42.258  -8.108  14.998  1.00  0.00    -0.351 OA
BRANCH  21  22
HETATM   22  C   UNL     1      41.263  -7.268  15.603  1.00  0.00     0.175 C 
BRANCH  22  23
HETATM   23  C   UNL     1      41.050  -7.647  17.068  1.00  0.00     0.026 C 
BRANCH  23  24
HETATM   24  C   UNL     1      39.904  -6.867  17.714  1.00  0.00    -0.002 C 
HETATM   25  C   UNL     1      39.239  -5.932  16.714  1.00  0.00     0.005 C 
ENDBRANCH  23  24
ENDBRANCH  22  23
ENDBRANCH  21  22
ENDBRANCH  17  21
ENDBRANCH  12  15
ENDBRANCH   9  11
ENDBRANCH   7   9
ENDBRANCH   1   7
BRANCH   3  26
HETATM   26  O   UNL     1      40.419 -12.676   5.092  1.00  0.00    -0.360 OA
HETATM   27  H   UNL     1      39.673 -12.314   5.597  1.00  0.00     0.217 HD
ENDBRANCH   3  26
BRANCH   4  28
HETATM   28  C   UNL     1      42.434 -14.795   5.247  1.00  0.00     0.183 A 
HETATM   29  O   UNL     1      42.271 -14.697   3.888  1.00  0.00    -0.289 OA
HETATM   30  C   UNL     1      42.617 -15.922   3.416  1.00  0.00     0.106 A 
HETATM   31  C   UNL     1      42.933 -16.718   4.500  1.00  0.00     0.094 A 
HETATM   32  C   UNL     1      42.709 -16.309   2.086  1.00  0.00     0.040 A 
HETATM   33  N   UNL     1      42.775 -16.006   5.665  1.00  0.00    -0.221 NA
HETATM   34  C   UNL     1      43.397 -18.019   4.268  1.00  0.00     0.041 A 
HETATM   35  C   UNL     1      43.556 -18.449   2.934  1.00  0.00    -0.056 A 
HETATM   36  C   UNL     1      43.205 -17.598   1.867  1.00  0.00     0.010 A 
BRANCH  35  37
HETATM   37  C   UNL     1      44.179 -19.794   2.652  1.00  0.00     0.034 C 
HETATM   38  C   UNL     1      43.420 -20.536   1.561  1.00  0.00     0.010 C 
ENDBRANCH  35  37
ENDBRANCH   4  28
TORSDOF 11
ENDMDL
MODEL 8
REMARK VINA RESULT:      -8.1      3.533     11.451
REMARK  11 active torsions:
REMARK  status: ('A' for Active; 'I' for Inactive)
REMARK    1  A    between atoms: C_2  and  C_3 
REMARK    2  A    between atoms: C_3  and  C_4 
REMARK    3  A    between atoms: C_4  and  O_5 
REMARK    4  A    between atoms: O_5  and  C_6 
REMARK    5  A    between atoms: C_8  and  C_9 
REMARK       I    between atoms: C_9  and  N_10 
REMARK    6  A    between atoms: N_10  and  C_11 
REMARK    7  A    between atoms: C_11  and  N_12 
REMARK    8  A    between atoms: N_12  and  C_13 
REMARK    9  A    between atoms: C_15  and  O_16 
REMARK   10  A    between atoms: C_17  and  C_18 
REMARK   11  A    between atoms: C_25  and  C_26 
ROOT
HETATM    1  C   UNL     1      43.045  -9.113   9.724  1.00  0.00     0.036 C 
HETATM    2  C   UNL     1      42.460  -7.846   9.712  1.00  0.00     0.067 C 
HETATM    3  C   UNL     1      42.292  -7.129  10.898  1.00  0.00     0.082 C 
HETATM    4  C   UNL     1      42.723  -7.658  12.121  1.00  0.00     0.050 C 
HETATM    5  C   UNL     1      43.472  -8.848  12.089  1.00  0.00     0.021 C 
HETATM    6  C   UNL     1      43.647  -9.564  10.897  1.00  0.00     0.030 C 
ENDROOT
BRANCH   1   7
HETATM    7  N   UNL     1      43.024  -9.975   8.607  1.00  0.00    -0.333 N 
HETATM    8  H   UNL     1      42.334  -9.762   7.884  1.00  0.00     0.168 HD
BRANCH   7   9
HETATM    9  C   UNL     1      44.018 -10.833   8.189  1.00  0.00     0.179 C 
HETATM   10  S   UNL     1      45.679 -10.608   8.135  1.00  0.00    -0.040 SA
BRANCH   9  11
HETATM   11  N   UNL     1      43.593 -12.046   7.693  1.00  0.00    -0.299 N 
HETATM   12  C   UNL     1      43.594 -12.550   6.402  1.00  0.00     0.257 C 
HETATM   13  O   UNL     1      43.931 -11.924   5.404  1.00  0.00    -0.267 OA
HETATM   14  H   UNL     1      43.241 -12.644   8.429  1.00  0.00     0.171 HD
BRANCH  12  15
HETATM   15  C   UNL     1      43.093 -13.949   6.314  1.00  0.00     0.035 A 
HETATM   16  C   UNL     1      42.744 -14.496   5.073  1.00  0.00     0.053 A 
HETATM   17  C   UNL     1      42.408 -15.845   4.986  1.00  0.00     0.069 A 
HETATM   18  C   UNL     1      42.344 -16.629   6.135  1.00  0.00     0.037 A 
HETATM   19  C   UNL     1      42.656 -16.072   7.377  1.00  0.00     0.004 A 
HETATM   20  C   UNL     1      43.033 -14.730   7.471  1.00  0.00     0.017 A 
BRANCH  17  21
HETATM   21  O   UNL     1      42.085 -16.416   3.787  1.00  0.00    -0.351 OA
BRANCH  21  22
HETATM   22  C   UNL     1      43.247 -16.785   3.028  1.00  0.00     0.175 C 
BRANCH  22  23
HETATM   23  C   UNL     1      43.025 -18.114   2.306  1.00  0.00     0.026 C 
BRANCH  23  24
HETATM   24  C   UNL     1      43.732 -19.280   2.998  1.00  0.00    -0.002 C 
HETATM   25  C   UNL     1      44.598 -18.796   4.152  1.00  0.00     0.005 C 
ENDBRANCH  23  24
ENDBRANCH  22  23
ENDBRANCH  21  22
ENDBRANCH  17  21
ENDBRANCH  12  15
ENDBRANCH   9  11
ENDBRANCH   7   9
ENDBRANCH   1   7
BRANCH   3  26
HETATM   26  O   UNL     1      41.668  -5.911  10.838  1.00  0.00    -0.360 OA
HETATM   27  H   UNL     1      42.317  -5.208  11.005  1.00  0.00     0.217 HD
ENDBRANCH   3  26
BRANCH   4  28
HETATM   28  C   UNL     1      42.298  -7.136  13.423  1.00  0.00     0.183 A 
HETATM   29  O   UNL     1      41.060  -6.544  13.470  1.00  0.00    -0.289 OA
HETATM   30  C   UNL     1      40.763  -6.485  14.793  1.00  0.00     0.106 A 
HETATM   31  C   UNL     1      41.839  -7.002  15.490  1.00  0.00     0.094 A 
HETATM   32  C   UNL     1      39.574  -6.052  15.364  1.00  0.00     0.040 A 
HETATM   33  N   UNL     1      42.828  -7.375  14.613  1.00  0.00    -0.221 NA
HETATM   34  C   UNL     1      41.745  -7.120  16.882  1.00  0.00     0.041 A 
HETATM   35  C   UNL     1      40.540  -6.740  17.510  1.00  0.00    -0.056 A 
HETATM   36  C   UNL     1      39.480  -6.207  16.751  1.00  0.00     0.010 A 
BRANCH  35  37
HETATM   37  C   UNL     1      40.361  -6.980  18.989  1.00  0.00     0.034 C 
HETATM   38  C   UNL     1      39.672  -8.313  19.252  1.00  0.00     0.010 C 
ENDBRANCH  35  37
ENDBRANCH   4  28
TORSDOF 11
ENDMDL
MODEL 9
REMARK VINA RESULT:      -8.1      2.273     10.104
REMARK  11 active torsions:
REMARK  status: ('A' for Active; 'I' for Inactive)
REMARK    1  A    between atoms: C_2  and  C_3 
REMARK    2  A    between atoms: C_3  and  C_4 
REMARK    3  A    between atoms: C_4  and  O_5 
REMARK    4  A    between atoms: O_5  and  C_6 
REMARK    5  A    between atoms: C_8  and  C_9 
REMARK       I    between atoms: C_9  and  N_10 
REMARK    6  A    between atoms: N_10  and  C_11 
REMARK    7  A    between atoms: C_11  and  N_12 
REMARK    8  A    between atoms: N_12  and  C_13 
REMARK    9  A    between atoms: C_15  and  O_16 
REMARK   10  A    between atoms: C_17  and  C_18 
REMARK   11  A    between atoms: C_25  and  C_26 
ROOT
HETATM    1  C   UNL     1      40.458 -10.122   6.755  1.00  0.00     0.036 C 
HETATM    2  C   UNL     1      39.406  -9.962   7.657  1.00  0.00     0.067 C 
HETATM    3  C   UNL     1      39.651  -9.586   8.978  1.00  0.00     0.082 C 
HETATM    4  C   UNL     1      40.958  -9.346   9.422  1.00  0.00     0.050 C 
HETATM    5  C   UNL     1      41.982  -9.333   8.458  1.00  0.00     0.021 C 
HETATM    6  C   UNL     1      41.733  -9.703   7.129  1.00  0.00     0.030 C 
ENDROOT
BRANCH   1   7
HETATM    7  N   UNL     1      40.295 -10.725   5.489  1.00  0.00    -0.333 N 
HETATM    8  H   UNL     1      39.423 -10.519   4.999  1.00  0.00     0.168 HD
BRANCH   7   9
HETATM    9  C   UNL     1      41.277 -11.252   4.677  1.00  0.00     0.179 C 
HETATM   10  S   UNL     1      42.028 -10.591   3.332  1.00  0.00    -0.040 SA
BRANCH   9  11
HETATM   11  N   UNL     1      41.676 -12.536   4.977  1.00  0.00    -0.299 N 
HETATM   12  C   UNL     1      42.782 -13.005   5.669  1.00  0.00     0.257 C 
HETATM   13  O   UNL     1      43.692 -12.304   6.095  1.00  0.00    -0.267 OA
HETATM   14  H   UNL     1      41.018 -13.219   4.628  1.00  0.00     0.171 HD
BRANCH  12  15
HETATM   15  C   UNL     1      42.800 -14.485   5.820  1.00  0.00     0.035 A 
HETATM   16  C   UNL     1      42.785 -15.309   4.688  1.00  0.00     0.053 A 
HETATM   17  C   UNL     1      42.939 -16.686   4.837  1.00  0.00     0.069 A 
HETATM   18  C   UNL     1      43.030 -17.250   6.107  1.00  0.00     0.037 A 
HETATM   19  C   UNL     1      43.006 -16.429   7.237  1.00  0.00     0.004 A 
HETATM   20  C   UNL     1      42.893 -15.043   7.097  1.00  0.00     0.017 A 
BRANCH  17  21
HETATM   21  O   UNL     1      42.953 -17.516   3.752  1.00  0.00    -0.351 OA
BRANCH  21  22
HETATM   22  C   UNL     1      44.042 -18.452   3.794  1.00  0.00     0.175 C 
BRANCH  22  23
HETATM   23  C   UNL     1      43.738 -19.677   2.932  1.00  0.00     0.026 C 
BRANCH  23  24
HETATM   24  C   UNL     1      43.953 -20.990   3.686  1.00  0.00    -0.002 C 
HETATM   25  C   UNL     1      43.898 -20.779   5.192  1.00  0.00     0.005 C 
ENDBRANCH  23  24
ENDBRANCH  22  23
ENDBRANCH  21  22
ENDBRANCH  17  21
ENDBRANCH  12  15
ENDBRANCH   9  11
ENDBRANCH   7   9
ENDBRANCH   1   7
BRANCH   3  26
HETATM   26  O   UNL     1      38.588  -9.491   9.836  1.00  0.00    -0.360 OA
HETATM   27  H   UNL     1      38.452 -10.346  10.276  1.00  0.00     0.217 HD
ENDBRANCH   3  26
BRANCH   4  28
HETATM   28  C   UNL     1      41.331  -9.275  10.837  1.00  0.00     0.183 A 
HETATM   29  O   UNL     1      42.434  -8.516  11.141  1.00  0.00    -0.289 OA
HETATM   30  C   UNL     1      42.351  -8.318  12.481  1.00  0.00     0.106 A 
HETATM   31  C   UNL     1      41.234  -8.992  12.938  1.00  0.00     0.094 A 
HETATM   32  C   UNL     1      43.184  -7.530  13.263  1.00  0.00     0.040 A 
HETATM   33  N   UNL     1      40.614  -9.633  11.892  1.00  0.00    -0.221 NA
HETATM   34  C   UNL     1      40.886  -8.880  14.290  1.00  0.00     0.041 A 
HETATM   35  C   UNL     1      41.670  -8.052  15.120  1.00  0.00    -0.056 A 
HETATM   36  C   UNL     1      42.806  -7.399  14.603  1.00  0.00     0.010 A 
BRANCH  35  37
HETATM   37  C   UNL     1      41.243  -7.806  16.546  1.00  0.00     0.034 C 
HETATM   38  C   UNL     1      41.895  -6.550  17.109  1.00  0.00     0.010 C 
ENDBRANCH  35  37
ENDBRANCH   4  28
TORSDOF 11
ENDMDL
MODEL 10
REMARK VINA RESULT:      -8.0      1.812      3.335
REMARK  11 active torsions:
REMARK  status: ('A' for Active; 'I' for Inactive)
REMARK    1  A    between atoms: C_2  and  C_3 
REMARK    2  A    between atoms: C_3  and  C_4 
REMARK    3  A    between atoms: C_4  and  O_5 
REMARK    4  A    between atoms: O_5  and  C_6 
REMARK    5  A    between atoms: C_8  and  C_9 
REMARK       I    between atoms: C_9  and  N_10 
REMARK    6  A    between atoms: N_10  and  C_11 
REMARK    7  A    between atoms: C_11  and  N_12 
REMARK    8  A    between atoms: N_12  and  C_13 
REMARK    9  A    between atoms: C_15  and  O_16 
REMARK   10  A    between atoms: C_17  and  C_18 
REMARK   11  A    between atoms: C_25  and  C_26 
ROOT
HETATM    1  C   UNL     1      41.570 -11.620   5.952  1.00  0.00     0.036 C 
HETATM    2  C   UNL     1      40.705 -12.647   5.576  1.00  0.00     0.067 C 
HETATM    3  C   UNL     1      41.159 -13.964   5.489  1.00  0.00     0.082 C 
HETATM    4  C   UNL     1      42.488 -14.284   5.793  1.00  0.00     0.050 C 
HETATM    5  C   UNL     1      43.293 -13.271   6.346  1.00  0.00     0.021 C 
HETATM    6  C   UNL     1      42.834 -11.951   6.440  1.00  0.00     0.030 C 
ENDROOT
BRANCH   1   7
HETATM    7  N   UNL     1      41.236 -10.254   5.828  1.00  0.00    -0.333 N 
HETATM    8  H   UNL     1      41.270  -9.865   4.884  1.00  0.00     0.168 HD
BRANCH   7   9
HETATM    9  C   UNL     1      40.537  -9.475   6.725  1.00  0.00     0.179 C 
HETATM   10  S   UNL     1      39.157  -8.551   6.497  1.00  0.00    -0.040 SA
BRANCH   9  11
HETATM   11  N   UNL     1      41.071  -9.397   7.992  1.00  0.00    -0.299 N 
HETATM   12  C   UNL     1      42.298  -8.929   8.435  1.00  0.00     0.257 C 
HETATM   13  O   UNL     1      43.207  -8.546   7.707  1.00  0.00    -0.267 OA
HETATM   14  H   UNL     1      40.421  -9.737   8.689  1.00  0.00     0.171 HD
BRANCH  12  15
HETATM   15  C   UNL     1      42.448  -8.969   9.915  1.00  0.00     0.035 A 
HETATM   16  C   UNL     1      41.440  -9.530  10.709  1.00  0.00     0.053 A 
HETATM   17  C   UNL     1      41.650  -9.685  12.078  1.00  0.00     0.069 A 
HETATM   18  C   UNL     1      42.823  -9.217  12.667  1.00  0.00     0.037 A 
HETATM   19  C   UNL     1      43.810  -8.624  11.878  1.00  0.00     0.004 A 
HETATM   20  C   UNL     1      43.627  -8.499  10.498  1.00  0.00     0.017 A 
BRANCH  17  21
HETATM   21  O   UNL     1      40.698 -10.250  12.878  1.00  0.00    -0.351 OA
BRANCH  21  22
HETATM   22  C   UNL     1      39.394  -9.689  12.654  1.00  0.00     0.175 C 
BRANCH  22  23
HETATM   23  C   UNL     1      39.335  -8.242  13.143  1.00  0.00     0.026 C 
BRANCH  23  24
HETATM   24  C   UNL     1      38.780  -7.290  12.082  1.00  0.00    -0.002 C 
HETATM   25  C   UNL     1      37.465  -6.668  12.530  1.00  0.00     0.005 C 
ENDBRANCH  23  24
ENDBRANCH  22  23
ENDBRANCH  21  22
ENDBRANCH  17  21
ENDBRANCH  12  15
ENDBRANCH   9  11
ENDBRANCH   7   9
ENDBRANCH   1   7
BRANCH   3  26
HETATM   26  O   UNL     1      40.281 -14.928   5.067  1.00  0.00    -0.360 OA
HETATM   27  H   UNL     1      40.622 -15.340   4.256  1.00  0.00     0.217 HD
ENDBRANCH   3  26
BRANCH   4  28
HETATM   28  C   UNL     1      43.121 -15.551   5.418  1.00  0.00     0.183 A 
HETATM   29  O   UNL     1      43.241 -16.492   6.409  1.00  0.00    -0.289 OA
HETATM   30  C   UNL     1      43.503 -17.649   5.749  1.00  0.00     0.106 A 
HETATM   31  C   UNL     1      43.573 -17.357   4.400  1.00  0.00     0.094 A 
HETATM   32  C   UNL     1      43.619 -18.918   6.299  1.00  0.00     0.040 A 
HETATM   33  N   UNL     1      43.370 -16.013   4.201  1.00  0.00    -0.221 NA
HETATM   34  C   UNL     1      43.762 -18.408   3.493  1.00  0.00     0.041 A 
HETATM   35  C   UNL     1      43.838 -19.724   3.993  1.00  0.00    -0.056 A 
HETATM   36  C   UNL     1      43.774 -19.961   5.380  1.00  0.00     0.010 A 
BRANCH  35  37
HETATM   37  C   UNL     1      43.907 -20.886   3.033  1.00  0.00     0.034 C 
HETATM   38  C   UNL     1      43.549 -20.454   1.617  1.00  0.00     0.010 C 
ENDBRANCH  35  37
ENDBRANCH   4  28
TORSDOF 11
ENDMDL
