MODEL 1
REMARK VINA RESULT:      -9.4      0.000      0.000
REMARK  4 active torsions:
REMARK  status: ('A' for Active; 'I' for Inactive)
REMARK    1  A    between atoms: C_6  and  N_7 
REMARK       I    between atoms: N_7  and  C_8 
REMARK    2  A    between atoms: C_8  and  C_9 
REMARK    3  A    between atoms: C_10  and  C_11 
REMARK    4  A    between atoms: C_13  and  O_14 
ROOT
HETATM    1  C   UNL     1      42.788 -14.101   3.867  1.00  0.00     0.062 A 
HETATM    2  C   UNL     1      42.345 -15.348   4.622  1.00  0.00     0.202 A 
HETATM    3  N   UNL     1      42.693 -15.257   6.046  1.00  0.00    -0.084 N 
HETATM    4  C   UNL     1      43.336 -14.188   6.613  1.00  0.00     0.725 A 
HETATM    5  N   UNL     1      43.706 -13.153   5.839  1.00  0.00    -0.192 N 
HETATM    6  N   UNL     1      42.264 -16.121   6.993  1.00  0.00    -0.149 NA
HETATM    7  C   UNL     1      42.794 -15.569   8.090  1.00  0.00     0.275 A 
HETATM    8  N   UNL     1      43.445 -14.378   7.902  1.00  0.00    -0.054 NA
HETATM    9  C   UNL     1      43.440 -13.081   4.477  1.00  0.00     0.037 A 
HETATM   10  C   UNL     1      43.907 -11.825   3.783  1.00  0.00     0.070 C 
HETATM   11  H   UNL     1      44.188 -12.368   6.270  1.00  0.00     0.184 HD
ENDROOT
BRANCH   1  12
HETATM   12  C   UNL     1      42.581 -14.074   2.397  1.00  0.00     0.256 C 
HETATM   13  N   UNL     1      41.285 -13.766   2.041  1.00  0.00    -0.323 N 
HETATM   14  H   UNL     1      40.632 -13.585   2.789  1.00  0.00     0.169 HD
HETATM   15  O   UNL     1      43.534 -14.295   1.661  1.00  0.00    -0.267 OA
BRANCH  13  16
HETATM   16  C   UNL     1      40.766 -13.625   0.729  1.00  0.00     0.041 A 
HETATM   17  C   UNL     1      40.018 -14.686   0.175  1.00  0.00    -0.035 A 
HETATM   18  C   UNL     1      39.467 -14.546  -1.114  1.00  0.00     0.015 A 
HETATM   19  C   UNL     1      39.778 -15.979   0.910  1.00  0.00     0.050 C 
HETATM   20  C   UNL     1      39.662 -13.384  -1.867  1.00  0.00    -0.061 A 
HETATM   21  C   UNL     1      39.039 -13.227  -3.222  1.00  0.00     0.048 C 
HETATM   22  C   UNL     1      40.405 -12.344  -1.311  1.00  0.00     0.009 A 
HETATM   23  C   UNL     1      40.955 -12.466  -0.032  1.00  0.00     0.030 A 
ENDBRANCH  13  16
ENDBRANCH   1  12
BRANCH   2  24
HETATM   24  C   UNL     1      42.838 -16.669   4.039  1.00  0.00    -0.025 A 
HETATM   25  C   UNL     1      43.675 -17.542   4.759  1.00  0.00     0.046 A 
HETATM   26  C   UNL     1      44.132 -18.731   4.185  1.00  0.00     0.068 A 
HETATM   27  C   UNL     1      43.705 -19.086   2.904  1.00  0.00     0.037 A 
HETATM   28  C   UNL     1      42.853 -18.250   2.187  1.00  0.00     0.003 A 
HETATM   29  C   UNL     1      42.426 -17.047   2.748  1.00  0.00     0.010 A 
BRANCH  26  30
HETATM   30  O   UNL     1      44.977 -19.628   4.780  1.00  0.00    -0.356 OA
HETATM   31  C   UNL     1      44.371 -20.814   5.286  1.00  0.00     0.210 C 
ENDBRANCH  26  30
ENDBRANCH   2  24
TORSDOF 4
ENDMDL
MODEL 2
REMARK VINA RESULT:      -9.1     14.772     17.351
REMARK  4 active torsions:
REMARK  status: ('A' for Active; 'I' for Inactive)
REMARK    1  A    between atoms: C_6  and  N_7 
REMARK       I    between atoms: N_7  and  C_8 
REMARK    2  A    between atoms: C_8  and  C_9 
REMARK    3  A    between atoms: C_10  and  C_11 
REMARK    4  A    between atoms: C_13  and  O_14 
ROOT
HETATM    1  C   UNL     1      46.183 -28.986   0.214  1.00  0.00     0.062 A 
HETATM    2  C   UNL     1      46.711 -28.969  -1.216  1.00  0.00     0.202 A 
HETATM    3  N   UNL     1      45.627 -29.182  -2.184  1.00  0.00    -0.084 N 
HETATM    4  C   UNL     1      44.315 -29.374  -1.838  1.00  0.00     0.725 A 
HETATM    5  N   UNL     1      43.970 -29.398  -0.539  1.00  0.00    -0.192 N 
HETATM    6  N   UNL     1      45.758 -29.032  -3.521  1.00  0.00    -0.149 NA
HETATM    7  C   UNL     1      44.504 -29.271  -3.921  1.00  0.00     0.275 A 
HETATM    8  N   UNL     1      43.588 -29.470  -2.921  1.00  0.00    -0.054 NA
HETATM    9  C   UNL     1      44.875 -29.202   0.497  1.00  0.00     0.037 A 
HETATM   10  C   UNL     1      44.295 -29.233   1.889  1.00  0.00     0.070 C 
HETATM   11  H   UNL     1      42.995 -29.548  -0.294  1.00  0.00     0.184 HD
ENDROOT
BRANCH   1  12
HETATM   12  C   UNL     1      47.171 -28.866   1.315  1.00  0.00     0.256 C 
HETATM   13  N   UNL     1      47.744 -30.072   1.660  1.00  0.00    -0.323 N 
HETATM   14  H   UNL     1      47.452 -30.886   1.139  1.00  0.00     0.169 HD
HETATM   15  O   UNL     1      47.400 -27.760   1.786  1.00  0.00    -0.267 OA
BRANCH  13  16
HETATM   16  C   UNL     1      48.742 -30.298   2.640  1.00  0.00     0.041 A 
HETATM   17  C   UNL     1      48.348 -30.700   3.935  1.00  0.00    -0.035 A 
HETATM   18  C   UNL     1      49.332 -30.962   4.908  1.00  0.00     0.015 A 
HETATM   19  C   UNL     1      46.903 -30.864   4.327  1.00  0.00     0.050 C 
HETATM   20  C   UNL     1      50.693 -30.813   4.626  1.00  0.00    -0.061 A 
HETATM   21  C   UNL     1      51.735 -31.133   5.656  1.00  0.00     0.048 C 
HETATM   22  C   UNL     1      51.072 -30.413   3.346  1.00  0.00     0.009 A 
HETATM   23  C   UNL     1      50.107 -30.154   2.367  1.00  0.00     0.030 A 
ENDBRANCH  13  16
ENDBRANCH   1  12
BRANCH   2  24
HETATM   24  C   UNL     1      47.865 -29.928  -1.493  1.00  0.00    -0.025 A 
HETATM   25  C   UNL     1      49.195 -29.485  -1.627  1.00  0.00     0.046 A 
HETATM   26  C   UNL     1      50.224 -30.387  -1.910  1.00  0.00     0.068 A 
HETATM   27  C   UNL     1      49.939 -31.750  -2.003  1.00  0.00     0.037 A 
HETATM   28  C   UNL     1      48.635 -32.211  -1.844  1.00  0.00     0.003 A 
HETATM   29  C   UNL     1      47.604 -31.307  -1.596  1.00  0.00     0.010 A 
BRANCH  26  30
HETATM   30  O   UNL     1      51.539 -30.059  -2.098  1.00  0.00    -0.356 OA
HETATM   31  C   UNL     1      52.380 -31.105  -2.576  1.00  0.00     0.210 C 
ENDBRANCH  26  30
ENDBRANCH   2  24
TORSDOF 4
ENDMDL
MODEL 3
REMARK VINA RESULT:      -9.1      1.923      2.711
REMARK  4 active torsions:
REMARK  status: ('A' for Active; 'I' for Inactive)
REMARK    1  A    between atoms: C_6  and  N_7 
REMARK       I    between atoms: N_7  and  C_8 
REMARK    2  A    between atoms: C_8  and  C_9 
REMARK    3  A    between atoms: C_10  and  C_11 
REMARK    4  A    between atoms: C_13  and  O_14 
ROOT
HETATM    1  C   UNL     1      41.181 -12.145   3.353  1.00  0.00     0.062 A 
HETATM    2  C   UNL     1      41.816 -13.224   4.221  1.00  0.00     0.202 A 
HETATM    3  N   UNL     1      42.804 -12.649   5.144  1.00  0.00    -0.084 N 
HETATM    4  C   UNL     1      43.111 -11.316   5.207  1.00  0.00     0.725 A 
HETATM    5  N   UNL     1      42.504 -10.457   4.369  1.00  0.00    -0.192 N 
HETATM    6  N   UNL     1      43.388 -13.329   6.156  1.00  0.00    -0.149 NA
HETATM    7  C   UNL     1      44.127 -12.361   6.709  1.00  0.00     0.275 A 
HETATM    8  N   UNL     1      43.975 -11.111   6.167  1.00  0.00    -0.054 NA
HETATM    9  C   UNL     1      41.539 -10.841   3.446  1.00  0.00     0.037 A 
HETATM   10  C   UNL     1      40.950  -9.729   2.613  1.00  0.00     0.070 C 
HETATM   11  H   UNL     1      42.745  -9.470   4.420  1.00  0.00     0.184 HD
ENDROOT
BRANCH   1  12
HETATM   12  C   UNL     1      40.218 -12.577   2.309  1.00  0.00     0.256 C 
HETATM   13  N   UNL     1      40.805 -12.751   1.074  1.00  0.00    -0.323 N 
HETATM   14  H   UNL     1      41.798 -12.583   1.007  1.00  0.00     0.169 HD
HETATM   15  O   UNL     1      39.048 -12.756   2.621  1.00  0.00    -0.267 OA
BRANCH  13  16
HETATM   16  C   UNL     1      40.178 -13.189  -0.120  1.00  0.00     0.041 A 
HETATM   17  C   UNL     1      39.818 -14.549  -0.241  1.00  0.00    -0.035 A 
HETATM   18  C   UNL     1      39.163 -14.991  -1.408  1.00  0.00     0.015 A 
HETATM   19  C   UNL     1      40.105 -15.562   0.836  1.00  0.00     0.050 C 
HETATM   20  C   UNL     1      38.880 -14.115  -2.459  1.00  0.00    -0.061 A 
HETATM   21  C   UNL     1      38.147 -14.585  -3.680  1.00  0.00     0.048 C 
HETATM   22  C   UNL     1      39.242 -12.775  -2.331  1.00  0.00     0.009 A 
HETATM   23  C   UNL     1      39.889 -12.321  -1.178  1.00  0.00     0.030 A 
ENDBRANCH  13  16
ENDBRANCH   1  12
BRANCH   2  24
HETATM   24  C   UNL     1      42.425 -14.397   3.457  1.00  0.00    -0.025 A 
HETATM   25  C   UNL     1      42.204 -15.735   3.834  1.00  0.00     0.046 A 
HETATM   26  C   UNL     1      42.801 -16.784   3.130  1.00  0.00     0.068 A 
HETATM   27  C   UNL     1      43.575 -16.505   2.003  1.00  0.00     0.037 A 
HETATM   28  C   UNL     1      43.781 -15.189   1.597  1.00  0.00     0.003 A 
HETATM   29  C   UNL     1      43.214 -14.142   2.321  1.00  0.00     0.010 A 
BRANCH  26  30
HETATM   30  O   UNL     1      42.685 -18.113   3.435  1.00  0.00    -0.356 OA
HETATM   31  C   UNL     1      43.539 -18.995   2.711  1.00  0.00     0.210 C 
ENDBRANCH  26  30
ENDBRANCH   2  24
TORSDOF 4
ENDMDL
MODEL 4
REMARK VINA RESULT:      -9.0      2.539      6.584
REMARK  4 active torsions:
REMARK  status: ('A' for Active; 'I' for Inactive)
REMARK    1  A    between atoms: C_6  and  N_7 
REMARK       I    between atoms: N_7  and  C_8 
REMARK    2  A    between atoms: C_8  and  C_9 
REMARK    3  A    between atoms: C_10  and  C_11 
REMARK    4  A    between atoms: C_13  and  O_14 
ROOT
HETATM    1  C   UNL     1      41.048 -13.651   4.671  1.00  0.00     0.062 A 
HETATM    2  C   UNL     1      41.373 -12.388   3.884  1.00  0.00     0.202 A 
HETATM    3  N   UNL     1      41.132 -11.184   4.691  1.00  0.00    -0.084 N 
HETATM    4  C   UNL     1      40.670 -11.203   5.981  1.00  0.00     0.725 A 
HETATM    5  N   UNL     1      40.389 -12.381   6.565  1.00  0.00    -0.192 N 
HETATM    6  N   UNL     1      41.505  -9.936   4.329  1.00  0.00    -0.149 NA
HETATM    7  C   UNL     1      41.123  -9.242   5.407  1.00  0.00     0.275 A 
HETATM    8  N   UNL     1      40.621  -9.982   6.445  1.00  0.00    -0.054 NA
HETATM    9  C   UNL     1      40.574 -13.609   5.940  1.00  0.00     0.037 A 
HETATM   10  C   UNL     1      40.231 -14.823   6.768  1.00  0.00     0.070 C 
HETATM   11  H   UNL     1      40.042 -12.383   7.520  1.00  0.00     0.184 HD
ENDROOT
BRANCH   1  12
HETATM   12  C   UNL     1      41.162 -14.952   3.965  1.00  0.00     0.256 C 
HETATM   13  N   UNL     1      42.396 -15.546   4.126  1.00  0.00    -0.323 N 
HETATM   14  H   UNL     1      43.071 -15.060   4.697  1.00  0.00     0.169 HD
HETATM   15  O   UNL     1      40.194 -15.377   3.348  1.00  0.00    -0.267 OA
BRANCH  13  16
HETATM   16  C   UNL     1      42.817 -16.800   3.616  1.00  0.00     0.041 A 
HETATM   17  C   UNL     1      43.658 -17.611   4.409  1.00  0.00    -0.035 A 
HETATM   18  C   UNL     1      44.057 -18.874   3.929  1.00  0.00     0.015 A 
HETATM   19  C   UNL     1      44.155 -17.180   5.764  1.00  0.00     0.050 C 
HETATM   20  C   UNL     1      43.653 -19.335   2.672  1.00  0.00    -0.061 A 
HETATM   21  C   UNL     1      44.048 -20.697   2.186  1.00  0.00     0.048 C 
HETATM   22  C   UNL     1      42.825 -18.526   1.896  1.00  0.00     0.009 A 
HETATM   23  C   UNL     1      42.418 -17.272   2.360  1.00  0.00     0.030 A 
ENDBRANCH  13  16
ENDBRANCH   1  12
BRANCH   2  24
HETATM   24  C   UNL     1      40.676 -12.268   2.531  1.00  0.00    -0.025 A 
HETATM   25  C   UNL     1      41.375 -12.377   1.314  1.00  0.00     0.046 A 
HETATM   26  C   UNL     1      40.710 -12.233   0.093  1.00  0.00     0.068 A 
HETATM   27  C   UNL     1      39.329 -12.037   0.080  1.00  0.00     0.037 A 
HETATM   28  C   UNL     1      38.616 -11.955   1.273  1.00  0.00     0.003 A 
HETATM   29  C   UNL     1      39.285 -12.065   2.491  1.00  0.00     0.010 A 
BRANCH  26  30
HETATM   30  O   UNL     1      41.297 -12.281  -1.142  1.00  0.00    -0.356 OA
HETATM   31  C   UNL     1      40.407 -12.322  -2.254  1.00  0.00     0.210 C 
ENDBRANCH  26  30
ENDBRANCH   2  24
TORSDOF 4
ENDMDL
MODEL 5
REMARK VINA RESULT:      -9.0      2.706      6.934
REMARK  4 active torsions:
REMARK  status: ('A' for Active; 'I' for Inactive)
REMARK    1  A    between atoms: C_6  and  N_7 
REMARK       I    between atoms: N_7  and  C_8 
REMARK    2  A    between atoms: C_8  and  C_9 
REMARK    3  A    between atoms: C_10  and  C_11 
REMARK    4  A    between atoms: C_13  and  O_14 
ROOT
HETATM    1  C   UNL     1      40.334 -13.601   2.106  1.00  0.00     0.062 A 
HETATM    2  C   UNL     1      40.361 -12.290   2.882  1.00  0.00     0.202 A 
HETATM    3  N   UNL     1      40.034 -11.152   2.012  1.00  0.00    -0.084 N 
HETATM    4  C   UNL     1      39.748 -11.263   0.677  1.00  0.00     0.725 A 
HETATM    5  N   UNL     1      39.782 -12.474   0.092  1.00  0.00    -0.192 N 
HETATM    6  N   UNL     1      39.799  -9.897   2.455  1.00  0.00    -0.149 NA
HETATM    7  C   UNL     1      39.494  -9.283   1.306  1.00  0.00     0.275 A 
HETATM    8  N   UNL     1      39.438 -10.087   0.197  1.00  0.00    -0.054 NA
HETATM    9  C   UNL     1      40.063 -13.648   0.779  1.00  0.00     0.037 A 
HETATM   10  C   UNL     1      40.024 -14.913  -0.043  1.00  0.00     0.070 C 
HETATM   11  H   UNL     1      39.574 -12.543  -0.901  1.00  0.00     0.184 HD
ENDROOT
BRANCH   1  12
HETATM   12  C   UNL     1      40.723 -14.838   2.828  1.00  0.00     0.256 C 
HETATM   13  N   UNL     1      41.951 -15.328   2.436  1.00  0.00    -0.323 N 
HETATM   14  H   UNL     1      42.450 -14.808   1.729  1.00  0.00     0.169 HD
HETATM   15  O   UNL     1      39.971 -15.285   3.684  1.00  0.00    -0.267 OA
BRANCH  13  16
HETATM   16  C   UNL     1      42.625 -16.464   2.949  1.00  0.00     0.041 A 
HETATM   17  C   UNL     1      43.226 -16.382   4.224  1.00  0.00    -0.035 A 
HETATM   18  C   UNL     1      43.870 -17.514   4.761  1.00  0.00     0.015 A 
HETATM   19  C   UNL     1      43.209 -15.121   5.048  1.00  0.00     0.050 C 
HETATM   20  C   UNL     1      43.944 -18.715   4.048  1.00  0.00    -0.061 A 
HETATM   21  C   UNL     1      44.596 -19.927   4.644  1.00  0.00     0.048 C 
HETATM   22  C   UNL     1      43.351 -18.785   2.789  1.00  0.00     0.009 A 
HETATM   23  C   UNL     1      42.705 -17.671   2.245  1.00  0.00     0.030 A 
ENDBRANCH  13  16
ENDBRANCH   1  12
BRANCH   2  24
HETATM   24  C   UNL     1      41.652 -12.017   3.650  1.00  0.00    -0.025 A 
HETATM   25  C   UNL     1      41.676 -11.871   5.050  1.00  0.00     0.046 A 
HETATM   26  C   UNL     1      42.871 -11.592   5.718  1.00  0.00     0.068 A 
HETATM   27  C   UNL     1      44.063 -11.516   4.997  1.00  0.00     0.037 A 
HETATM   28  C   UNL     1      44.063 -11.687   3.615  1.00  0.00     0.003 A 
HETATM   29  C   UNL     1      42.866 -11.931   2.945  1.00  0.00     0.010 A 
BRANCH  26  30
HETATM   30  O   UNL     1      43.000 -11.393   7.066  1.00  0.00    -0.356 OA
HETATM   31  C   UNL     1      44.315 -11.538   7.594  1.00  0.00     0.210 C 
ENDBRANCH  26  30
ENDBRANCH   2  24
TORSDOF 4
ENDMDL
MODEL 6
REMARK VINA RESULT:      -8.9      2.628      6.652
REMARK  4 active torsions:
REMARK  status: ('A' for Active; 'I' for Inactive)
REMARK    1  A    between atoms: C_6  and  N_7 
REMARK       I    between atoms: N_7  and  C_8 
REMARK    2  A    between atoms: C_8  and  C_9 
REMARK    3  A    between atoms: C_10  and  C_11 
REMARK    4  A    between atoms: C_13  and  O_14 
ROOT
HETATM    1  C   UNL     1      42.011 -11.916   2.693  1.00  0.00     0.062 A 
HETATM    2  C   UNL     1      42.117 -13.356   2.203  1.00  0.00     0.202 A 
HETATM    3  N   UNL     1      41.079 -13.654   1.206  1.00  0.00    -0.084 N 
HETATM    4  C   UNL     1      40.140 -12.752   0.782  1.00  0.00     0.725 A 
HETATM    5  N   UNL     1      40.126 -11.514   1.308  1.00  0.00    -0.192 N 
HETATM    6  N   UNL     1      41.039 -14.782   0.462  1.00  0.00    -0.149 NA
HETATM    7  C   UNL     1      39.971 -14.533  -0.305  1.00  0.00     0.275 A 
HETATM    8  N   UNL     1      39.402 -13.296  -0.151  1.00  0.00    -0.054 NA
HETATM    9  C   UNL     1      41.046 -11.073   2.251  1.00  0.00     0.037 A 
HETATM   10  C   UNL     1      40.889  -9.642   2.700  1.00  0.00     0.070 C 
HETATM   11  H   UNL     1      39.421 -10.855   0.989  1.00  0.00     0.184 HD
ENDROOT
BRANCH   1  12
HETATM   12  C   UNL     1      42.941 -11.483   3.766  1.00  0.00     0.256 C 
HETATM   13  N   UNL     1      42.317 -11.313   4.983  1.00  0.00    -0.323 N 
HETATM   14  H   UNL     1      41.326 -11.503   5.025  1.00  0.00     0.169 HD
HETATM   15  O   UNL     1      44.127 -11.342   3.499  1.00  0.00    -0.267 OA
BRANCH  13  16
HETATM   16  C   UNL     1      42.920 -10.942   6.211  1.00  0.00     0.041 A 
HETATM   17  C   UNL     1      43.677 -11.902   6.917  1.00  0.00    -0.035 A 
HETATM   18  C   UNL     1      44.310 -11.537   8.121  1.00  0.00     0.015 A 
HETATM   19  C   UNL     1      43.841 -13.318   6.432  1.00  0.00     0.050 C 
HETATM   20  C   UNL     1      44.188 -10.246   8.645  1.00  0.00    -0.061 A 
HETATM   21  C   UNL     1      44.898  -9.855   9.907  1.00  0.00     0.048 C 
HETATM   22  C   UNL     1      43.436  -9.307   7.943  1.00  0.00     0.009 A 
HETATM   23  C   UNL     1      42.805  -9.653   6.744  1.00  0.00     0.030 A 
ENDBRANCH  13  16
ENDBRANCH   1  12
BRANCH   2  24
HETATM   24  C   UNL     1      42.118 -14.417   3.300  1.00  0.00    -0.025 A 
HETATM   25  C   UNL     1      43.207 -15.286   3.503  1.00  0.00     0.046 A 
HETATM   26  C   UNL     1      43.163 -16.265   4.499  1.00  0.00     0.068 A 
HETATM   27  C   UNL     1      42.053 -16.344   5.340  1.00  0.00     0.037 A 
HETATM   28  C   UNL     1      40.979 -15.474   5.174  1.00  0.00     0.003 A 
HETATM   29  C   UNL     1      41.008 -14.520   4.158  1.00  0.00     0.010 A 
BRANCH  26  30
HETATM   30  O   UNL     1      44.146 -17.183   4.754  1.00  0.00    -0.356 OA
HETATM   31  C   UNL     1      44.009 -18.441   4.098  1.00  0.00     0.210 C 
ENDBRANCH  26  30
ENDBRANCH   2  24
TORSDOF 4
ENDMDL
MODEL 7
REMARK VINA RESULT:      -8.8      2.222      4.735
REMARK  4 active torsions:
REMARK  status: ('A' for Active; 'I' for Inactive)
REMARK    1  A    between atoms: C_6  and  N_7 
REMARK       I    between atoms: N_7  and  C_8 
REMARK    2  A    between atoms: C_8  and  C_9 
REMARK    3  A    between atoms: C_10  and  C_11 
REMARK    4  A    between atoms: C_13  and  O_14 
ROOT
HETATM    1  C   UNL     1      42.611 -15.452   3.558  1.00  0.00     0.062 A 
HETATM    2  C   UNL     1      42.943 -14.703   4.843  1.00  0.00     0.202 A 
HETATM    3  N   UNL     1      43.229 -15.637   5.941  1.00  0.00    -0.084 N 
HETATM    4  C   UNL     1      43.194 -17.001   5.819  1.00  0.00     0.725 A 
HETATM    5  N   UNL     1      42.859 -17.550   4.638  1.00  0.00    -0.192 N 
HETATM    6  N   UNL     1      43.732 -15.271   7.141  1.00  0.00    -0.149 NA
HETATM    7  C   UNL     1      43.860 -16.465   7.730  1.00  0.00     0.275 A 
HETATM    8  N   UNL     1      43.555 -17.550   6.949  1.00  0.00    -0.054 NA
HETATM    9  C   UNL     1      42.573 -16.805   3.501  1.00  0.00     0.037 A 
HETATM   10  C   UNL     1      42.248 -17.602   2.261  1.00  0.00     0.070 C 
HETATM   11  H   UNL     1      42.831 -18.564   4.561  1.00  0.00     0.184 HD
ENDROOT
BRANCH   1  12
HETATM   12  C   UNL     1      42.219 -14.647   2.373  1.00  0.00     0.256 C 
HETATM   13  N   UNL     1      40.894 -14.808   2.027  1.00  0.00    -0.323 N 
HETATM   14  H   UNL     1      40.340 -15.427   2.601  1.00  0.00     0.169 HD
HETATM   15  O   UNL     1      43.056 -13.929   1.843  1.00  0.00    -0.267 OA
BRANCH  13  16
HETATM   16  C   UNL     1      40.197 -14.162   0.976  1.00  0.00     0.041 A 
HETATM   17  C   UNL     1      39.671 -12.871   1.199  1.00  0.00    -0.035 A 
HETATM   18  C   UNL     1      39.006 -12.203   0.151  1.00  0.00     0.015 A 
HETATM   19  C   UNL     1      39.790 -12.167   2.524  1.00  0.00     0.050 C 
HETATM   20  C   UNL     1      38.839 -12.800  -1.102  1.00  0.00    -0.061 A 
HETATM   21  C   UNL     1      38.166 -12.066  -2.223  1.00  0.00     0.048 C 
HETATM   22  C   UNL     1      39.360 -14.076  -1.311  1.00  0.00     0.009 A 
HETATM   23  C   UNL     1      40.025 -14.750  -0.283  1.00  0.00     0.030 A 
ENDBRANCH  13  16
ENDBRANCH   1  12
BRANCH   2  24
HETATM   24  C   UNL     1      41.907 -13.671   5.279  1.00  0.00    -0.025 A 
HETATM   25  C   UNL     1      42.186 -12.292   5.306  1.00  0.00     0.046 A 
HETATM   26  C   UNL     1      41.223 -11.377   5.740  1.00  0.00     0.068 A 
HETATM   27  C   UNL     1      39.952 -11.829   6.093  1.00  0.00     0.037 A 
HETATM   28  C   UNL     1      39.647 -13.188   6.045  1.00  0.00     0.003 A 
HETATM   29  C   UNL     1      40.619 -14.103   5.646  1.00  0.00     0.010 A 
BRANCH  26  30
HETATM   30  O   UNL     1      41.402 -10.024   5.842  1.00  0.00    -0.356 OA
HETATM   31  C   UNL     1      41.640  -9.333   4.619  1.00  0.00     0.210 C 
ENDBRANCH  26  30
ENDBRANCH   2  24
TORSDOF 4
ENDMDL
MODEL 8
REMARK VINA RESULT:      -8.6      3.215      7.366
REMARK  4 active torsions:
REMARK  status: ('A' for Active; 'I' for Inactive)
REMARK    1  A    between atoms: C_6  and  N_7 
REMARK       I    between atoms: N_7  and  C_8 
REMARK    2  A    between atoms: C_8  and  C_9 
REMARK    3  A    between atoms: C_10  and  C_11 
REMARK    4  A    between atoms: C_13  and  O_14 
ROOT
HETATM    1  C   UNL     1      40.244 -11.284   2.456  1.00  0.00     0.062 A 
HETATM    2  C   UNL     1      40.146 -10.516   1.144  1.00  0.00     0.202 A 
HETATM    3  N   UNL     1      38.975  -9.628   1.136  1.00  0.00    -0.084 N 
HETATM    4  C   UNL     1      38.090  -9.515   2.175  1.00  0.00     0.725 A 
HETATM    5  N   UNL     1      38.263 -10.267   3.276  1.00  0.00    -0.192 N 
HETATM    6  N   UNL     1      38.735  -8.692   0.190  1.00  0.00    -0.149 NA
HETATM    7  C   UNL     1      37.617  -8.137   0.672  1.00  0.00     0.275 A 
HETATM    8  N   UNL     1      37.198  -8.602   1.891  1.00  0.00    -0.054 NA
HETATM    9  C   UNL     1      39.326 -11.146   3.444  1.00  0.00     0.037 A 
HETATM   10  C   UNL     1      39.368 -11.880   4.761  1.00  0.00     0.070 C 
HETATM   11  H   UNL     1      37.596 -10.179   4.039  1.00  0.00     0.184 HD
ENDROOT
BRANCH   1  12
HETATM   12  C   UNL     1      41.331 -12.287   2.589  1.00  0.00     0.256 C 
HETATM   13  N   UNL     1      40.875 -13.587   2.535  1.00  0.00    -0.323 N 
HETATM   14  H   UNL     1      39.883 -13.722   2.405  1.00  0.00     0.169 HD
HETATM   15  O   UNL     1      42.485 -11.896   2.706  1.00  0.00    -0.267 OA
BRANCH  13  16
HETATM   16  C   UNL     1      41.651 -14.772   2.595  1.00  0.00     0.041 A 
HETATM   17  C   UNL     1      41.584 -15.573   3.755  1.00  0.00    -0.035 A 
HETATM   18  C   UNL     1      42.323 -16.771   3.813  1.00  0.00     0.015 A 
HETATM   19  C   UNL     1      40.745 -15.200   4.949  1.00  0.00     0.050 C 
HETATM   20  C   UNL     1      43.140 -17.174   2.753  1.00  0.00    -0.061 A 
HETATM   21  C   UNL     1      43.892 -18.471   2.807  1.00  0.00     0.048 C 
HETATM   22  C   UNL     1      43.201 -16.374   1.613  1.00  0.00     0.009 A 
HETATM   23  C   UNL     1      42.471 -15.185   1.539  1.00  0.00     0.030 A 
ENDBRANCH  13  16
ENDBRANCH   1  12
BRANCH   2  24
HETATM   24  C   UNL     1      40.167 -11.378  -0.116  1.00  0.00    -0.025 A 
HETATM   25  C   UNL     1      39.155 -12.313  -0.403  1.00  0.00     0.046 A 
HETATM   26  C   UNL     1      39.220 -13.107  -1.551  1.00  0.00     0.068 A 
HETATM   27  C   UNL     1      40.269 -12.929  -2.453  1.00  0.00     0.037 A 
HETATM   28  C   UNL     1      41.265 -11.988  -2.201  1.00  0.00     0.003 A 
HETATM   29  C   UNL     1      41.217 -11.221  -1.039  1.00  0.00     0.010 A 
BRANCH  26  30
HETATM   30  O   UNL     1      38.313 -14.069  -1.904  1.00  0.00    -0.356 OA
HETATM   31  C   UNL     1      38.678 -14.893  -3.009  1.00  0.00     0.210 C 
ENDBRANCH  26  30
ENDBRANCH   2  24
TORSDOF 4
ENDMDL
MODEL 9
REMARK VINA RESULT:      -8.5      3.195      6.082
REMARK  4 active torsions:
REMARK  status: ('A' for Active; 'I' for Inactive)
REMARK    1  A    between atoms: C_6  and  N_7 
REMARK       I    between atoms: N_7  and  C_8 
REMARK    2  A    between atoms: C_8  and  C_9 
REMARK    3  A    between atoms: C_10  and  C_11 
REMARK    4  A    between atoms: C_13  and  O_14 
ROOT
HETATM    1  C   UNL     1      41.955 -15.878   5.730  1.00  0.00     0.062 A 
HETATM    2  C   UNL     1      41.851 -16.481   4.335  1.00  0.00     0.202 A 
HETATM    3  N   UNL     1      42.907 -17.477   4.108  1.00  0.00    -0.084 N 
HETATM    4  C   UNL     1      43.860 -17.811   5.034  1.00  0.00     0.725 A 
HETATM    5  N   UNL     1      43.870 -17.189   6.226  1.00  0.00    -0.192 N 
HETATM    6  N   UNL     1      42.956 -18.307   3.042  1.00  0.00    -0.149 NA
HETATM    7  C   UNL     1      44.040 -19.031   3.342  1.00  0.00     0.275 A 
HETATM    8  N   UNL     1      44.614 -18.768   4.559  1.00  0.00    -0.054 NA
HETATM    9  C   UNL     1      42.933 -16.233   6.599  1.00  0.00     0.037 A 
HETATM   10  C   UNL     1      43.089 -15.670   7.990  1.00  0.00     0.070 C 
HETATM   11  H   UNL     1      44.585 -17.441   6.903  1.00  0.00     0.184 HD
ENDROOT
BRANCH   1  12
HETATM   12  C   UNL     1      41.005 -14.793   6.085  1.00  0.00     0.256 C 
HETATM   13  N   UNL     1      41.469 -13.540   5.748  1.00  0.00    -0.323 N 
HETATM   14  H   UNL     1      42.372 -13.487   5.300  1.00  0.00     0.169 HD
HETATM   15  O   UNL     1      39.935 -15.089   6.600  1.00  0.00    -0.267 OA
BRANCH  13  16
HETATM   16  C   UNL     1      40.798 -12.303   5.917  1.00  0.00     0.041 A 
HETATM   17  C   UNL     1      41.547 -11.165   6.288  1.00  0.00    -0.035 A 
HETATM   18  C   UNL     1      40.898  -9.922   6.425  1.00  0.00     0.015 A 
HETATM   19  C   UNL     1      43.030 -11.221   6.547  1.00  0.00     0.050 C 
HETATM   20  C   UNL     1      39.521  -9.794   6.221  1.00  0.00    -0.061 A 
HETATM   21  C   UNL     1      38.845  -8.460   6.329  1.00  0.00     0.048 C 
HETATM   22  C   UNL     1      38.790 -10.924   5.857  1.00  0.00     0.009 A 
HETATM   23  C   UNL     1      39.420 -12.163   5.713  1.00  0.00     0.030 A 
ENDBRANCH  13  16
ENDBRANCH   1  12
BRANCH   2  24
HETATM   24  C   UNL     1      41.821 -15.471   3.191  1.00  0.00    -0.025 A 
HETATM   25  C   UNL     1      40.712 -15.340   2.333  1.00  0.00     0.046 A 
HETATM   26  C   UNL     1      40.730 -14.425   1.278  1.00  0.00     0.068 A 
HETATM   27  C   UNL     1      41.834 -13.589   1.108  1.00  0.00     0.037 A 
HETATM   28  C   UNL     1      42.928 -13.683   1.965  1.00  0.00     0.003 A 
HETATM   29  C   UNL     1      42.924 -14.620   2.996  1.00  0.00     0.010 A 
BRANCH  26  30
HETATM   30  O   UNL     1      39.726 -14.245   0.365  1.00  0.00    -0.356 OA
HETATM   31  C   UNL     1      40.122 -13.729  -0.903  1.00  0.00     0.210 C 
ENDBRANCH  26  30
ENDBRANCH   2  24
TORSDOF 4
ENDMDL
MODEL 10
REMARK VINA RESULT:      -8.5      3.869      9.165
REMARK  4 active torsions:
REMARK  status: ('A' for Active; 'I' for Inactive)
REMARK    1  A    between atoms: C_6  and  N_7 
REMARK       I    between atoms: N_7  and  C_8 
REMARK    2  A    between atoms: C_8  and  C_9 
REMARK    3  A    between atoms: C_10  and  C_11 
REMARK    4  A    between atoms: C_13  and  O_14 
ROOT
HETATM    1  C   UNL     1      38.738 -12.776  -0.964  1.00  0.00     0.062 A 
HETATM    2  C   UNL     1      38.161 -11.414  -0.597  1.00  0.00     0.202 A 
HETATM    3  N   UNL     1      37.168 -10.975  -1.587  1.00  0.00    -0.084 N 
HETATM    4  C   UNL     1      36.815 -11.700  -2.695  1.00  0.00     0.725 A 
HETATM    5  N   UNL     1      37.414 -12.880  -2.931  1.00  0.00    -0.192 N 
HETATM    6  N   UNL     1      36.358  -9.904  -1.431  1.00  0.00    -0.149 NA
HETATM    7  C   UNL     1      35.627  -9.983  -2.548  1.00  0.00     0.275 A 
HETATM    8  N   UNL     1      35.865 -11.075  -3.341  1.00  0.00    -0.054 NA
HETATM    9  C   UNL     1      38.365 -13.439  -2.086  1.00  0.00     0.037 A 
HETATM   10  C   UNL     1      38.902 -14.785  -2.503  1.00  0.00     0.070 C 
HETATM   11  H   UNL     1      37.149 -13.406  -3.759  1.00  0.00     0.184 HD
ENDROOT
BRANCH   1  12
HETATM   12  C   UNL     1      39.818 -13.321  -0.104  1.00  0.00     0.256 C 
HETATM   13  N   UNL     1      39.339 -14.006   0.993  1.00  0.00    -0.323 N 
HETATM   14  H   UNL     1      38.337 -14.075   1.092  1.00  0.00     0.169 HD
HETATM   15  O   UNL     1      40.983 -13.146  -0.435  1.00  0.00    -0.267 OA
BRANCH  13  16
HETATM   16  C   UNL     1      40.099 -14.674   1.986  1.00  0.00     0.041 A 
HETATM   17  C   UNL     1      40.234 -14.077   3.258  1.00  0.00    -0.035 A 
HETATM   18  C   UNL     1      40.957 -14.747   4.264  1.00  0.00     0.015 A 
HETATM   19  C   UNL     1      39.631 -12.738   3.592  1.00  0.00     0.050 C 
HETATM   20  C   UNL     1      41.562 -15.985   4.024  1.00  0.00    -0.061 A 
HETATM   21  C   UNL     1      42.296 -16.710   5.113  1.00  0.00     0.048 C 
HETATM   22  C   UNL     1      41.425 -16.564   2.764  1.00  0.00     0.009 A 
HETATM   23  C   UNL     1      40.707 -15.914   1.757  1.00  0.00     0.030 A 
ENDBRANCH  13  16
ENDBRANCH   1  12
BRANCH   2  24
HETATM   24  C   UNL     1      39.193 -10.314  -0.358  1.00  0.00    -0.025 A 
HETATM   25  C   UNL     1      40.010  -9.814  -1.390  1.00  0.00     0.046 A 
HETATM   26  C   UNL     1      40.965  -8.828  -1.130  1.00  0.00     0.068 A 
HETATM   27  C   UNL     1      41.069  -8.290   0.153  1.00  0.00     0.037 A 
HETATM   28  C   UNL     1      40.249  -8.751   1.180  1.00  0.00     0.003 A 
HETATM   29  C   UNL     1      39.321  -9.759   0.928  1.00  0.00     0.010 A 
BRANCH  26  30
HETATM   30  O   UNL     1      41.834  -8.302  -2.047  1.00  0.00    -0.356 OA
HETATM   31  C   UNL     1      43.086  -7.855  -1.534  1.00  0.00     0.210 C 
ENDBRANCH  26  30
ENDBRANCH   2  24
TORSDOF 4
ENDMDL
