MODEL 1
REMARK VINA RESULT:      -7.7      0.000      0.000
REMARK  2 active torsions:
REMARK  status: ('A' for Active; 'I' for Inactive)
REMARK    1  A    between atoms: C_3  and  C_4 
REMARK    2  A    between atoms: C_19  and  O_20 
ROOT
HETATM    1  C   UNL     1      41.076 -14.868   4.852  1.00  0.00     0.137 C 
HETATM    2  N   UNL     1      41.281 -13.806   5.882  1.00  0.00    -0.278 NA
HETATM    3  C   UNL     1      42.493 -13.068   5.743  1.00  0.00     0.036 A 
HETATM    4  C   UNL     1      42.750 -12.206   4.651  1.00  0.00     0.053 A 
HETATM    5  N   UNL     1      41.880 -12.068   3.543  1.00  0.00    -0.356 N 
HETATM    6  C   UNL     1      41.132 -13.083   2.991  1.00  0.00     0.041 A 
HETATM    7  C   UNL     1      40.821 -14.278   3.515  1.00  0.00     0.056 A 
HETATM    8  C   UNL     1      40.003 -14.984   2.518  1.00  0.00     0.251 A 
HETATM    9  O   UNL     1      39.493 -16.080   2.647  1.00  0.00    -0.268 OA
HETATM   10  N   UNL     1      39.908 -14.174   1.417  1.00  0.00    -0.351 N 
HETATM   11  C   UNL     1      40.568 -12.926   1.605  1.00  0.00     0.180 A 
HETATM   12  C   UNL     1      43.442 -13.180   6.771  1.00  0.00     0.026 A 
HETATM   13  C   UNL     1      44.627 -12.447   6.738  1.00  0.00     0.002 A 
HETATM   14  C   UNL     1      44.874 -11.580   5.680  1.00  0.00     0.002 A 
HETATM   15  C   UNL     1      43.942 -11.459   4.648  1.00  0.00     0.031 A 
HETATM   16  H   UNL     1      40.543 -13.114   5.729  1.00  0.00     0.128 HD
HETATM   17  H   UNL     1      42.167 -11.346   2.889  1.00  0.00     0.166 HD
HETATM   18  H   UNL     1      39.365 -14.450   0.610  1.00  0.00     0.163 HD
ENDROOT
BRANCH   1  19
HETATM   19  C   UNL     1      42.134 -15.957   4.981  1.00  0.00    -0.002 A 
HETATM   20  C   UNL     1      42.940 -16.367   3.905  1.00  0.00     0.012 A 
HETATM   21  C   UNL     1      43.853 -17.418   4.051  1.00  0.00     0.001 A 
HETATM   22  C   UNL     1      43.973 -18.081   5.271  1.00  0.00     0.003 A 
HETATM   23  C   UNL     1      43.199 -17.678   6.356  1.00  0.00     0.037 A 
HETATM   24  C   UNL     1      42.309 -16.619   6.210  1.00  0.00     0.073 A 
BRANCH  24  25
HETATM   25  O   UNL     1      41.632 -16.223   7.334  1.00  0.00    -0.360 OA
HETATM   26  H   UNL     1      40.678 -16.327   7.131  1.00  0.00     0.217 HD
ENDBRANCH  24  25
ENDBRANCH   1  19
TORSDOF 2
ENDMDL
MODEL 2
REMARK VINA RESULT:      -7.6      2.160      5.415
REMARK  2 active torsions:
REMARK  status: ('A' for Active; 'I' for Inactive)
REMARK    1  A    between atoms: C_3  and  C_4 
REMARK    2  A    between atoms: C_19  and  O_20 
ROOT
HETATM    1  C   UNL     1      41.204 -15.050   5.916  1.00  0.00     0.137 C 
HETATM    2  N   UNL     1      40.229 -15.522   4.889  1.00  0.00    -0.278 NA
HETATM    3  C   UNL     1      40.660 -15.361   3.539  1.00  0.00     0.036 A 
HETATM    4  C   UNL     1      41.749 -16.075   2.987  1.00  0.00     0.053 A 
HETATM    5  N   UNL     1      42.578 -16.941   3.739  1.00  0.00    -0.356 N 
HETATM    6  C   UNL     1      42.947 -16.744   5.051  1.00  0.00     0.041 A 
HETATM    7  C   UNL     1      42.403 -15.924   5.963  1.00  0.00     0.056 A 
HETATM    8  C   UNL     1      43.170 -16.093   7.205  1.00  0.00     0.251 A 
HETATM    9  O   UNL     1      42.949 -15.552   8.271  1.00  0.00    -0.268 OA
HETATM   10  N   UNL     1      44.174 -16.989   6.948  1.00  0.00    -0.351 N 
HETATM   11  C   UNL     1      44.125 -17.490   5.616  1.00  0.00     0.180 A 
HETATM   12  C   UNL     1      39.928 -14.482   2.726  1.00  0.00     0.026 A 
HETATM   13  C   UNL     1      40.250 -14.312   1.381  1.00  0.00     0.002 A 
HETATM   14  C   UNL     1      41.303 -15.029   0.825  1.00  0.00     0.002 A 
HETATM   15  C   UNL     1      42.043 -15.905   1.622  1.00  0.00     0.031 A 
HETATM   16  H   UNL     1      40.154 -16.536   5.012  1.00  0.00     0.128 HD
HETATM   17  H   UNL     1      43.258 -17.443   3.176  1.00  0.00     0.166 HD
HETATM   18  H   UNL     1      44.817 -17.277   7.673  1.00  0.00     0.163 HD
ENDROOT
BRANCH   1  19
HETATM   19  C   UNL     1      41.403 -13.542   5.818  1.00  0.00    -0.002 A 
HETATM   20  C   UNL     1      42.660 -12.951   5.596  1.00  0.00     0.012 A 
HETATM   21  C   UNL     1      42.807 -11.560   5.581  1.00  0.00     0.001 A 
HETATM   22  C   UNL     1      41.704 -10.734   5.794  1.00  0.00     0.003 A 
HETATM   23  C   UNL     1      40.448 -11.296   5.997  1.00  0.00     0.037 A 
HETATM   24  C   UNL     1      40.305 -12.680   5.989  1.00  0.00     0.073 A 
BRANCH  24  25
HETATM   25  O   UNL     1      39.031 -13.169   6.119  1.00  0.00    -0.360 OA
HETATM   26  H   UNL     1      38.565 -12.561   6.733  1.00  0.00     0.217 HD
ENDBRANCH  24  25
ENDBRANCH   1  19
TORSDOF 2
ENDMDL
MODEL 3
REMARK VINA RESULT:      -7.6      2.177      5.478
REMARK  2 active torsions:
REMARK  status: ('A' for Active; 'I' for Inactive)
REMARK    1  A    between atoms: C_3  and  C_4 
REMARK    2  A    between atoms: C_19  and  O_20 
ROOT
HETATM    1  C   UNL     1      40.681 -13.440   4.638  1.00  0.00     0.137 C 
HETATM    2  N   UNL     1      40.426 -14.912   4.649  1.00  0.00    -0.278 NA
HETATM    3  C   UNL     1      41.455 -15.699   4.053  1.00  0.00     0.036 A 
HETATM    4  C   UNL     1      42.754 -15.813   4.601  1.00  0.00     0.053 A 
HETATM    5  N   UNL     1      43.192 -15.084   5.732  1.00  0.00    -0.356 N 
HETATM    6  C   UNL     1      42.820 -13.793   6.036  1.00  0.00     0.041 A 
HETATM    7  C   UNL     1      41.791 -13.079   5.554  1.00  0.00     0.056 A 
HETATM    8  C   UNL     1      41.841 -11.762   6.203  1.00  0.00     0.251 A 
HETATM    9  O   UNL     1      41.046 -10.854   6.058  1.00  0.00    -0.268 OA
HETATM   10  N   UNL     1      42.942 -11.748   7.018  1.00  0.00    -0.351 N 
HETATM   11  C   UNL     1      43.635 -12.991   7.014  1.00  0.00     0.180 A 
HETATM   12  C   UNL     1      41.129 -16.422   2.895  1.00  0.00     0.026 A 
HETATM   13  C   UNL     1      42.061 -17.259   2.285  1.00  0.00     0.002 A 
HETATM   14  C   UNL     1      43.331 -17.395   2.833  1.00  0.00     0.002 A 
HETATM   15  C   UNL     1      43.672 -16.680   3.983  1.00  0.00     0.031 A 
HETATM   16  H   UNL     1      40.428 -15.194   5.633  1.00  0.00     0.128 HD
HETATM   17  H   UNL     1      44.120 -15.345   6.050  1.00  0.00     0.166 HD
HETATM   18  H   UNL     1      43.161 -10.941   7.588  1.00  0.00     0.163 HD
ENDROOT
BRANCH   1  19
HETATM   19  C   UNL     1      40.709 -12.908   3.210  1.00  0.00    -0.002 A 
HETATM   20  C   UNL     1      41.813 -12.222   2.674  1.00  0.00     0.012 A 
HETATM   21  C   UNL     1      41.769 -11.690   1.380  1.00  0.00     0.001 A 
HETATM   22  C   UNL     1      40.622 -11.831   0.601  1.00  0.00     0.003 A 
HETATM   23  C   UNL     1      39.525 -12.524   1.104  1.00  0.00     0.037 A 
HETATM   24  C   UNL     1      39.583 -13.067   2.383  1.00  0.00     0.073 A 
BRANCH  24  25
HETATM   25  O   UNL     1      38.499 -13.802   2.790  1.00  0.00    -0.360 OA
HETATM   26  H   UNL     1      37.811 -13.153   3.053  1.00  0.00     0.217 HD
ENDBRANCH  24  25
ENDBRANCH   1  19
TORSDOF 2
ENDMDL
MODEL 4
REMARK VINA RESULT:      -7.6      1.986      2.590
REMARK  2 active torsions:
REMARK  status: ('A' for Active; 'I' for Inactive)
REMARK    1  A    between atoms: C_3  and  C_4 
REMARK    2  A    between atoms: C_19  and  O_20 
ROOT
HETATM    1  C   UNL     1      40.838 -13.520   2.902  1.00  0.00     0.137 C 
HETATM    2  N   UNL     1      40.781 -13.202   4.360  1.00  0.00    -0.278 NA
HETATM    3  C   UNL     1      42.031 -12.837   4.940  1.00  0.00     0.036 A 
HETATM    4  C   UNL     1      42.721 -11.649   4.600  1.00  0.00     0.053 A 
HETATM    5  N   UNL     1      42.293 -10.760   3.586  1.00  0.00    -0.356 N 
HETATM    6  C   UNL     1      41.686 -11.133   2.409  1.00  0.00     0.041 A 
HETATM    7  C   UNL     1      41.106 -12.303   2.096  1.00  0.00     0.056 A 
HETATM    8  C   UNL     1      40.612 -12.182   0.717  1.00  0.00     0.251 A 
HETATM    9  O   UNL     1      39.989 -13.021   0.097  1.00  0.00    -0.268 OA
HETATM   10  N   UNL     1      40.970 -10.941   0.261  1.00  0.00    -0.351 N 
HETATM   11  C   UNL     1      41.640 -10.171   1.253  1.00  0.00     0.180 A 
HETATM   12  C   UNL     1      42.562 -13.686   5.923  1.00  0.00     0.026 A 
HETATM   13  C   UNL     1      43.751 -13.370   6.579  1.00  0.00     0.002 A 
HETATM   14  C   UNL     1      44.421 -12.193   6.268  1.00  0.00     0.002 A 
HETATM   15  C   UNL     1      43.907 -11.339   5.290  1.00  0.00     0.031 A 
HETATM   16  H   UNL     1      40.205 -12.360   4.446  1.00  0.00     0.128 HD
HETATM   17  H   UNL     1      42.850  -9.913   3.528  1.00  0.00     0.166 HD
HETATM   18  H   UNL     1      40.709 -10.629  -0.665  1.00  0.00     0.163 HD
ENDROOT
BRANCH   1  19
HETATM   19  C   UNL     1      41.686 -14.762   2.653  1.00  0.00    -0.002 A 
HETATM   20  C   UNL     1      42.870 -14.737   1.896  1.00  0.00     0.012 A 
HETATM   21  C   UNL     1      43.580 -15.915   1.635  1.00  0.00     0.001 A 
HETATM   22  C   UNL     1      43.118 -17.137   2.121  1.00  0.00     0.003 A 
HETATM   23  C   UNL     1      41.958 -17.182   2.889  1.00  0.00     0.037 A 
HETATM   24  C   UNL     1      41.269 -16.005   3.162  1.00  0.00     0.073 A 
BRANCH  24  25
HETATM   25  O   UNL     1      40.178 -16.107   3.985  1.00  0.00    -0.360 OA
HETATM   26  H   UNL     1      40.471 -15.799   4.870  1.00  0.00     0.217 HD
ENDBRANCH  24  25
ENDBRANCH   1  19
TORSDOF 2
ENDMDL
MODEL 5
REMARK VINA RESULT:      -7.5      1.990      5.095
REMARK  2 active torsions:
REMARK  status: ('A' for Active; 'I' for Inactive)
REMARK    1  A    between atoms: C_3  and  C_4 
REMARK    2  A    between atoms: C_19  and  O_20 
ROOT
HETATM    1  C   UNL     1      41.445 -14.990   4.989  1.00  0.00     0.137 C 
HETATM    2  N   UNL     1      40.131 -15.021   4.281  1.00  0.00    -0.278 NA
HETATM    3  C   UNL     1      40.178 -14.604   2.918  1.00  0.00     0.036 A 
HETATM    4  C   UNL     1      40.857 -15.332   1.913  1.00  0.00     0.053 A 
HETATM    5  N   UNL     1      41.635 -16.485   2.173  1.00  0.00    -0.356 N 
HETATM    6  C   UNL     1      42.404 -16.685   3.296  1.00  0.00     0.041 A 
HETATM    7  C   UNL     1      42.360 -16.038   4.471  1.00  0.00     0.056 A 
HETATM    8  C   UNL     1      43.390 -16.638   5.331  1.00  0.00     0.251 A 
HETATM    9  O   UNL     1      43.624 -16.349   6.488  1.00  0.00    -0.268 OA
HETATM   10  N   UNL     1      44.032 -17.597   4.594  1.00  0.00    -0.351 N 
HETATM   11  C   UNL     1      43.481 -17.736   3.288  1.00  0.00     0.180 A 
HETATM   12  C   UNL     1      39.475 -13.440   2.572  1.00  0.00     0.026 A 
HETATM   13  C   UNL     1      39.425 -12.998   1.251  1.00  0.00     0.002 A 
HETATM   14  C   UNL     1      40.068 -13.722   0.254  1.00  0.00     0.002 A 
HETATM   15  C   UNL     1      40.774 -14.880   0.583  1.00  0.00     0.031 A 
HETATM   16  H   UNL     1      39.854 -16.006   4.236  1.00  0.00     0.128 HD
HETATM   17  H   UNL     1      41.982 -16.938   1.333  1.00  0.00     0.166 HD
HETATM   18  H   UNL     1      44.769 -18.161   4.996  1.00  0.00     0.163 HD
ENDROOT
BRANCH   1  19
HETATM   19  C   UNL     1      41.963 -13.561   5.106  1.00  0.00    -0.002 A 
HETATM   20  C   UNL     1      43.104 -13.105   4.423  1.00  0.00     0.012 A 
HETATM   21  C   UNL     1      43.582 -11.804   4.613  1.00  0.00     0.001 A 
HETATM   22  C   UNL     1      42.934 -10.938   5.491  1.00  0.00     0.003 A 
HETATM   23  C   UNL     1      41.791 -11.361   6.162  1.00  0.00     0.037 A 
HETATM   24  C   UNL     1      41.308 -12.649   5.953  1.00  0.00     0.073 A 
BRANCH  24  25
HETATM   25  O   UNL     1      40.138 -12.979   6.585  1.00  0.00    -0.360 OA
HETATM   26  H   UNL     1      39.621 -12.148   6.659  1.00  0.00     0.217 HD
ENDBRANCH  24  25
ENDBRANCH   1  19
TORSDOF 2
ENDMDL
MODEL 6
REMARK VINA RESULT:      -7.3      2.088      4.145
REMARK  2 active torsions:
REMARK  status: ('A' for Active; 'I' for Inactive)
REMARK    1  A    between atoms: C_3  and  C_4 
REMARK    2  A    between atoms: C_19  and  O_20 
ROOT
HETATM    1  C   UNL     1      41.175 -14.228   4.910  1.00  0.00     0.137 C 
HETATM    2  N   UNL     1      39.903 -13.584   5.355  1.00  0.00    -0.278 NA
HETATM    3  C   UNL     1      39.467 -12.500   4.537  1.00  0.00     0.036 A 
HETATM    4  C   UNL     1      39.040 -12.666   3.199  1.00  0.00     0.053 A 
HETATM    5  N   UNL     1      39.094 -13.900   2.509  1.00  0.00    -0.356 N 
HETATM    6  C   UNL     1      40.082 -14.848   2.657  1.00  0.00     0.041 A 
HETATM    7  C   UNL     1      40.986 -14.973   3.641  1.00  0.00     0.056 A 
HETATM    8  C   UNL     1      41.807 -16.149   3.322  1.00  0.00     0.251 A 
HETATM    9  O   UNL     1      42.704 -16.611   4.001  1.00  0.00    -0.268 OA
HETATM   10  N   UNL     1      41.368 -16.644   2.122  1.00  0.00    -0.351 N 
HETATM   11  C   UNL     1      40.259 -15.913   1.609  1.00  0.00     0.180 A 
HETATM   12  C   UNL     1      39.426 -11.224   5.121  1.00  0.00     0.026 A 
HETATM   13  C   UNL     1      38.958 -10.123   4.407  1.00  0.00     0.002 A 
HETATM   14  C   UNL     1      38.513 -10.283   3.101  1.00  0.00     0.002 A 
HETATM   15  C   UNL     1      38.550 -11.545   2.504  1.00  0.00     0.031 A 
HETATM   16  H   UNL     1      39.172 -14.293   5.248  1.00  0.00     0.128 HD
HETATM   17  H   UNL     1      38.669 -13.869   1.588  1.00  0.00     0.166 HD
HETATM   18  H   UNL     1      41.777 -17.475   1.718  1.00  0.00     0.163 HD
ENDROOT
BRANCH   1  19
HETATM   19  C   UNL     1      42.341 -13.253   5.019  1.00  0.00    -0.002 A 
HETATM   20  C   UNL     1      42.778 -12.464   3.940  1.00  0.00     0.012 A 
HETATM   21  C   UNL     1      43.896 -11.632   4.065  1.00  0.00     0.001 A 
HETATM   22  C   UNL     1      44.600 -11.577   5.267  1.00  0.00     0.003 A 
HETATM   23  C   UNL     1      44.174 -12.334   6.354  1.00  0.00     0.037 A 
HETATM   24  C   UNL     1      43.049 -13.143   6.229  1.00  0.00     0.073 A 
BRANCH  24  25
HETATM   25  O   UNL     1      42.637 -13.804   7.357  1.00  0.00    -0.360 OA
HETATM   26  H   UNL     1      42.434 -13.113   8.022  1.00  0.00     0.217 HD
ENDBRANCH  24  25
ENDBRANCH   1  19
TORSDOF 2
ENDMDL
MODEL 7
REMARK VINA RESULT:      -7.2     15.306     16.538
REMARK  2 active torsions:
REMARK  status: ('A' for Active; 'I' for Inactive)
REMARK    1  A    between atoms: C_3  and  C_4 
REMARK    2  A    between atoms: C_19  and  O_20 
ROOT
HETATM    1  C   UNL     1      46.184 -28.648   1.024  1.00  0.00     0.137 C 
HETATM    2  N   UNL     1      47.077 -28.247   2.153  1.00  0.00    -0.278 NA
HETATM    3  C   UNL     1      48.000 -29.250   2.568  1.00  0.00     0.036 A 
HETATM    4  C   UNL     1      49.062 -29.707   1.751  1.00  0.00     0.053 A 
HETATM    5  N   UNL     1      49.253 -29.289   0.413  1.00  0.00    -0.356 N 
HETATM    6  C   UNL     1      48.245 -29.015  -0.484  1.00  0.00     0.041 A 
HETATM    7  C   UNL     1      46.946 -28.783  -0.242  1.00  0.00     0.056 A 
HETATM    8  C   UNL     1      46.303 -28.544  -1.542  1.00  0.00     0.251 A 
HETATM    9  O   UNL     1      45.138 -28.254  -1.731  1.00  0.00    -0.268 OA
HETATM   10  N   UNL     1      47.264 -28.693  -2.508  1.00  0.00    -0.351 N 
HETATM   11  C   UNL     1      48.547 -28.973  -1.958  1.00  0.00     0.180 A 
HETATM   12  C   UNL     1      47.859 -29.763   3.867  1.00  0.00     0.026 A 
HETATM   13  C   UNL     1      48.757 -30.705   4.368  1.00  0.00     0.002 A 
HETATM   14  C   UNL     1      49.816 -31.139   3.580  1.00  0.00     0.002 A 
HETATM   15  C   UNL     1      49.968 -30.640   2.285  1.00  0.00     0.031 A 
HETATM   16  H   UNL     1      47.667 -27.491   1.794  1.00  0.00     0.128 HD
HETATM   17  H   UNL     1      50.109 -29.642  -0.004  1.00  0.00     0.166 HD
HETATM   18  H   UNL     1      47.049 -28.548  -3.485  1.00  0.00     0.163 HD
ENDROOT
BRANCH   1  19
HETATM   19  C   UNL     1      45.260 -29.785   1.445  1.00  0.00    -0.002 A 
HETATM   20  C   UNL     1      45.307 -31.062   0.861  1.00  0.00     0.012 A 
HETATM   21  C   UNL     1      44.394 -32.055   1.231  1.00  0.00     0.001 A 
HETATM   22  C   UNL     1      43.414 -31.789   2.186  1.00  0.00     0.003 A 
HETATM   23  C   UNL     1      43.361 -30.538   2.792  1.00  0.00     0.037 A 
HETATM   24  C   UNL     1      44.286 -29.561   2.435  1.00  0.00     0.073 A 
BRANCH  24  25
HETATM   25  O   UNL     1      44.227 -28.377   3.122  1.00  0.00    -0.360 OA
HETATM   26  H   UNL     1      43.296 -28.071   3.063  1.00  0.00     0.217 HD
ENDBRANCH  24  25
ENDBRANCH   1  19
TORSDOF 2
ENDMDL
MODEL 8
REMARK VINA RESULT:      -7.2      7.746      9.461
REMARK  2 active torsions:
REMARK  status: ('A' for Active; 'I' for Inactive)
REMARK    1  A    between atoms: C_3  and  C_4 
REMARK    2  A    between atoms: C_19  and  O_20 
ROOT
HETATM    1  C   UNL     1      42.491  -9.770  10.785  1.00  0.00     0.137 C 
HETATM    2  N   UNL     1      41.209  -9.638  10.031  1.00  0.00    -0.278 NA
HETATM    3  C   UNL     1      40.862  -8.302   9.674  1.00  0.00     0.036 A 
HETATM    4  C   UNL     1      41.608  -7.532   8.751  1.00  0.00     0.053 A 
HETATM    5  N   UNL     1      42.821  -7.970   8.167  1.00  0.00    -0.356 N 
HETATM    6  C   UNL     1      43.774  -8.735   8.800  1.00  0.00     0.041 A 
HETATM    7  C   UNL     1      43.658  -9.464   9.921  1.00  0.00     0.056 A 
HETATM    8  C   UNL     1      44.967 -10.086  10.166  1.00  0.00     0.251 A 
HETATM    9  O   UNL     1      45.245 -10.856  11.065  1.00  0.00    -0.268 OA
HETATM   10  N   UNL     1      45.818  -9.652   9.184  1.00  0.00    -0.351 N 
HETATM   11  C   UNL     1      45.170  -8.803   8.242  1.00  0.00     0.180 A 
HETATM   12  C   UNL     1      39.699  -7.762  10.242  1.00  0.00     0.026 A 
HETATM   13  C   UNL     1      39.261  -6.483   9.901  1.00  0.00     0.002 A 
HETATM   14  C   UNL     1      39.974  -5.731   8.976  1.00  0.00     0.002 A 
HETATM   15  C   UNL     1      41.135  -6.254   8.404  1.00  0.00     0.031 A 
HETATM   16  H   UNL     1      41.357 -10.111   9.134  1.00  0.00     0.128 HD
HETATM   17  H   UNL     1      43.183  -7.338   7.461  1.00  0.00     0.166 HD
HETATM   18  H   UNL     1      46.775  -9.976   9.140  1.00  0.00     0.163 HD
ENDROOT
BRANCH   1  19
HETATM   19  C   UNL     1      42.390  -9.089  12.145  1.00  0.00    -0.002 A 
HETATM   20  C   UNL     1      43.199  -8.000  12.514  1.00  0.00     0.012 A 
HETATM   21  C   UNL     1      43.119  -7.449  13.798  1.00  0.00     0.001 A 
HETATM   22  C   UNL     1      42.234  -7.977  14.736  1.00  0.00     0.003 A 
HETATM   23  C   UNL     1      41.410  -9.042  14.386  1.00  0.00     0.037 A 
HETATM   24  C   UNL     1      41.479  -9.572  13.101  1.00  0.00     0.073 A 
BRANCH  24  25
HETATM   25  O   UNL     1      40.589 -10.568  12.797  1.00  0.00    -0.360 OA
HETATM   26  H   UNL     1      40.486 -11.104  13.612  1.00  0.00     0.217 HD
ENDBRANCH  24  25
ENDBRANCH   1  19
TORSDOF 2
ENDMDL
MODEL 9
REMARK VINA RESULT:      -7.2     15.416     16.755
REMARK  2 active torsions:
REMARK  status: ('A' for Active; 'I' for Inactive)
REMARK    1  A    between atoms: C_3  and  C_4 
REMARK    2  A    between atoms: C_19  and  O_20 
ROOT
HETATM    1  C   UNL     1      47.140 -29.421   2.585  1.00  0.00     0.137 C 
HETATM    2  N   UNL     1      47.071 -28.104   1.883  1.00  0.00    -0.278 NA
HETATM    3  C   UNL     1      46.698 -28.180   0.509  1.00  0.00     0.036 A 
HETATM    4  C   UNL     1      45.416 -28.597   0.079  1.00  0.00     0.053 A 
HETATM    5  N   UNL     1      44.413 -29.071   0.958  1.00  0.00    -0.356 N 
HETATM    6  C   UNL     1      44.641 -29.826   2.086  1.00  0.00     0.041 A 
HETATM    7  C   UNL     1      45.789 -30.011   2.756  1.00  0.00     0.056 A 
HETATM    8  C   UNL     1      45.488 -30.902   3.886  1.00  0.00     0.251 A 
HETATM    9  O   UNL     1      46.265 -31.265   4.747  1.00  0.00    -0.268 OA
HETATM   10  N   UNL     1      44.163 -31.239   3.800  1.00  0.00    -0.351 N 
HETATM   11  C   UNL     1      43.510 -30.599   2.709  1.00  0.00     0.180 A 
HETATM   12  C   UNL     1      47.647 -27.776  -0.442  1.00  0.00     0.026 A 
HETATM   13  C   UNL     1      47.341 -27.767  -1.802  1.00  0.00     0.002 A 
HETATM   14  C   UNL     1      46.076 -28.150  -2.230  1.00  0.00     0.002 A 
HETATM   15  C   UNL     1      45.122 -28.558  -1.296  1.00  0.00     0.031 A 
HETATM   16  H   UNL     1      46.306 -27.586   2.325  1.00  0.00     0.128 HD
HETATM   17  H   UNL     1      43.523 -29.246   0.501  1.00  0.00     0.166 HD
HETATM   18  H   UNL     1      43.728 -31.830   4.496  1.00  0.00     0.163 HD
ENDROOT
BRANCH   1  19
HETATM   19  C   UNL     1      48.247 -30.288   1.997  1.00  0.00    -0.002 A 
HETATM   20  C   UNL     1      47.989 -31.416   1.198  1.00  0.00     0.012 A 
HETATM   21  C   UNL     1      49.035 -32.223   0.736  1.00  0.00     0.001 A 
HETATM   22  C   UNL     1      50.355 -31.922   1.068  1.00  0.00     0.003 A 
HETATM   23  C   UNL     1      50.635 -30.799   1.842  1.00  0.00     0.037 A 
HETATM   24  C   UNL     1      49.592 -29.989   2.280  1.00  0.00     0.073 A 
BRANCH  24  25
HETATM   25  O   UNL     1      49.939 -28.859   2.974  1.00  0.00    -0.360 OA
HETATM   26  H   UNL     1      50.273 -29.163   3.845  1.00  0.00     0.217 HD
ENDBRANCH  24  25
ENDBRANCH   1  19
TORSDOF 2
ENDMDL
MODEL 10
REMARK VINA RESULT:      -7.2      7.104      8.750
REMARK  2 active torsions:
REMARK  status: ('A' for Active; 'I' for Inactive)
REMARK    1  A    between atoms: C_3  and  C_4 
REMARK    2  A    between atoms: C_19  and  O_20 
ROOT
HETATM    1  C   UNL     1      41.560  -9.524  10.146  1.00  0.00     0.137 C 
HETATM    2  N   UNL     1      41.403  -9.570  11.631  1.00  0.00    -0.278 NA
HETATM    3  C   UNL     1      41.753  -8.363  12.304  1.00  0.00     0.036 A 
HETATM    4  C   UNL     1      41.024  -7.159  12.159  1.00  0.00     0.053 A 
HETATM    5  N   UNL     1      39.941  -7.005  11.260  1.00  0.00    -0.356 N 
HETATM    6  C   UNL     1      39.851  -7.594  10.019  1.00  0.00     0.041 A 
HETATM    7  C   UNL     1      40.552  -8.627   9.526  1.00  0.00     0.056 A 
HETATM    8  C   UNL     1      40.069  -8.861   8.159  1.00  0.00     0.251 A 
HETATM    9  O   UNL     1      40.431  -9.743   7.404  1.00  0.00    -0.268 OA
HETATM   10  N   UNL     1      39.119  -7.910   7.891  1.00  0.00    -0.351 N 
HETATM   11  C   UNL     1      38.877  -7.058   9.006  1.00  0.00     0.180 A 
HETATM   12  C   UNL     1      42.847  -8.404  13.182  1.00  0.00     0.026 A 
HETATM   13  C   UNL     1      43.218  -7.282  13.921  1.00  0.00     0.002 A 
HETATM   14  C   UNL     1      42.491  -6.104  13.802  1.00  0.00     0.002 A 
HETATM   15  C   UNL     1      41.401  -6.046  12.931  1.00  0.00     0.031 A 
HETATM   16  H   UNL     1      40.401  -9.679  11.809  1.00  0.00     0.128 HD
HETATM   17  H   UNL     1      39.471  -6.109  11.341  1.00  0.00     0.166 HD
HETATM   18  H   UNL     1      38.628  -7.895   7.007  1.00  0.00     0.163 HD
ENDROOT
BRANCH   1  19
HETATM   19  C   UNL     1      43.024  -9.352   9.763  1.00  0.00    -0.002 A 
HETATM   20  C   UNL     1      43.502  -8.236   9.054  1.00  0.00     0.012 A 
HETATM   21  C   UNL     1      44.843  -8.153   8.663  1.00  0.00     0.001 A 
HETATM   22  C   UNL     1      45.729  -9.184   8.968  1.00  0.00     0.003 A 
HETATM   23  C   UNL     1      45.283 -10.290   9.686  1.00  0.00     0.037 A 
HETATM   24  C   UNL     1      43.953 -10.356  10.090  1.00  0.00     0.073 A 
BRANCH  24  25
HETATM   25  O   UNL     1      43.596 -11.434  10.857  1.00  0.00    -0.360 OA
HETATM   26  H   UNL     1      42.620 -11.392  10.952  1.00  0.00     0.217 HD
ENDBRANCH  24  25
ENDBRANCH   1  19
TORSDOF 2
ENDMDL
