MODEL 1
REMARK VINA RESULT:      -9.1      0.000      0.000
REMARK  8 active torsions:
REMARK  status: ('A' for Active; 'I' for Inactive)
REMARK    1  A    between atoms: C_2  and  C_3 
REMARK    2  A    between atoms: C_3  and  C_4 
REMARK    3  A    between atoms: C_7  and  N_8 
REMARK       I    between atoms: N_8  and  C_9 
REMARK    4  A    between atoms: C_9  and  C_10 
REMARK    5  A    between atoms: C_13  and  N_14 
REMARK       I    between atoms: N_14  and  C_15 
REMARK    6  A    between atoms: C_15  and  C_16 
REMARK    7  A    between atoms: C_16  and  C_17 
REMARK    8  A    between atoms: C_19  and  N_20 
ROOT
HETATM    1  C   UNL     1      44.467 -10.796   8.264  1.00  0.00     0.032 A 
HETATM    2  C   UNL     1      45.475 -10.457   9.173  1.00  0.00     0.019 A 
HETATM    3  C   UNL     1      45.211  -9.563  10.221  1.00  0.00     0.030 A 
HETATM    4  C   UNL     1      43.948  -8.987  10.368  1.00  0.00     0.034 A 
HETATM    5  C   UNL     1      42.956  -9.291   9.430  1.00  0.00     0.030 A 
HETATM    6  C   UNL     1      43.213 -10.186   8.386  1.00  0.00     0.019 A 
ENDROOT
BRANCH   4   7
HETATM    7  N   UNL     1      43.593  -8.109  11.415  1.00  0.00    -0.327 N 
HETATM    8  C   UNL     1      43.020  -8.439  12.630  1.00  0.00     0.223 C 
HETATM    9  O   UNL     1      42.701  -9.563  13.001  1.00  0.00    -0.273 OA
HETATM   10  H   UNL     1      43.772  -7.128  11.240  1.00  0.00     0.169 HD
BRANCH   8  11
HETATM   11  C   UNL     1      42.752  -7.228  13.500  1.00  0.00     0.128 C 
BRANCH  11  12
HETATM   12  C   UNL     1      41.411  -7.372  14.207  1.00  0.00     0.158 C 
HETATM   13  S   UNL     1      41.622  -7.855  15.945  1.00  0.00    -0.077 SA
HETATM   14  C   UNL     1      40.476  -6.624  16.448  1.00  0.00     0.168 C 
HETATM   15  N   UNL     1      40.097  -5.808  15.518  1.00  0.00    -0.189 NA
HETATM   16  C   UNL     1      40.674  -6.053  14.295  1.00  0.00     0.260 C 
HETATM   17  O   UNL     1      40.583  -5.285  13.344  1.00  0.00    -0.270 OA
BRANCH  14  18
HETATM   18  N   UNL     1      40.021  -6.600  17.748  1.00  0.00    -0.360 N 
HETATM   19  C   UNL     1      39.733  -7.800  18.540  1.00  0.00     0.125 C 
HETATM   20  C   UNL     1      40.950  -8.139  19.403  1.00  0.00     0.020 C 
HETATM   21  C   UNL     1      41.347  -6.953  20.284  1.00  0.00     0.003 C 
HETATM   22  C   UNL     1      41.519  -5.679  19.454  1.00  0.00     0.020 C 
HETATM   23  C   UNL     1      40.289  -5.422  18.585  1.00  0.00     0.125 C 
ENDBRANCH  14  18
ENDBRANCH  11  12
ENDBRANCH   8  11
ENDBRANCH   4   7
BRANCH   1  24
HETATM   24  C   UNL     1      44.650 -11.800   7.171  1.00  0.00     0.256 C 
HETATM   25  N   UNL     1      43.682 -12.786   7.094  1.00  0.00    -0.323 N 
HETATM   26  H   UNL     1      42.958 -12.790   7.798  1.00  0.00     0.169 HD
HETATM   27  O   UNL     1      45.602 -11.655   6.412  1.00  0.00    -0.267 OA
BRANCH  25  28
HETATM   28  C   UNL     1      43.513 -13.741   6.069  1.00  0.00     0.035 A 
HETATM   29  C   UNL     1      42.994 -13.451   4.808  1.00  0.00     0.030 A 
HETATM   30  C   UNL     1      42.780 -14.472   3.871  1.00  0.00     0.010 A 
HETATM   31  C   UNL     1      43.104 -15.802   4.166  1.00  0.00    -0.054 A 
HETATM   32  C   UNL     1      43.644 -16.085   5.429  1.00  0.00     0.010 A 
HETATM   33  C   UNL     1      43.841 -15.068   6.369  1.00  0.00     0.030 A 
BRANCH  31  34
HETATM   34  C   UNL     1      42.829 -16.948   3.204  1.00  0.00     0.014 C 
HETATM   35  C   UNL     1      42.915 -16.423   1.764  1.00  0.00     0.015 C 
BRANCH  34  36
HETATM   36  C   UNL     1      43.731 -18.189   3.362  1.00  0.00     0.004 C 
HETATM   37  C   UNL     1      43.411 -19.299   2.369  1.00  0.00     0.006 C 
ENDBRANCH  34  36
ENDBRANCH  31  34
ENDBRANCH  25  28
ENDBRANCH   1  24
TORSDOF 8
ENDMDL
MODEL 2
REMARK VINA RESULT:      -9.0      2.077      2.765
REMARK  8 active torsions:
REMARK  status: ('A' for Active; 'I' for Inactive)
REMARK    1  A    between atoms: C_2  and  C_3 
REMARK    2  A    between atoms: C_3  and  C_4 
REMARK    3  A    between atoms: C_7  and  N_8 
REMARK       I    between atoms: N_8  and  C_9 
REMARK    4  A    between atoms: C_9  and  C_10 
REMARK    5  A    between atoms: C_13  and  N_14 
REMARK       I    between atoms: N_14  and  C_15 
REMARK    6  A    between atoms: C_15  and  C_16 
REMARK    7  A    between atoms: C_16  and  C_17 
REMARK    8  A    between atoms: C_19  and  N_20 
ROOT
HETATM    1  C   UNL     1      44.386 -10.933   8.131  1.00  0.00     0.032 A 
HETATM    2  C   UNL     1      45.430 -10.567   8.987  1.00  0.00     0.019 A 
HETATM    3  C   UNL     1      45.205  -9.653  10.026  1.00  0.00     0.030 A 
HETATM    4  C   UNL     1      43.944  -9.084  10.217  1.00  0.00     0.034 A 
HETATM    5  C   UNL     1      42.915  -9.415   9.329  1.00  0.00     0.030 A 
HETATM    6  C   UNL     1      43.134 -10.331   8.294  1.00  0.00     0.019 A 
ENDROOT
BRANCH   4   7
HETATM    7  N   UNL     1      43.628  -8.186  11.258  1.00  0.00    -0.327 N 
HETATM    8  C   UNL     1      43.097  -8.492  12.498  1.00  0.00     0.223 C 
HETATM    9  O   UNL     1      42.788  -9.609  12.901  1.00  0.00    -0.273 OA
HETATM   10  H   UNL     1      43.803  -7.209  11.060  1.00  0.00     0.169 HD
BRANCH   8  11
HETATM   11  C   UNL     1      42.862  -7.265  13.356  1.00  0.00     0.128 C 
BRANCH  11  12
HETATM   12  C   UNL     1      41.579  -6.563  12.933  1.00  0.00     0.158 C 
HETATM   13  S   UNL     1      40.154  -7.135  13.905  1.00  0.00    -0.077 SA
HETATM   14  C   UNL     1      39.640  -5.477  14.164  1.00  0.00     0.168 C 
HETATM   15  N   UNL     1      40.474  -4.570  13.770  1.00  0.00    -0.189 NA
HETATM   16  C   UNL     1      41.627  -5.077  13.219  1.00  0.00     0.260 C 
HETATM   17  O   UNL     1      42.606  -4.387  12.957  1.00  0.00    -0.270 OA
BRANCH  14  18
HETATM   18  N   UNL     1      38.407  -5.221  14.723  1.00  0.00    -0.360 N 
HETATM   19  C   UNL     1      38.193  -4.936  16.146  1.00  0.00     0.125 C 
HETATM   20  C   UNL     1      38.149  -3.421  16.355  1.00  0.00     0.020 C 
HETATM   21  C   UNL     1      37.077  -2.775  15.474  1.00  0.00     0.003 C 
HETATM   22  C   UNL     1      37.241  -3.187  14.011  1.00  0.00     0.020 C 
HETATM   23  C   UNL     1      37.322  -4.707  13.875  1.00  0.00     0.125 C 
ENDBRANCH  14  18
ENDBRANCH  11  12
ENDBRANCH   8  11
ENDBRANCH   4   7
BRANCH   1  24
HETATM   24  C   UNL     1      44.530 -11.960   7.052  1.00  0.00     0.256 C 
HETATM   25  N   UNL     1      43.639 -13.017   7.108  1.00  0.00    -0.323 N 
HETATM   26  H   UNL     1      42.997 -13.050   7.886  1.00  0.00     0.169 HD
HETATM   27  O   UNL     1      45.382 -11.771   6.191  1.00  0.00    -0.267 OA
BRANCH  25  28
HETATM   28  C   UNL     1      43.437 -14.018   6.134  1.00  0.00     0.035 A 
HETATM   29  C   UNL     1      43.771 -15.360   6.309  1.00  0.00     0.030 A 
HETATM   30  C   UNL     1      43.616 -16.278   5.261  1.00  0.00     0.010 A 
HETATM   31  C   UNL     1      43.098 -15.879   4.023  1.00  0.00    -0.054 A 
HETATM   32  C   UNL     1      42.745 -14.532   3.859  1.00  0.00     0.010 A 
HETATM   33  C   UNL     1      42.917 -13.614   4.899  1.00  0.00     0.030 A 
BRANCH  31  34
HETATM   34  C   UNL     1      42.973 -16.828   2.840  1.00  0.00     0.014 C 
HETATM   35  C   UNL     1      43.317 -16.067   1.552  1.00  0.00     0.015 C 
BRANCH  34  36
HETATM   36  C   UNL     1      43.814 -18.119   2.924  1.00  0.00     0.004 C 
HETATM   37  C   UNL     1      43.169 -19.306   2.220  1.00  0.00     0.006 C 
ENDBRANCH  34  36
ENDBRANCH  31  34
ENDBRANCH  25  28
ENDBRANCH   1  24
TORSDOF 8
ENDMDL
MODEL 3
REMARK VINA RESULT:      -8.7      2.565      4.473
REMARK  8 active torsions:
REMARK  status: ('A' for Active; 'I' for Inactive)
REMARK    1  A    between atoms: C_2  and  C_3 
REMARK    2  A    between atoms: C_3  and  C_4 
REMARK    3  A    between atoms: C_7  and  N_8 
REMARK       I    between atoms: N_8  and  C_9 
REMARK    4  A    between atoms: C_9  and  C_10 
REMARK    5  A    between atoms: C_13  and  N_14 
REMARK       I    between atoms: N_14  and  C_15 
REMARK    6  A    between atoms: C_15  and  C_16 
REMARK    7  A    between atoms: C_16  and  C_17 
REMARK    8  A    between atoms: C_19  and  N_20 
ROOT
HETATM    1  C   UNL     1      44.425 -10.894   8.222  1.00  0.00     0.032 A 
HETATM    2  C   UNL     1      45.508 -10.584   9.050  1.00  0.00     0.019 A 
HETATM    3  C   UNL     1      45.341  -9.715  10.138  1.00  0.00     0.030 A 
HETATM    4  C   UNL     1      44.100  -9.135  10.406  1.00  0.00     0.034 A 
HETATM    5  C   UNL     1      43.030  -9.409   9.547  1.00  0.00     0.030 A 
HETATM    6  C   UNL     1      43.191 -10.280   8.464  1.00  0.00     0.019 A 
ENDROOT
BRANCH   4   7
HETATM    7  N   UNL     1      43.842  -8.282  11.499  1.00  0.00    -0.327 N 
HETATM    8  C   UNL     1      43.162  -8.591  12.663  1.00  0.00     0.223 C 
HETATM    9  O   UNL     1      42.644  -9.668  12.938  1.00  0.00    -0.273 OA
HETATM   10  H   UNL     1      44.188  -7.335  11.404  1.00  0.00     0.169 HD
BRANCH   8  11
HETATM   11  C   UNL     1      43.052  -7.412  13.610  1.00  0.00     0.128 C 
BRANCH  11  12
HETATM   12  C   UNL     1      41.754  -6.657  13.365  1.00  0.00     0.158 C 
HETATM   13  S   UNL     1      41.397  -6.500  11.591  1.00  0.00    -0.077 SA
HETATM   14  C   UNL     1      39.736  -7.001  11.859  1.00  0.00     0.168 C 
HETATM   15  N   UNL     1      39.472  -7.424  13.052  1.00  0.00    -0.189 NA
HETATM   16  C   UNL     1      40.553  -7.410  13.900  1.00  0.00     0.260 C 
HETATM   17  O   UNL     1      40.547  -7.938  15.006  1.00  0.00    -0.270 OA
BRANCH  14  18
HETATM   18  N   UNL     1      38.815  -6.896  10.839  1.00  0.00    -0.360 N 
HETATM   19  C   UNL     1      38.419  -5.628  10.218  1.00  0.00     0.125 C 
HETATM   20  C   UNL     1      39.242  -5.411   8.947  1.00  0.00     0.020 C 
HETATM   21  C   UNL     1      39.093  -6.593   7.985  1.00  0.00     0.003 C 
HETATM   22  C   UNL     1      39.387  -7.919   8.688  1.00  0.00     0.020 C 
HETATM   23  C   UNL     1      38.566  -8.054   9.969  1.00  0.00     0.125 C 
ENDBRANCH  14  18
ENDBRANCH  11  12
ENDBRANCH   8  11
ENDBRANCH   4   7
BRANCH   1  24
HETATM   24  C   UNL     1      44.507 -11.872   7.092  1.00  0.00     0.256 C 
HETATM   25  N   UNL     1      43.769 -13.032   7.250  1.00  0.00    -0.323 N 
HETATM   26  H   UNL     1      43.274 -13.160   8.120  1.00  0.00     0.169 HD
HETATM   27  O   UNL     1      45.175 -11.562   6.112  1.00  0.00    -0.267 OA
BRANCH  25  28
HETATM   28  C   UNL     1      43.527 -14.030   6.281  1.00  0.00     0.035 A 
HETATM   29  C   UNL     1      43.929 -15.358   6.408  1.00  0.00     0.030 A 
HETATM   30  C   UNL     1      43.724 -16.270   5.363  1.00  0.00     0.010 A 
HETATM   31  C   UNL     1      43.087 -15.879   4.178  1.00  0.00    -0.054 A 
HETATM   32  C   UNL     1      42.667 -14.546   4.064  1.00  0.00     0.010 A 
HETATM   33  C   UNL     1      42.888 -13.633   5.100  1.00  0.00     0.030 A 
BRANCH  31  34
HETATM   34  C   UNL     1      42.903 -16.819   2.996  1.00  0.00     0.014 C 
HETATM   35  C   UNL     1      43.298 -16.083   1.708  1.00  0.00     0.015 C 
BRANCH  34  36
HETATM   36  C   UNL     1      43.657 -18.162   3.082  1.00  0.00     0.004 C 
HETATM   37  C   UNL     1      43.117 -19.219   2.128  1.00  0.00     0.006 C 
ENDBRANCH  34  36
ENDBRANCH  31  34
ENDBRANCH  25  28
ENDBRANCH   1  24
TORSDOF 8
ENDMDL
MODEL 4
REMARK VINA RESULT:      -8.7      4.754     14.120
REMARK  8 active torsions:
REMARK  status: ('A' for Active; 'I' for Inactive)
REMARK    1  A    between atoms: C_2  and  C_3 
REMARK    2  A    between atoms: C_3  and  C_4 
REMARK    3  A    between atoms: C_7  and  N_8 
REMARK       I    between atoms: N_8  and  C_9 
REMARK    4  A    between atoms: C_9  and  C_10 
REMARK    5  A    between atoms: C_13  and  N_14 
REMARK       I    between atoms: N_14  and  C_15 
REMARK    6  A    between atoms: C_15  and  C_16 
REMARK    7  A    between atoms: C_16  and  C_17 
REMARK    8  A    between atoms: C_19  and  N_20 
ROOT
HETATM    1  C   UNL     1      43.771 -10.397   8.275  1.00  0.00     0.032 A 
HETATM    2  C   UNL     1      42.743  -9.991   7.417  1.00  0.00     0.019 A 
HETATM    3  C   UNL     1      42.547 -10.643   6.190  1.00  0.00     0.030 A 
HETATM    4  C   UNL     1      43.377 -11.695   5.799  1.00  0.00     0.034 A 
HETATM    5  C   UNL     1      44.433 -12.067   6.639  1.00  0.00     0.030 A 
HETATM    6  C   UNL     1      44.629 -11.423   7.865  1.00  0.00     0.019 A 
ENDROOT
BRANCH   4   7
HETATM    7  N   UNL     1      43.223 -12.424   4.601  1.00  0.00    -0.327 N 
HETATM    8  C   UNL     1      42.465 -13.564   4.403  1.00  0.00     0.223 C 
HETATM    9  O   UNL     1      41.804 -14.153   5.252  1.00  0.00    -0.273 OA
HETATM   10  H   UNL     1      43.740 -12.070   3.806  1.00  0.00     0.169 HD
BRANCH   8  11
HETATM   11  C   UNL     1      42.558 -14.092   2.986  1.00  0.00     0.128 C 
BRANCH  11  12
HETATM   12  C   UNL     1      41.227 -13.916   2.268  1.00  0.00     0.158 C 
HETATM   13  S   UNL     1      41.337 -12.665   0.956  1.00  0.00    -0.077 SA
HETATM   14  C   UNL     1      40.511 -13.736  -0.163  1.00  0.00     0.168 C 
HETATM   15  N   UNL     1      40.323 -14.943   0.263  1.00  0.00    -0.189 NA
HETATM   16  C   UNL     1      40.816 -15.171   1.526  1.00  0.00     0.260 C 
HETATM   17  O   UNL     1      40.895 -16.287   2.025  1.00  0.00    -0.270 OA
BRANCH  14  18
HETATM   18  N   UNL     1      40.087 -13.258  -1.384  1.00  0.00    -0.360 N 
HETATM   19  C   UNL     1      40.132 -14.030  -2.629  1.00  0.00     0.125 C 
HETATM   20  C   UNL     1      38.768 -14.681  -2.869  1.00  0.00     0.020 C 
HETATM   21  C   UNL     1      37.653 -13.632  -2.884  1.00  0.00     0.003 C 
HETATM   22  C   UNL     1      37.703 -12.752  -1.634  1.00  0.00     0.020 C 
HETATM   23  C   UNL     1      39.100 -12.169  -1.429  1.00  0.00     0.125 C 
ENDBRANCH  14  18
ENDBRANCH  11  12
ENDBRANCH   8  11
ENDBRANCH   4   7
BRANCH   1  24
HETATM   24  C   UNL     1      43.991  -9.804   9.631  1.00  0.00     0.256 C 
HETATM   25  N   UNL     1      42.869  -9.272  10.241  1.00  0.00    -0.323 N 
HETATM   26  H   UNL     1      42.004  -9.275   9.721  1.00  0.00     0.169 HD
HETATM   27  O   UNL     1      45.118  -9.870  10.109  1.00  0.00    -0.267 OA
BRANCH  25  28
HETATM   28  C   UNL     1      42.755  -8.816  11.573  1.00  0.00     0.035 A 
HETATM   29  C   UNL     1      42.514  -9.646  12.666  1.00  0.00     0.030 A 
HETATM   30  C   UNL     1      42.331  -9.106  13.947  1.00  0.00     0.010 A 
HETATM   31  C   UNL     1      42.411  -7.725  14.166  1.00  0.00    -0.054 A 
HETATM   32  C   UNL     1      42.673  -6.897  13.066  1.00  0.00     0.010 A 
HETATM   33  C   UNL     1      42.838  -7.435  11.786  1.00  0.00     0.030 A 
BRANCH  31  34
HETATM   34  C   UNL     1      42.156  -7.094  15.526  1.00  0.00     0.014 C 
HETATM   35  C   UNL     1      41.567  -5.691  15.322  1.00  0.00     0.015 C 
BRANCH  34  36
HETATM   36  C   UNL     1      41.256  -7.903  16.484  1.00  0.00     0.004 C 
HETATM   37  C   UNL     1      41.491  -7.576  17.953  1.00  0.00     0.006 C 
ENDBRANCH  34  36
ENDBRANCH  31  34
ENDBRANCH  25  28
ENDBRANCH   1  24
TORSDOF 8
ENDMDL
MODEL 5
REMARK VINA RESULT:      -8.5     11.533     15.222
REMARK  8 active torsions:
REMARK  status: ('A' for Active; 'I' for Inactive)
REMARK    1  A    between atoms: C_2  and  C_3 
REMARK    2  A    between atoms: C_3  and  C_4 
REMARK    3  A    between atoms: C_7  and  N_8 
REMARK       I    between atoms: N_8  and  C_9 
REMARK    4  A    between atoms: C_9  and  C_10 
REMARK    5  A    between atoms: C_13  and  N_14 
REMARK       I    between atoms: N_14  and  C_15 
REMARK    6  A    between atoms: C_15  and  C_16 
REMARK    7  A    between atoms: C_16  and  C_17 
REMARK    8  A    between atoms: C_19  and  N_20 
ROOT
HETATM    1  C   UNL     1      39.850 -13.433   0.141  1.00  0.00     0.032 A 
HETATM    2  C   UNL     1      39.549 -14.053  -1.077  1.00  0.00     0.019 A 
HETATM    3  C   UNL     1      38.582 -13.503  -1.930  1.00  0.00     0.030 A 
HETATM    4  C   UNL     1      37.895 -12.340  -1.577  1.00  0.00     0.034 A 
HETATM    5  C   UNL     1      38.165 -11.750  -0.337  1.00  0.00     0.030 A 
HETATM    6  C   UNL     1      39.132 -12.292   0.515  1.00  0.00     0.019 A 
ENDROOT
BRANCH   4   7
HETATM    7  N   UNL     1      36.937 -11.705  -2.395  1.00  0.00    -0.327 N 
HETATM    8  C   UNL     1      37.134 -10.626  -3.237  1.00  0.00     0.223 C 
HETATM    9  O   UNL     1      38.185 -10.016  -3.403  1.00  0.00    -0.273 OA
HETATM   10  H   UNL     1      35.999 -12.084  -2.342  1.00  0.00     0.169 HD
BRANCH   8  11
HETATM   11  C   UNL     1      35.864 -10.192  -3.943  1.00  0.00     0.128 C 
BRANCH  11  12
HETATM   12  C   UNL     1      34.644 -10.581  -3.121  1.00  0.00     0.158 C 
HETATM   13  S   UNL     1      33.681  -9.122  -2.626  1.00  0.00    -0.077 SA
HETATM   14  C   UNL     1      32.193  -9.910  -3.123  1.00  0.00     0.168 C 
HETATM   15  N   UNL     1      32.344 -11.029  -3.754  1.00  0.00    -0.189 NA
HETATM   16  C   UNL     1      33.656 -11.398  -3.927  1.00  0.00     0.260 C 
HETATM   17  O   UNL     1      34.004 -12.323  -4.652  1.00  0.00    -0.270 OA
BRANCH  14  18
HETATM   18  N   UNL     1      30.978  -9.344  -2.805  1.00  0.00    -0.360 N 
HETATM   19  C   UNL     1      29.687 -10.019  -2.977  1.00  0.00     0.125 C 
HETATM   20  C   UNL     1      29.274 -10.661  -1.652  1.00  0.00     0.020 C 
HETATM   21  C   UNL     1      29.233  -9.625  -0.526  1.00  0.00     0.003 C 
HETATM   22  C   UNL     1      30.545  -8.842  -0.446  1.00  0.00     0.020 C 
HETATM   23  C   UNL     1      30.922  -8.264  -1.809  1.00  0.00     0.125 C 
ENDBRANCH  14  18
ENDBRANCH  11  12
ENDBRANCH   8  11
ENDBRANCH   4   7
BRANCH   1  24
HETATM   24  C   UNL     1      40.923 -13.916   1.065  1.00  0.00     0.256 C 
HETATM   25  N   UNL     1      40.706 -15.156   1.640  1.00  0.00    -0.323 N 
HETATM   26  H   UNL     1      39.832 -15.620   1.440  1.00  0.00     0.169 HD
HETATM   27  O   UNL     1      41.916 -13.211   1.209  1.00  0.00    -0.267 OA
BRANCH  25  28
HETATM   28  C   UNL     1      41.620 -15.919   2.399  1.00  0.00     0.035 A 
HETATM   29  C   UNL     1      42.653 -16.676   1.849  1.00  0.00     0.030 A 
HETATM   30  C   UNL     1      43.467 -17.473   2.666  1.00  0.00     0.010 A 
HETATM   31  C   UNL     1      43.284 -17.509   4.053  1.00  0.00    -0.054 A 
HETATM   32  C   UNL     1      42.255 -16.730   4.603  1.00  0.00     0.010 A 
HETATM   33  C   UNL     1      41.432 -15.949   3.785  1.00  0.00     0.030 A 
BRANCH  31  34
HETATM   34  C   UNL     1      44.102 -18.408   4.967  1.00  0.00     0.014 C 
HETATM   35  C   UNL     1      43.417 -18.481   6.339  1.00  0.00     0.015 C 
BRANCH  34  36
HETATM   36  C   UNL     1      44.370 -19.834   4.442  1.00  0.00     0.004 C 
HETATM   37  C   UNL     1      43.817 -20.926   5.349  1.00  0.00     0.006 C 
ENDBRANCH  34  36
ENDBRANCH  31  34
ENDBRANCH  25  28
ENDBRANCH   1  24
TORSDOF 8
ENDMDL
MODEL 6
REMARK VINA RESULT:      -8.5     11.554     16.234
REMARK  8 active torsions:
REMARK  status: ('A' for Active; 'I' for Inactive)
REMARK    1  A    between atoms: C_2  and  C_3 
REMARK    2  A    between atoms: C_3  and  C_4 
REMARK    3  A    between atoms: C_7  and  N_8 
REMARK       I    between atoms: N_8  and  C_9 
REMARK    4  A    between atoms: C_9  and  C_10 
REMARK    5  A    between atoms: C_13  and  N_14 
REMARK       I    between atoms: N_14  and  C_15 
REMARK    6  A    between atoms: C_15  and  C_16 
REMARK    7  A    between atoms: C_16  and  C_17 
REMARK    8  A    between atoms: C_19  and  N_20 
ROOT
HETATM    1  C   UNL     1      40.850 -12.793  -0.137  1.00  0.00     0.032 A 
HETATM    2  C   UNL     1      40.410 -12.846  -1.464  1.00  0.00     0.019 A 
HETATM    3  C   UNL     1      40.381 -11.682  -2.246  1.00  0.00     0.030 A 
HETATM    4  C   UNL     1      40.777 -10.453  -1.714  1.00  0.00     0.034 A 
HETATM    5  C   UNL     1      41.171 -10.396  -0.373  1.00  0.00     0.030 A 
HETATM    6  C   UNL     1      41.207 -11.555   0.409  1.00  0.00     0.019 A 
ENDROOT
BRANCH   4   7
HETATM    7  N   UNL     1      40.811  -9.247  -2.445  1.00  0.00    -0.327 N 
HETATM    8  C   UNL     1      39.750  -8.607  -3.060  1.00  0.00     0.223 C 
HETATM    9  O   UNL     1      38.587  -8.995  -3.091  1.00  0.00    -0.273 OA
HETATM   10  H   UNL     1      41.723  -8.816  -2.533  1.00  0.00     0.169 HD
BRANCH   8  11
HETATM   11  C   UNL     1      40.166  -7.341  -3.781  1.00  0.00     0.128 C 
BRANCH  11  12
HETATM   12  C   UNL     1      41.179  -7.661  -4.870  1.00  0.00     0.158 C 
HETATM   13  S   UNL     1      40.746  -6.860  -6.442  1.00  0.00    -0.077 SA
HETATM   14  C   UNL     1      42.400  -6.306  -6.640  1.00  0.00     0.168 C 
HETATM   15  N   UNL     1      43.172  -6.495  -5.619  1.00  0.00    -0.189 NA
HETATM   16  C   UNL     1      42.548  -7.096  -4.552  1.00  0.00     0.260 C 
HETATM   17  O   UNL     1      43.059  -7.193  -3.442  1.00  0.00    -0.270 OA
BRANCH  14  18
HETATM   18  N   UNL     1      42.798  -5.746  -7.834  1.00  0.00    -0.360 N 
HETATM   19  C   UNL     1      43.490  -4.459  -7.947  1.00  0.00     0.125 C 
HETATM   20  C   UNL     1      44.998  -4.703  -8.029  1.00  0.00     0.020 C 
HETATM   21  C   UNL     1      45.342  -5.643  -9.187  1.00  0.00     0.003 C 
HETATM   22  C   UNL     1      44.514  -6.928  -9.121  1.00  0.00     0.020 C 
HETATM   23  C   UNL     1      43.024  -6.614  -8.998  1.00  0.00     0.125 C 
ENDBRANCH  14  18
ENDBRANCH  11  12
ENDBRANCH   8  11
ENDBRANCH   4   7
BRANCH   1  24
HETATM   24  C   UNL     1      40.984 -14.003   0.733  1.00  0.00     0.256 C 
HETATM   25  N   UNL     1      42.264 -14.280   1.181  1.00  0.00    -0.323 N 
HETATM   26  H   UNL     1      43.014 -13.687   0.858  1.00  0.00     0.169 HD
HETATM   27  O   UNL     1      39.965 -14.623   1.014  1.00  0.00    -0.267 OA
BRANCH  25  28
HETATM   28  C   UNL     1      42.644 -15.240   2.144  1.00  0.00     0.035 A 
HETATM   29  C   UNL     1      42.690 -14.997   3.515  1.00  0.00     0.030 A 
HETATM   30  C   UNL     1      43.159 -15.979   4.400  1.00  0.00     0.010 A 
HETATM   31  C   UNL     1      43.565 -17.236   3.934  1.00  0.00    -0.054 A 
HETATM   32  C   UNL     1      43.497 -17.481   2.555  1.00  0.00     0.010 A 
HETATM   33  C   UNL     1      43.047 -16.494   1.672  1.00  0.00     0.030 A 
BRANCH  31  34
HETATM   34  C   UNL     1      44.139 -18.306   4.850  1.00  0.00     0.014 C 
HETATM   35  C   UNL     1      43.361 -18.300   6.174  1.00  0.00     0.015 C 
BRANCH  34  36
HETATM   36  C   UNL     1      44.175 -19.736   4.272  1.00  0.00     0.004 C 
HETATM   37  C   UNL     1      44.229 -20.818   5.342  1.00  0.00     0.006 C 
ENDBRANCH  34  36
ENDBRANCH  31  34
ENDBRANCH  25  28
ENDBRANCH   1  24
TORSDOF 8
ENDMDL
MODEL 7
REMARK VINA RESULT:      -8.4      2.895     13.552
REMARK  8 active torsions:
REMARK  status: ('A' for Active; 'I' for Inactive)
REMARK    1  A    between atoms: C_2  and  C_3 
REMARK    2  A    between atoms: C_3  and  C_4 
REMARK    3  A    between atoms: C_7  and  N_8 
REMARK       I    between atoms: N_8  and  C_9 
REMARK    4  A    between atoms: C_9  and  C_10 
REMARK    5  A    between atoms: C_13  and  N_14 
REMARK       I    between atoms: N_14  and  C_15 
REMARK    6  A    between atoms: C_15  and  C_16 
REMARK    7  A    between atoms: C_16  and  C_17 
REMARK    8  A    between atoms: C_19  and  N_20 
ROOT
HETATM    1  C   UNL     1      42.493  -8.301  11.766  1.00  0.00     0.032 A 
HETATM    2  C   UNL     1      43.183  -9.473  12.092  1.00  0.00     0.019 A 
HETATM    3  C   UNL     1      43.624 -10.339  11.080  1.00  0.00     0.030 A 
HETATM    4  C   UNL     1      43.373 -10.054   9.737  1.00  0.00     0.034 A 
HETATM    5  C   UNL     1      42.641  -8.905   9.417  1.00  0.00     0.030 A 
HETATM    6  C   UNL     1      42.204  -8.037  10.422  1.00  0.00     0.019 A 
ENDROOT
BRANCH   4   7
HETATM    7  N   UNL     1      43.814 -10.854   8.661  1.00  0.00    -0.327 N 
HETATM    8  C   UNL     1      44.954 -10.678   7.897  1.00  0.00     0.223 C 
HETATM    9  O   UNL     1      45.776  -9.776   8.014  1.00  0.00    -0.273 OA
HETATM   10  H   UNL     1      43.214 -11.634   8.422  1.00  0.00     0.169 HD
BRANCH   8  11
HETATM   11  C   UNL     1      45.094 -11.719   6.804  1.00  0.00     0.128 C 
BRANCH  11  12
HETATM   12  C   UNL     1      43.727 -12.084   6.245  1.00  0.00     0.158 C 
HETATM   13  S   UNL     1      43.716 -12.046   4.428  1.00  0.00    -0.077 SA
HETATM   14  C   UNL     1      42.898 -13.598   4.379  1.00  0.00     0.168 C 
HETATM   15  N   UNL     1      42.790 -14.203   5.518  1.00  0.00    -0.189 NA
HETATM   16  C   UNL     1      43.347 -13.514   6.569  1.00  0.00     0.260 C 
HETATM   17  O   UNL     1      43.505 -14.001   7.683  1.00  0.00    -0.270 OA
BRANCH  14  18
HETATM   18  N   UNL     1      42.398 -14.073   3.186  1.00  0.00    -0.360 N 
HETATM   19  C   UNL     1      43.225 -14.637   2.115  1.00  0.00     0.125 C 
HETATM   20  C   UNL     1      43.244 -16.162   2.244  1.00  0.00     0.020 C 
HETATM   21  C   UNL     1      41.824 -16.733   2.234  1.00  0.00     0.003 C 
HETATM   22  C   UNL     1      40.941 -16.041   3.273  1.00  0.00     0.020 C 
HETATM   23  C   UNL     1      41.000 -14.522   3.117  1.00  0.00     0.125 C 
ENDBRANCH  14  18
ENDBRANCH  11  12
ENDBRANCH   8  11
ENDBRANCH   4   7
BRANCH   1  24
HETATM   24  C   UNL     1      42.062  -7.292  12.783  1.00  0.00     0.256 C 
HETATM   25  N   UNL     1      41.443  -7.804  13.910  1.00  0.00    -0.323 N 
HETATM   26  H   UNL     1      41.283  -8.800  13.947  1.00  0.00     0.169 HD
HETATM   27  O   UNL     1      42.321  -6.113  12.567  1.00  0.00    -0.267 OA
BRANCH  25  28
HETATM   28  C   UNL     1      41.101  -7.106  15.089  1.00  0.00     0.035 A 
HETATM   29  C   UNL     1      39.878  -6.469  15.293  1.00  0.00     0.030 A 
HETATM   30  C   UNL     1      39.646  -5.726  16.459  1.00  0.00     0.010 A 
HETATM   31  C   UNL     1      40.622  -5.627  17.459  1.00  0.00    -0.054 A 
HETATM   32  C   UNL     1      41.843  -6.286  17.256  1.00  0.00     0.010 A 
HETATM   33  C   UNL     1      42.080  -7.013  16.084  1.00  0.00     0.030 A 
BRANCH  31  34
HETATM   34  C   UNL     1      40.436  -4.779  18.708  1.00  0.00     0.014 C 
HETATM   35  C   UNL     1      41.792  -4.618  19.409  1.00  0.00     0.015 C 
BRANCH  34  36
HETATM   36  C   UNL     1      39.794  -3.393  18.489  1.00  0.00     0.004 C 
HETATM   37  C   UNL     1      40.662  -2.448  17.668  1.00  0.00     0.006 C 
ENDBRANCH  34  36
ENDBRANCH  31  34
ENDBRANCH  25  28
ENDBRANCH   1  24
TORSDOF 8
ENDMDL
MODEL 8
REMARK VINA RESULT:      -8.4      3.683      5.285
REMARK  8 active torsions:
REMARK  status: ('A' for Active; 'I' for Inactive)
REMARK    1  A    between atoms: C_2  and  C_3 
REMARK    2  A    between atoms: C_3  and  C_4 
REMARK    3  A    between atoms: C_7  and  N_8 
REMARK       I    between atoms: N_8  and  C_9 
REMARK    4  A    between atoms: C_9  and  C_10 
REMARK    5  A    between atoms: C_13  and  N_14 
REMARK       I    between atoms: N_14  and  C_15 
REMARK    6  A    between atoms: C_15  and  C_16 
REMARK    7  A    between atoms: C_16  and  C_17 
REMARK    8  A    between atoms: C_19  and  N_20 
ROOT
HETATM    1  C   UNL     1      42.245 -11.968   4.706  1.00  0.00     0.032 A 
HETATM    2  C   UNL     1      41.302 -11.203   4.011  1.00  0.00     0.019 A 
HETATM    3  C   UNL     1      40.804 -10.016   4.569  1.00  0.00     0.030 A 
HETATM    4  C   UNL     1      41.227  -9.586   5.828  1.00  0.00     0.034 A 
HETATM    5  C   UNL     1      42.133 -10.378   6.541  1.00  0.00     0.030 A 
HETATM    6  C   UNL     1      42.637 -11.559   5.986  1.00  0.00     0.019 A 
ENDROOT
BRANCH   4   7
HETATM    7  N   UNL     1      40.801  -8.388   6.441  1.00  0.00    -0.327 N 
HETATM    8  C   UNL     1      39.633  -8.178   7.151  1.00  0.00     0.223 C 
HETATM    9  O   UNL     1      38.748  -9.001   7.355  1.00  0.00    -0.273 OA
HETATM   10  H   UNL     1      41.424  -7.597   6.332  1.00  0.00     0.169 HD
BRANCH   8  11
HETATM   11  C   UNL     1      39.495  -6.751   7.645  1.00  0.00     0.128 C 
BRANCH  11  12
HETATM   12  C   UNL     1      40.324  -6.546   8.904  1.00  0.00     0.158 C 
HETATM   13  S   UNL     1      40.070  -7.892  10.097  1.00  0.00    -0.077 SA
HETATM   14  C   UNL     1      41.803  -8.032  10.340  1.00  0.00     0.168 C 
HETATM   15  N   UNL     1      42.533  -7.333   9.533  1.00  0.00    -0.189 NA
HETATM   16  C   UNL     1      41.811  -6.604   8.619  1.00  0.00     0.260 C 
HETATM   17  O   UNL     1      42.321  -6.028   7.664  1.00  0.00    -0.270 OA
BRANCH  14  18
HETATM   18  N   UNL     1      42.292  -8.822  11.358  1.00  0.00    -0.360 N 
HETATM   19  C   UNL     1      43.532  -8.546  12.088  1.00  0.00     0.125 C 
HETATM   20  C   UNL     1      43.200  -7.797  13.380  1.00  0.00     0.020 C 
HETATM   21  C   UNL     1      42.197  -8.582  14.229  1.00  0.00     0.003 C 
HETATM   22  C   UNL     1      40.965  -8.971  13.412  1.00  0.00     0.020 C 
HETATM   23  C   UNL     1      41.367  -9.676  12.117  1.00  0.00     0.125 C 
ENDBRANCH  14  18
ENDBRANCH  11  12
ENDBRANCH   8  11
ENDBRANCH   4   7
BRANCH   1  24
HETATM   24  C   UNL     1      42.880 -13.199   4.143  1.00  0.00     0.256 C 
HETATM   25  N   UNL     1      42.819 -14.326   4.945  1.00  0.00    -0.323 N 
HETATM   26  H   UNL     1      42.402 -14.229   5.859  1.00  0.00     0.169 HD
HETATM   27  O   UNL     1      43.360 -13.133   3.017  1.00  0.00    -0.267 OA
BRANCH  25  28
HETATM   28  C   UNL     1      43.174 -15.646   4.594  1.00  0.00     0.035 A 
HETATM   29  C   UNL     1      42.801 -16.265   3.402  1.00  0.00     0.030 A 
HETATM   30  C   UNL     1      43.124 -17.609   3.164  1.00  0.00     0.010 A 
HETATM   31  C   UNL     1      43.850 -18.354   4.102  1.00  0.00    -0.054 A 
HETATM   32  C   UNL     1      44.239 -17.720   5.290  1.00  0.00     0.010 A 
HETATM   33  C   UNL     1      43.901 -16.385   5.534  1.00  0.00     0.030 A 
BRANCH  31  34
HETATM   34  C   UNL     1      44.164 -19.831   3.912  1.00  0.00     0.014 C 
HETATM   35  C   UNL     1      44.061 -20.542   5.268  1.00  0.00     0.015 C 
BRANCH  34  36
HETATM   36  C   UNL     1      43.304 -20.572   2.867  1.00  0.00     0.004 C 
HETATM   37  C   UNL     1      43.914 -20.568   1.471  1.00  0.00     0.006 C 
ENDBRANCH  34  36
ENDBRANCH  31  34
ENDBRANCH  25  28
ENDBRANCH   1  24
TORSDOF 8
ENDMDL
MODEL 9
REMARK VINA RESULT:      -8.2      3.939      5.218
REMARK  8 active torsions:
REMARK  status: ('A' for Active; 'I' for Inactive)
REMARK    1  A    between atoms: C_2  and  C_3 
REMARK    2  A    between atoms: C_3  and  C_4 
REMARK    3  A    between atoms: C_7  and  N_8 
REMARK       I    between atoms: N_8  and  C_9 
REMARK    4  A    between atoms: C_9  and  C_10 
REMARK    5  A    between atoms: C_13  and  N_14 
REMARK       I    between atoms: N_14  and  C_15 
REMARK    6  A    between atoms: C_15  and  C_16 
REMARK    7  A    between atoms: C_16  and  C_17 
REMARK    8  A    between atoms: C_19  and  N_20 
ROOT
HETATM    1  C   UNL     1      40.842 -11.468   5.878  1.00  0.00     0.032 A 
HETATM    2  C   UNL     1      41.940 -10.720   6.318  1.00  0.00     0.019 A 
HETATM    3  C   UNL     1      41.745  -9.492   6.966  1.00  0.00     0.030 A 
HETATM    4  C   UNL     1      40.459  -8.988   7.171  1.00  0.00     0.034 A 
HETATM    5  C   UNL     1      39.366  -9.715   6.687  1.00  0.00     0.030 A 
HETATM    6  C   UNL     1      39.556 -10.943   6.045  1.00  0.00     0.019 A 
ENDROOT
BRANCH   4   7
HETATM    7  N   UNL     1      40.178  -7.781   7.846  1.00  0.00    -0.327 N 
HETATM    8  C   UNL     1      39.139  -7.532   8.724  1.00  0.00     0.223 C 
HETATM    9  O   UNL     1      38.263  -8.323   9.056  1.00  0.00    -0.273 OA
HETATM   10  H   UNL     1      40.808  -7.014   7.647  1.00  0.00     0.169 HD
BRANCH   8  11
HETATM   11  C   UNL     1      39.133  -6.106   9.238  1.00  0.00     0.128 C 
BRANCH  11  12
HETATM   12  C   UNL     1      40.356  -5.853  10.107  1.00  0.00     0.158 C 
HETATM   13  S   UNL     1      40.654  -7.228  11.257  1.00  0.00    -0.077 SA
HETATM   14  C   UNL     1      42.357  -7.241  10.835  1.00  0.00     0.168 C 
HETATM   15  N   UNL     1      42.687  -6.480   9.841  1.00  0.00    -0.189 NA
HETATM   16  C   UNL     1      41.629  -5.798   9.288  1.00  0.00     0.260 C 
HETATM   17  O   UNL     1      41.708  -5.175   8.235  1.00  0.00    -0.270 OA
BRANCH  14  18
HETATM   18  N   UNL     1      43.240  -8.003  11.568  1.00  0.00    -0.360 N 
HETATM   19  C   UNL     1      43.030  -8.384  12.968  1.00  0.00     0.125 C 
HETATM   20  C   UNL     1      42.412  -9.783  13.022  1.00  0.00     0.020 C 
HETATM   21  C   UNL     1      43.281 -10.798  12.275  1.00  0.00     0.003 C 
HETATM   22  C   UNL     1      43.596 -10.320  10.857  1.00  0.00     0.020 C 
HETATM   23  C   UNL     1      44.168  -8.904  10.870  1.00  0.00     0.125 C 
ENDBRANCH  14  18
ENDBRANCH  11  12
ENDBRANCH   8  11
ENDBRANCH   4   7
BRANCH   1  24
HETATM   24  C   UNL     1      40.968 -12.820   5.251  1.00  0.00     0.256 C 
HETATM   25  N   UNL     1      42.250 -13.339   5.197  1.00  0.00    -0.323 N 
HETATM   26  H   UNL     1      43.006 -12.760   5.533  1.00  0.00     0.169 HD
HETATM   27  O   UNL     1      39.942 -13.377   4.878  1.00  0.00    -0.267 OA
BRANCH  25  28
HETATM   28  C   UNL     1      42.629 -14.648   4.827  1.00  0.00     0.035 A 
HETATM   29  C   UNL     1      43.105 -15.606   5.719  1.00  0.00     0.030 A 
HETATM   30  C   UNL     1      43.539 -16.858   5.259  1.00  0.00     0.010 A 
HETATM   31  C   UNL     1      43.481 -17.187   3.899  1.00  0.00    -0.054 A 
HETATM   32  C   UNL     1      42.982 -16.225   3.008  1.00  0.00     0.010 A 
HETATM   33  C   UNL     1      42.566 -14.971   3.467  1.00  0.00     0.030 A 
BRANCH  31  34
HETATM   34  C   UNL     1      44.000 -18.507   3.350  1.00  0.00     0.014 C 
HETATM   35  C   UNL     1      44.078 -19.527   4.494  1.00  0.00     0.015 C 
BRANCH  34  36
HETATM   36  C   UNL     1      43.204 -19.104   2.171  1.00  0.00     0.004 C 
HETATM   37  C   UNL     1      43.648 -20.511   1.793  1.00  0.00     0.006 C 
ENDBRANCH  34  36
ENDBRANCH  31  34
ENDBRANCH  25  28
ENDBRANCH   1  24
TORSDOF 8
ENDMDL
MODEL 10
REMARK VINA RESULT:      -8.1      2.179      2.995
REMARK  8 active torsions:
REMARK  status: ('A' for Active; 'I' for Inactive)
REMARK    1  A    between atoms: C_2  and  C_3 
REMARK    2  A    between atoms: C_3  and  C_4 
REMARK    3  A    between atoms: C_7  and  N_8 
REMARK       I    between atoms: N_8  and  C_9 
REMARK    4  A    between atoms: C_9  and  C_10 
REMARK    5  A    between atoms: C_13  and  N_14 
REMARK       I    between atoms: N_14  and  C_15 
REMARK    6  A    between atoms: C_15  and  C_16 
REMARK    7  A    between atoms: C_16  and  C_17 
REMARK    8  A    between atoms: C_19  and  N_20 
ROOT
HETATM    1  C   UNL     1      43.341 -11.019   7.342  1.00  0.00     0.032 A 
HETATM    2  C   UNL     1      43.874 -10.254   8.385  1.00  0.00     0.019 A 
HETATM    3  C   UNL     1      43.218  -9.091   8.816  1.00  0.00     0.030 A 
HETATM    4  C   UNL     1      42.035  -8.670   8.206  1.00  0.00     0.034 A 
HETATM    5  C   UNL     1      41.531  -9.412   7.132  1.00  0.00     0.030 A 
HETATM    6  C   UNL     1      42.178 -10.575   6.703  1.00  0.00     0.019 A 
ENDROOT
BRANCH   4   7
HETATM    7  N   UNL     1      41.298  -7.535   8.604  1.00  0.00    -0.327 N 
HETATM    8  C   UNL     1      40.240  -7.490   9.494  1.00  0.00     0.223 C 
HETATM    9  O   UNL     1      39.744  -8.445  10.082  1.00  0.00    -0.273 OA
HETATM   10  H   UNL     1      41.576  -6.662   8.173  1.00  0.00     0.169 HD
BRANCH   8  11
HETATM   11  C   UNL     1      39.670  -6.095   9.659  1.00  0.00     0.128 C 
BRANCH  11  12
HETATM   12  C   UNL     1      40.012  -5.546  11.037  1.00  0.00     0.158 C 
HETATM   13  S   UNL     1      39.054  -6.371  12.341  1.00  0.00    -0.077 SA
HETATM   14  C   UNL     1      40.504  -6.576  13.307  1.00  0.00     0.168 C 
HETATM   15  N   UNL     1      41.612  -6.266  12.715  1.00  0.00    -0.189 NA
HETATM   16  C   UNL     1      41.448  -5.833  11.420  1.00  0.00     0.260 C 
HETATM   17  O   UNL     1      42.382  -5.669  10.643  1.00  0.00    -0.270 OA
BRANCH  14  18
HETATM   18  N   UNL     1      40.405  -7.009  14.611  1.00  0.00    -0.360 N 
HETATM   19  C   UNL     1      41.420  -7.825  15.285  1.00  0.00     0.125 C 
HETATM   20  C   UNL     1      42.348  -6.913  16.088  1.00  0.00     0.020 C 
HETATM   21  C   UNL     1      41.556  -6.053  17.076  1.00  0.00     0.003 C 
HETATM   22  C   UNL     1      40.420  -5.307  16.373  1.00  0.00     0.020 C 
HETATM   23  C   UNL     1      39.558  -6.267  15.556  1.00  0.00     0.125 C 
ENDBRANCH  14  18
ENDBRANCH  11  12
ENDBRANCH   8  11
ENDBRANCH   4   7
BRANCH   1  24
HETATM   24  C   UNL     1      43.939 -12.311   6.883  1.00  0.00     0.256 C 
HETATM   25  N   UNL     1      43.048 -13.356   6.709  1.00  0.00    -0.323 N 
HETATM   26  H   UNL     1      42.081 -13.193   6.947  1.00  0.00     0.169 HD
HETATM   27  O   UNL     1      45.144 -12.337   6.657  1.00  0.00    -0.267 OA
BRANCH  25  28
HETATM   28  C   UNL     1      43.309 -14.613   6.123  1.00  0.00     0.035 A 
HETATM   29  C   UNL     1      44.000 -15.644   6.757  1.00  0.00     0.030 A 
HETATM   30  C   UNL     1      44.291 -16.834   6.076  1.00  0.00     0.010 A 
HETATM   31  C   UNL     1      43.873 -17.030   4.754  1.00  0.00    -0.054 A 
HETATM   32  C   UNL     1      43.161 -15.997   4.127  1.00  0.00     0.010 A 
HETATM   33  C   UNL     1      42.887 -14.803   4.802  1.00  0.00     0.030 A 
BRANCH  31  34
HETATM   34  C   UNL     1      44.223 -18.279   3.958  1.00  0.00     0.014 C 
HETATM   35  C   UNL     1      44.046 -19.510   4.858  1.00  0.00     0.015 C 
BRANCH  34  36
HETATM   36  C   UNL     1      43.442 -18.477   2.643  1.00  0.00     0.004 C 
HETATM   37  C   UNL     1      43.384 -19.930   2.188  1.00  0.00     0.006 C 
ENDBRANCH  34  36
ENDBRANCH  31  34
ENDBRANCH  25  28
ENDBRANCH   1  24
TORSDOF 8
ENDMDL
