MODEL 1
REMARK VINA RESULT:      -9.2      0.000      0.000
REMARK  2 active torsions:
REMARK  status: ('A' for Active; 'I' for Inactive)
REMARK    1  A    between atoms: O_2  and  C_3 
REMARK    2  A    between atoms: C_5  and  N_6 
ROOT
HETATM    1  N   UNL     1      40.654 -12.382   2.598  1.00  0.00    -0.252 N 
HETATM    2  C   UNL     1      40.359 -13.270   3.613  1.00  0.00     0.239 C 
HETATM    3  O   UNL     1      39.556 -14.188   3.655  1.00  0.00    -0.272 OA
HETATM    4  C   UNL     1      41.320 -13.061   4.736  1.00  0.00     0.145 C 
HETATM    5  C   UNL     1      42.044 -11.785   4.376  1.00  0.00     0.126 C 
HETATM    6  C   UNL     1      41.783 -11.650   2.903  1.00  0.00     0.238 C 
HETATM    7  O   UNL     1      42.524 -10.992   2.190  1.00  0.00    -0.272 OA
HETATM    8  C   UNL     1      42.373 -14.157   4.851  1.00  0.00     0.250 A 
HETATM    9  C   UNL     1      41.907 -15.254   5.869  1.00  0.00     0.264 A 
HETATM   10  O   UNL     1      41.605 -15.066   7.036  1.00  0.00    -0.270 OA
HETATM   11  N   UNL     1      41.973 -16.477   5.228  1.00  0.00    -0.324 N 
HETATM   12  C   UNL     1      42.440 -16.345   3.930  1.00  0.00     0.044 A 
HETATM   13  C   UNL     1      42.716 -15.004   3.640  1.00  0.00     0.015 A 
HETATM   14  C   UNL     1      42.654 -17.367   3.031  1.00  0.00     0.030 A 
HETATM   15  C   UNL     1      43.187 -17.026   1.788  1.00  0.00     0.002 A 
HETATM   16  C   UNL     1      43.494 -15.691   1.482  1.00  0.00     0.001 A 
HETATM   17  C   UNL     1      43.266 -14.668   2.410  1.00  0.00     0.012 A 
HETATM   18  N   UNL     1      43.619 -13.372   5.303  1.00  0.00    -0.043 N 
HETATM   19  H   UNL     1      44.453 -13.854   4.931  1.00  0.00     0.282 HD
HETATM   20  C   UNL     1      43.519 -11.968   4.708  1.00  0.00     0.204 C 
HETATM   21  C   UNL     1      43.845 -13.202   6.788  1.00  0.00     0.237 C 
HETATM   22  C   UNL     1      44.713 -11.963   6.825  1.00  0.00     0.030 C 
HETATM   23  C   UNL     1      44.030 -11.047   5.821  1.00  0.00     0.036 C 
HETATM   24  H   UNL     1      41.710 -17.353   5.665  1.00  0.00     0.169 HD
ENDROOT
BRANCH   1  25
HETATM   25  C   UNL     1      39.955 -12.342   1.352  1.00  0.00     0.048 A 
HETATM   26  C   UNL     1      40.284 -13.231   0.315  1.00  0.00     0.066 A 
HETATM   27  C   UNL     1      39.588 -13.248  -0.902  1.00  0.00     0.070 A 
HETATM   28  C   UNL     1      38.556 -12.344  -1.112  1.00  0.00     0.037 A 
HETATM   29  C   UNL     1      38.210 -11.448  -0.101  1.00  0.00     0.005 A 
HETATM   30  C   UNL     1      38.894 -11.456   1.121  1.00  0.00     0.030 A 
BRANCH  27  31
HETATM   31  O   UNL     1      40.016 -14.202  -1.784  1.00  0.00    -0.356 OA
HETATM   32  C   UNL     1      39.033 -14.801  -2.620  1.00  0.00     0.210 C 
ENDBRANCH  27  31
ENDBRANCH   1  25
TORSDOF 2
ENDMDL
MODEL 2
REMARK VINA RESULT:      -9.2      2.204      6.002
REMARK  2 active torsions:
REMARK  status: ('A' for Active; 'I' for Inactive)
REMARK    1  A    between atoms: O_2  and  C_3 
REMARK    2  A    between atoms: C_5  and  N_6 
ROOT
HETATM    1  N   UNL     1      42.479 -15.532   3.751  1.00  0.00    -0.252 N 
HETATM    2  C   UNL     1      42.941 -14.387   3.135  1.00  0.00     0.239 C 
HETATM    3  O   UNL     1      43.735 -14.245   2.220  1.00  0.00    -0.272 OA
HETATM    4  C   UNL     1      42.190 -13.212   3.666  1.00  0.00     0.145 C 
HETATM    5  C   UNL     1      41.419 -13.762   4.844  1.00  0.00     0.126 C 
HETATM    6  C   UNL     1      41.423 -15.242   4.590  1.00  0.00     0.238 C 
HETATM    7  O   UNL     1      40.572 -15.967   5.081  1.00  0.00    -0.272 OA
HETATM    8  C   UNL     1      41.167 -12.646   2.687  1.00  0.00     0.250 A 
HETATM    9  C   UNL     1      41.798 -11.473   1.861  1.00  0.00     0.264 A 
HETATM   10  O   UNL     1      42.298 -10.460   2.322  1.00  0.00    -0.270 OA
HETATM   11  N   UNL     1      41.618 -11.758   0.521  1.00  0.00    -0.324 N 
HETATM   12  C   UNL     1      40.934 -12.950   0.343  1.00  0.00     0.044 A 
HETATM   13  C   UNL     1      40.617 -13.525   1.579  1.00  0.00     0.015 A 
HETATM   14  C   UNL     1      40.564 -13.508  -0.861  1.00  0.00     0.030 A 
HETATM   15  C   UNL     1      39.826 -14.691  -0.820  1.00  0.00     0.002 A 
HETATM   16  C   UNL     1      39.476 -15.274   0.409  1.00  0.00     0.001 A 
HETATM   17  C   UNL     1      39.865 -14.691   1.620  1.00  0.00     0.012 A 
HETATM   18  N   UNL     1      40.022 -12.210   3.619  1.00  0.00    -0.043 N 
HETATM   19  H   UNL     1      39.134 -12.303   3.100  1.00  0.00     0.282 HD
HETATM   20  C   UNL     1      40.023 -13.154   4.821  1.00  0.00     0.204 C 
HETATM   21  C   UNL     1      40.057 -10.802   4.170  1.00  0.00     0.237 C 
HETATM   22  C   UNL     1      39.212 -10.942   5.418  1.00  0.00     0.030 C 
HETATM   23  C   UNL     1      39.716 -12.246   6.017  1.00  0.00     0.036 C 
HETATM   24  H   UNL     1      41.949 -11.160  -0.228  1.00  0.00     0.169 HD
ENDROOT
BRANCH   1  25
HETATM   25  C   UNL     1      42.952 -16.845   3.442  1.00  0.00     0.048 A 
HETATM   26  C   UNL     1      43.577 -17.632   4.423  1.00  0.00     0.066 A 
HETATM   27  C   UNL     1      44.012 -18.941   4.166  1.00  0.00     0.070 A 
HETATM   28  C   UNL     1      43.848 -19.477   2.895  1.00  0.00     0.037 A 
HETATM   29  C   UNL     1      43.233 -18.717   1.902  1.00  0.00     0.005 A 
HETATM   30  C   UNL     1      42.779 -17.421   2.176  1.00  0.00     0.030 A 
BRANCH  27  31
HETATM   31  O   UNL     1      44.565 -19.574   5.243  1.00  0.00    -0.356 OA
HETATM   32  C   UNL     1      44.278 -20.959   5.400  1.00  0.00     0.210 C 
ENDBRANCH  27  31
ENDBRANCH   1  25
TORSDOF 2
ENDMDL
MODEL 3
REMARK VINA RESULT:      -8.8      2.211      5.835
REMARK  2 active torsions:
REMARK  status: ('A' for Active; 'I' for Inactive)
REMARK    1  A    between atoms: O_2  and  C_3 
REMARK    2  A    between atoms: C_5  and  N_6 
ROOT
HETATM    1  N   UNL     1      41.070 -14.831   3.443  1.00  0.00    -0.252 N 
HETATM    2  C   UNL     1      40.521 -14.345   4.613  1.00  0.00     0.239 C 
HETATM    3  O   UNL     1      40.714 -14.670   5.774  1.00  0.00    -0.272 OA
HETATM    4  C   UNL     1      39.674 -13.159   4.297  1.00  0.00     0.145 C 
HETATM    5  C   UNL     1      39.578 -13.159   2.789  1.00  0.00     0.126 C 
HETATM    6  C   UNL     1      40.734 -14.025   2.376  1.00  0.00     0.238 C 
HETATM    7  O   UNL     1      41.225 -13.931   1.262  1.00  0.00    -0.272 OA
HETATM    8  C   UNL     1      40.303 -11.831   4.706  1.00  0.00     0.250 A 
HETATM    9  C   UNL     1      39.807 -11.413   6.133  1.00  0.00     0.264 A 
HETATM   10  O   UNL     1      38.644 -11.260   6.471  1.00  0.00    -0.270 OA
HETATM   11  N   UNL     1      40.922 -11.175   6.913  1.00  0.00    -0.324 N 
HETATM   12  C   UNL     1      42.093 -11.358   6.193  1.00  0.00     0.044 A 
HETATM   13  C   UNL     1      41.807 -11.729   4.875  1.00  0.00     0.015 A 
HETATM   14  C   UNL     1      43.376 -11.174   6.660  1.00  0.00     0.030 A 
HETATM   15  C   UNL     1      44.420 -11.356   5.753  1.00  0.00     0.002 A 
HETATM   16  C   UNL     1      44.157 -11.705   4.419  1.00  0.00     0.001 A 
HETATM   17  C   UNL     1      42.845 -11.889   3.968  1.00  0.00     0.012 A 
HETATM   18  N   UNL     1      39.842 -10.886   3.581  1.00  0.00    -0.043 N 
HETATM   19  H   UNL     1      40.568 -10.163   3.453  1.00  0.00     0.282 HD
HETATM   20  C   UNL     1      39.707 -11.719   2.307  1.00  0.00     0.204 C 
HETATM   21  C   UNL     1      38.531 -10.155   3.765  1.00  0.00     0.237 C 
HETATM   22  C   UNL     1      38.143  -9.859   2.333  1.00  0.00     0.030 C 
HETATM   23  C   UNL     1      38.447 -11.172   1.627  1.00  0.00     0.036 C 
HETATM   24  H   UNL     1      40.876 -10.902   7.888  1.00  0.00     0.169 HD
ENDROOT
BRANCH   1  25
HETATM   25  C   UNL     1      41.972 -15.938   3.390  1.00  0.00     0.048 A 
HETATM   26  C   UNL     1      42.998 -16.075   4.341  1.00  0.00     0.066 A 
HETATM   27  C   UNL     1      43.871 -17.172   4.344  1.00  0.00     0.070 A 
HETATM   28  C   UNL     1      43.744 -18.149   3.366  1.00  0.00     0.037 A 
HETATM   29  C   UNL     1      42.736 -18.037   2.409  1.00  0.00     0.005 A 
HETATM   30  C   UNL     1      41.853 -16.951   2.429  1.00  0.00     0.030 A 
BRANCH  27  31
HETATM   31  O   UNL     1      44.785 -17.163   5.361  1.00  0.00    -0.356 OA
HETATM   32  C   UNL     1      44.516 -16.311   6.468  1.00  0.00     0.210 C 
ENDBRANCH  27  31
ENDBRANCH   1  25
TORSDOF 2
ENDMDL
MODEL 4
REMARK VINA RESULT:      -8.7      2.678      5.943
REMARK  2 active torsions:
REMARK  status: ('A' for Active; 'I' for Inactive)
REMARK    1  A    between atoms: O_2  and  C_3 
REMARK    2  A    between atoms: C_5  and  N_6 
ROOT
HETATM    1  N   UNL     1      42.371 -14.140   4.213  1.00  0.00    -0.252 N 
HETATM    2  C   UNL     1      41.546 -13.479   5.101  1.00  0.00     0.239 C 
HETATM    3  O   UNL     1      41.249 -13.744   6.254  1.00  0.00    -0.272 OA
HETATM    4  C   UNL     1      41.110 -12.190   4.490  1.00  0.00     0.145 C 
HETATM    5  C   UNL     1      41.558 -12.286   3.051  1.00  0.00     0.126 C 
HETATM    6  C   UNL     1      42.596 -13.371   3.091  1.00  0.00     0.238 C 
HETATM    7  O   UNL     1      43.459 -13.448   2.230  1.00  0.00    -0.272 OA
HETATM    8  C   UNL     1      41.793 -10.966   5.092  1.00  0.00     0.250 A 
HETATM    9  C   UNL     1      40.913 -10.360   6.238  1.00  0.00     0.264 A 
HETATM   10  O   UNL     1      39.758  -9.981   6.130  1.00  0.00    -0.270 OA
HETATM   11  N   UNL     1      41.703 -10.265   7.368  1.00  0.00    -0.324 N 
HETATM   12  C   UNL     1      42.994 -10.704   7.123  1.00  0.00     0.044 A 
HETATM   13  C   UNL     1      43.130 -11.118   5.794  1.00  0.00     0.015 A 
HETATM   14  C   UNL     1      44.038 -10.714   8.023  1.00  0.00     0.030 A 
HETATM   15  C   UNL     1      45.280 -11.144   7.558  1.00  0.00     0.002 A 
HETATM   16  C   UNL     1      45.446 -11.541   6.222  1.00  0.00     0.001 A 
HETATM   17  C   UNL     1      44.372 -11.525   5.326  1.00  0.00     0.012 A 
HETATM   18  N   UNL     1      41.952 -10.042   3.870  1.00  0.00    -0.043 N 
HETATM   19  H   UNL     1      42.800  -9.470   4.009  1.00  0.00     0.282 HD
HETATM   20  C   UNL     1      42.122 -10.932   2.639  1.00  0.00     0.204 C 
HETATM   21  C   UNL     1      40.827  -9.080   3.561  1.00  0.00     0.237 C 
HETATM   22  C   UNL     1      41.037  -8.830   2.083  1.00  0.00     0.030 C 
HETATM   23  C   UNL     1      41.315 -10.225   1.545  1.00  0.00     0.036 C 
HETATM   24  H   UNL     1      41.366  -9.915   8.258  1.00  0.00     0.169 HD
ENDROOT
BRANCH   1  25
HETATM   25  C   UNL     1      43.004 -15.390   4.498  1.00  0.00     0.048 A 
HETATM   26  C   UNL     1      42.887 -16.473   3.611  1.00  0.00     0.066 A 
HETATM   27  C   UNL     1      43.532 -17.697   3.839  1.00  0.00     0.070 A 
HETATM   28  C   UNL     1      44.293 -17.865   4.988  1.00  0.00     0.037 A 
HETATM   29  C   UNL     1      44.424 -16.807   5.887  1.00  0.00     0.005 A 
HETATM   30  C   UNL     1      43.797 -15.580   5.638  1.00  0.00     0.030 A 
BRANCH  27  31
HETATM   31  O   UNL     1      43.340 -18.628   2.857  1.00  0.00    -0.356 OA
HETATM   32  C   UNL     1      43.829 -19.942   3.102  1.00  0.00     0.210 C 
ENDBRANCH  27  31
ENDBRANCH   1  25
TORSDOF 2
ENDMDL
MODEL 5
REMARK VINA RESULT:      -8.5      2.175      6.320
REMARK  2 active torsions:
REMARK  status: ('A' for Active; 'I' for Inactive)
REMARK    1  A    between atoms: O_2  and  C_3 
REMARK    2  A    between atoms: C_5  and  N_6 
ROOT
HETATM    1  N   UNL     1      41.823 -15.847   2.835  1.00  0.00    -0.252 N 
HETATM    2  C   UNL     1      40.753 -15.156   3.365  1.00  0.00     0.239 C 
HETATM    3  O   UNL     1      40.392 -15.020   4.523  1.00  0.00    -0.272 OA
HETATM    4  C   UNL     1      40.080 -14.391   2.275  1.00  0.00     0.145 C 
HETATM    5  C   UNL     1      40.713 -14.913   1.006  1.00  0.00     0.126 C 
HETATM    6  C   UNL     1      41.981 -15.550   1.497  1.00  0.00     0.238 C 
HETATM    7  O   UNL     1      42.935 -15.710   0.752  1.00  0.00    -0.272 OA
HETATM    8  C   UNL     1      40.347 -12.891   2.325  1.00  0.00     0.250 A 
HETATM    9  C   UNL     1      39.205 -12.162   3.114  1.00  0.00     0.264 A 
HETATM   10  O   UNL     1      38.015 -12.200   2.850  1.00  0.00    -0.270 OA
HETATM   11  N   UNL     1      39.797 -11.410   4.111  1.00  0.00    -0.324 N 
HETATM   12  C   UNL     1      41.178 -11.523   4.079  1.00  0.00     0.044 A 
HETATM   13  C   UNL     1      41.579 -12.367   3.038  1.00  0.00     0.015 A 
HETATM   14  C   UNL     1      42.070 -10.881   4.911  1.00  0.00     0.030 A 
HETATM   15  C   UNL     1      43.429 -11.086   4.675  1.00  0.00     0.002 A 
HETATM   16  C   UNL     1      43.856 -11.910   3.621  1.00  0.00     0.001 A 
HETATM   17  C   UNL     1      42.932 -12.554   2.790  1.00  0.00     0.012 A 
HETATM   18  N   UNL     1      40.414 -12.516   0.832  1.00  0.00    -0.043 N 
HETATM   19  H   UNL     1      41.063 -11.720   0.731  1.00  0.00     0.282 HD
HETATM   20  C   UNL     1      40.958 -13.730   0.079  1.00  0.00     0.204 C 
HETATM   21  C   UNL     1      39.128 -12.117   0.146  1.00  0.00     0.237 C 
HETATM   22  C   UNL     1      39.448 -12.418  -1.302  1.00  0.00     0.030 C 
HETATM   23  C   UNL     1      40.139 -13.770  -1.216  1.00  0.00     0.036 C 
HETATM   24  H   UNL     1      39.274 -10.851   4.775  1.00  0.00     0.169 HD
ENDROOT
BRANCH   1  25
HETATM   25  C   UNL     1      42.714 -16.648   3.614  1.00  0.00     0.048 A 
HETATM   26  C   UNL     1      42.991 -17.976   3.250  1.00  0.00     0.066 A 
HETATM   27  C   UNL     1      43.895 -18.774   3.966  1.00  0.00     0.070 A 
HETATM   28  C   UNL     1      44.524 -18.254   5.090  1.00  0.00     0.037 A 
HETATM   29  C   UNL     1      44.265 -16.939   5.476  1.00  0.00     0.005 A 
HETATM   30  C   UNL     1      43.381 -16.142   4.739  1.00  0.00     0.030 A 
BRANCH  27  31
HETATM   31  O   UNL     1      44.072 -20.028   3.452  1.00  0.00    -0.356 OA
HETATM   32  C   UNL     1      43.512 -20.289   2.170  1.00  0.00     0.210 C 
ENDBRANCH  27  31
ENDBRANCH   1  25
TORSDOF 2
ENDMDL
MODEL 6
REMARK VINA RESULT:      -8.2      1.789      4.046
REMARK  2 active torsions:
REMARK  status: ('A' for Active; 'I' for Inactive)
REMARK    1  A    between atoms: O_2  and  C_3 
REMARK    2  A    between atoms: C_5  and  N_6 
ROOT
HETATM    1  N   UNL     1      41.251 -13.886   2.388  1.00  0.00    -0.252 N 
HETATM    2  C   UNL     1      42.260 -13.155   2.981  1.00  0.00     0.239 C 
HETATM    3  O   UNL     1      42.625 -12.007   2.788  1.00  0.00    -0.272 OA
HETATM    4  C   UNL     1      42.840 -13.949   4.104  1.00  0.00     0.145 C 
HETATM    5  C   UNL     1      42.238 -15.325   3.940  1.00  0.00     0.126 C 
HETATM    6  C   UNL     1      41.043 -15.070   3.066  1.00  0.00     0.238 C 
HETATM    7  O   UNL     1      40.096 -15.841   3.053  1.00  0.00    -0.272 OA
HETATM    8  C   UNL     1      42.433 -13.443   5.484  1.00  0.00     0.250 A 
HETATM    9  C   UNL     1      43.514 -12.454   6.040  1.00  0.00     0.264 A 
HETATM   10  O   UNL     1      44.699 -12.701   6.197  1.00  0.00    -0.270 OA
HETATM   11  N   UNL     1      42.871 -11.282   6.389  1.00  0.00    -0.324 N 
HETATM   12  C   UNL     1      41.506 -11.365   6.162  1.00  0.00     0.044 A 
HETATM   13  C   UNL     1      41.169 -12.620   5.644  1.00  0.00     0.015 A 
HETATM   14  C   UNL     1      40.572 -10.387   6.430  1.00  0.00     0.030 A 
HETATM   15  C   UNL     1      39.235 -10.694   6.180  1.00  0.00     0.002 A 
HETATM   16  C   UNL     1      38.870 -11.955   5.683  1.00  0.00     0.001 A 
HETATM   17  C   UNL     1      39.836 -12.931   5.416  1.00  0.00     0.012 A 
HETATM   18  N   UNL     1      42.307 -14.749   6.291  1.00  0.00    -0.043 N 
HETATM   19  H   UNL     1      41.584 -14.609   7.015  1.00  0.00     0.282 HD
HETATM   20  C   UNL     1      41.867 -15.847   5.322  1.00  0.00     0.204 C 
HETATM   21  C   UNL     1      43.539 -15.262   7.002  1.00  0.00     0.237 C 
HETATM   22  C   UNL     1      43.224 -16.737   7.131  1.00  0.00     0.030 C 
HETATM   23  C   UNL     1      42.665 -17.080   5.760  1.00  0.00     0.036 C 
HETATM   24  H   UNL     1      43.350 -10.471   6.765  1.00  0.00     0.169 HD
ENDROOT
BRANCH   1  25
HETATM   25  C   UNL     1      40.452 -13.403   1.306  1.00  0.00     0.048 A 
HETATM   26  C   UNL     1      40.574 -13.956   0.020  1.00  0.00     0.066 A 
HETATM   27  C   UNL     1      39.774 -13.536  -1.052  1.00  0.00     0.070 A 
HETATM   28  C   UNL     1      38.844 -12.523  -0.855  1.00  0.00     0.037 A 
HETATM   29  C   UNL     1      38.704 -11.955   0.411  1.00  0.00     0.005 A 
HETATM   30  C   UNL     1      39.490 -12.399   1.481  1.00  0.00     0.030 A 
BRANCH  27  31
HETATM   31  O   UNL     1      40.001 -14.205  -2.222  1.00  0.00    -0.356 OA
HETATM   32  C   UNL     1      38.860 -14.629  -2.959  1.00  0.00     0.210 C 
ENDBRANCH  27  31
ENDBRANCH   1  25
TORSDOF 2
ENDMDL
MODEL 7
REMARK VINA RESULT:      -8.2     15.901     17.598
REMARK  2 active torsions:
REMARK  status: ('A' for Active; 'I' for Inactive)
REMARK    1  A    between atoms: O_2  and  C_3 
REMARK    2  A    between atoms: C_5  and  N_6 
ROOT
HETATM    1  N   UNL     1      43.856 -30.280  -0.284  1.00  0.00    -0.252 N 
HETATM    2  C   UNL     1      44.434 -31.429   0.217  1.00  0.00     0.239 C 
HETATM    3  O   UNL     1      45.402 -32.064  -0.169  1.00  0.00    -0.272 OA
HETATM    4  C   UNL     1      43.767 -31.787   1.503  1.00  0.00     0.145 C 
HETATM    5  C   UNL     1      42.567 -30.872   1.570  1.00  0.00     0.126 C 
HETATM    6  C   UNL     1      42.915 -29.785   0.593  1.00  0.00     0.238 C 
HETATM    7  O   UNL     1      42.401 -28.680   0.672  1.00  0.00    -0.272 OA
HETATM    8  C   UNL     1      44.619 -31.498   2.735  1.00  0.00     0.250 A 
HETATM    9  C   UNL     1      45.418 -32.780   3.155  1.00  0.00     0.264 A 
HETATM   10  O   UNL     1      44.936 -33.867   3.427  1.00  0.00    -0.270 OA
HETATM   11  N   UNL     1      46.753 -32.435   3.235  1.00  0.00    -0.324 N 
HETATM   12  C   UNL     1      46.949 -31.093   2.947  1.00  0.00     0.044 A 
HETATM   13  C   UNL     1      45.731 -30.469   2.659  1.00  0.00     0.015 A 
HETATM   14  C   UNL     1      48.152 -30.421   2.967  1.00  0.00     0.030 A 
HETATM   15  C   UNL     1      48.124 -29.052   2.701  1.00  0.00     0.002 A 
HETATM   16  C   UNL     1      46.911 -28.399   2.433  1.00  0.00     0.001 A 
HETATM   17  C   UNL     1      45.702 -29.103   2.415  1.00  0.00     0.012 A 
HETATM   18  N   UNL     1      43.567 -31.050   3.767  1.00  0.00    -0.043 N 
HETATM   19  H   UNL     1      44.015 -30.374   4.407  1.00  0.00     0.282 HD
HETATM   20  C   UNL     1      42.433 -30.369   3.001  1.00  0.00     0.204 C 
HETATM   21  C   UNL     1      42.932 -32.112   4.635  1.00  0.00     0.237 C 
HETATM   22  C   UNL     1      41.629 -31.449   5.025  1.00  0.00     0.030 C 
HETATM   23  C   UNL     1      41.160 -30.839   3.713  1.00  0.00     0.036 C 
HETATM   24  H   UNL     1      47.487 -33.091   3.477  1.00  0.00     0.169 HD
ENDROOT
BRANCH   1  25
HETATM   25  C   UNL     1      44.288 -29.635  -1.484  1.00  0.00     0.048 A 
HETATM   26  C   UNL     1      43.874 -30.106  -2.742  1.00  0.00     0.066 A 
HETATM   27  C   UNL     1      44.242 -29.469  -3.935  1.00  0.00     0.070 A 
HETATM   28  C   UNL     1      45.064 -28.350  -3.888  1.00  0.00     0.037 A 
HETATM   29  C   UNL     1      45.492 -27.864  -2.654  1.00  0.00     0.005 A 
HETATM   30  C   UNL     1      45.098 -28.491  -1.466  1.00  0.00     0.030 A 
BRANCH  27  31
HETATM   31  O   UNL     1      43.721 -30.039  -5.064  1.00  0.00    -0.356 OA
HETATM   32  C   UNL     1      44.538 -30.978  -5.753  1.00  0.00     0.210 C 
ENDBRANCH  27  31
ENDBRANCH   1  25
TORSDOF 2
ENDMDL
MODEL 8
REMARK VINA RESULT:      -8.1      6.403      9.829
REMARK  2 active torsions:
REMARK  status: ('A' for Active; 'I' for Inactive)
REMARK    1  A    between atoms: O_2  and  C_3 
REMARK    2  A    between atoms: C_5  and  N_6 
ROOT
HETATM    1  N   UNL     1      44.017  -9.182   9.880  1.00  0.00    -0.252 N 
HETATM    2  C   UNL     1      43.690  -7.845   9.777  1.00  0.00     0.239 C 
HETATM    3  O   UNL     1      43.755  -7.084   8.825  1.00  0.00    -0.272 OA
HETATM    4  C   UNL     1      43.048  -7.403  11.049  1.00  0.00     0.145 C 
HETATM    5  C   UNL     1      43.270  -8.555  12.001  1.00  0.00     0.126 C 
HETATM    6  C   UNL     1      43.577  -9.701  11.080  1.00  0.00     0.238 C 
HETATM    7  O   UNL     1      43.408 -10.857  11.435  1.00  0.00    -0.272 OA
HETATM    8  C   UNL     1      41.541  -7.198  10.936  1.00  0.00     0.250 A 
HETATM    9  C   UNL     1      41.219  -5.698  10.617  1.00  0.00     0.264 A 
HETATM   10  O   UNL     1      41.558  -4.735  11.286  1.00  0.00    -0.270 OA
HETATM   11  N   UNL     1      40.421  -5.670   9.489  1.00  0.00    -0.324 N 
HETATM   12  C   UNL     1      40.151  -6.948   9.027  1.00  0.00     0.044 A 
HETATM   13  C   UNL     1      40.764  -7.906   9.842  1.00  0.00     0.015 A 
HETATM   14  C   UNL     1      39.363  -7.276   7.945  1.00  0.00     0.030 A 
HETATM   15  C   UNL     1      39.170  -8.632   7.681  1.00  0.00     0.002 A 
HETATM   16  C   UNL     1      39.756  -9.611   8.498  1.00  0.00     0.001 A 
HETATM   17  C   UNL     1      40.554  -9.255   9.591  1.00  0.00     0.012 A 
HETATM   18  N   UNL     1      41.039  -7.667  12.314  1.00  0.00    -0.043 N 
HETATM   19  H   UNL     1      40.091  -8.056  12.194  1.00  0.00     0.282 HD
HETATM   20  C   UNL     1      41.991  -8.758  12.804  1.00  0.00     0.204 C 
HETATM   21  C   UNL     1      40.948  -6.639  13.420  1.00  0.00     0.237 C 
HETATM   22  C   UNL     1      41.028  -7.511  14.654  1.00  0.00     0.030 C 
HETATM   23  C   UNL     1      42.143  -8.484  14.304  1.00  0.00     0.036 C 
HETATM   24  H   UNL     1      40.083  -4.814   9.064  1.00  0.00     0.169 HD
ENDROOT
BRANCH   1  25
HETATM   25  C   UNL     1      44.608  -9.938   8.821  1.00  0.00     0.048 A 
HETATM   26  C   UNL     1      43.842 -10.850   8.076  1.00  0.00     0.066 A 
HETATM   27  C   UNL     1      44.379 -11.573   7.001  1.00  0.00     0.070 A 
HETATM   28  C   UNL     1      45.718 -11.411   6.669  1.00  0.00     0.037 A 
HETATM   29  C   UNL     1      46.502 -10.514   7.394  1.00  0.00     0.005 A 
HETATM   30  C   UNL     1      45.950  -9.777   8.449  1.00  0.00     0.030 A 
BRANCH  27  31
HETATM   31  O   UNL     1      43.484 -12.388   6.365  1.00  0.00    -0.356 OA
HETATM   32  C   UNL     1      43.449 -13.753   6.767  1.00  0.00     0.210 C 
ENDBRANCH  27  31
ENDBRANCH   1  25
TORSDOF 2
ENDMDL
MODEL 9
REMARK VINA RESULT:      -7.8      2.102      4.550
REMARK  2 active torsions:
REMARK  status: ('A' for Active; 'I' for Inactive)
REMARK    1  A    between atoms: O_2  and  C_3 
REMARK    2  A    between atoms: C_5  and  N_6 
ROOT
HETATM    1  N   UNL     1      40.523 -13.880   0.833  1.00  0.00    -0.252 N 
HETATM    2  C   UNL     1      41.571 -13.014   1.069  1.00  0.00     0.239 C 
HETATM    3  O   UNL     1      41.907 -11.998   0.482  1.00  0.00    -0.272 OA
HETATM    4  C   UNL     1      42.252 -13.408   2.337  1.00  0.00     0.145 C 
HETATM    5  C   UNL     1      41.652 -14.751   2.682  1.00  0.00     0.126 C 
HETATM    6  C   UNL     1      40.385 -14.774   1.875  1.00  0.00     0.238 C 
HETATM    7  O   UNL     1      39.449 -15.490   2.194  1.00  0.00    -0.272 OA
HETATM    8  C   UNL     1      41.959 -12.473   3.505  1.00  0.00     0.250 A 
HETATM    9  C   UNL     1      43.073 -11.376   3.616  1.00  0.00     0.264 A 
HETATM   10  O   UNL     1      44.269 -11.580   3.746  1.00  0.00    -0.270 OA
HETATM   11  N   UNL     1      42.449 -10.143   3.616  1.00  0.00    -0.324 N 
HETATM   12  C   UNL     1      41.071 -10.271   3.542  1.00  0.00     0.044 A 
HETATM   13  C   UNL     1      40.704 -11.620   3.492  1.00  0.00     0.015 A 
HETATM   14  C   UNL     1      40.153  -9.243   3.552  1.00  0.00     0.030 A 
HETATM   15  C   UNL     1      38.803  -9.589   3.529  1.00  0.00     0.002 A 
HETATM   16  C   UNL     1      38.410 -10.937   3.502  1.00  0.00     0.001 A 
HETATM   17  C   UNL     1      39.359 -11.965   3.490  1.00  0.00     0.012 A 
HETATM   18  N   UNL     1      41.914 -13.442   4.702  1.00  0.00    -0.043 N 
HETATM   19  H   UNL     1      41.254 -13.060   5.398  1.00  0.00     0.282 HD
HETATM   20  C   UNL     1      41.405 -14.787   4.185  1.00  0.00     0.204 C 
HETATM   21  C   UNL     1      43.206 -13.717   5.436  1.00  0.00     0.237 C 
HETATM   22  C   UNL     1      42.919 -15.063   6.066  1.00  0.00     0.030 C 
HETATM   23  C   UNL     1      42.249 -15.825   4.933  1.00  0.00     0.036 C 
HETATM   24  H   UNL     1      42.950  -9.263   3.664  1.00  0.00     0.169 HD
ENDROOT
BRANCH   1  25
HETATM   25  C   UNL     1      39.631 -13.762  -0.277  1.00  0.00     0.048 A 
HETATM   26  C   UNL     1      38.802 -12.636  -0.415  1.00  0.00     0.066 A 
HETATM   27  C   UNL     1      37.949 -12.467  -1.515  1.00  0.00     0.070 A 
HETATM   28  C   UNL     1      37.893 -13.451  -2.493  1.00  0.00     0.037 A 
HETATM   29  C   UNL     1      38.702 -14.581  -2.379  1.00  0.00     0.005 A 
HETATM   30  C   UNL     1      39.570 -14.728  -1.290  1.00  0.00     0.030 A 
BRANCH  27  31
HETATM   31  O   UNL     1      37.242 -11.297  -1.507  1.00  0.00    -0.356 OA
HETATM   32  C   UNL     1      37.971 -10.096  -1.732  1.00  0.00     0.210 C 
ENDBRANCH  27  31
ENDBRANCH   1  25
TORSDOF 2
ENDMDL
MODEL 10
REMARK VINA RESULT:      -7.7     16.192     18.753
REMARK  2 active torsions:
REMARK  status: ('A' for Active; 'I' for Inactive)
REMARK    1  A    between atoms: O_2  and  C_3 
REMARK    2  A    between atoms: C_5  and  N_6 
ROOT
HETATM    1  N   UNL     1      46.756 -31.036   2.624  1.00  0.00    -0.252 N 
HETATM    2  C   UNL     1      45.735 -30.106   2.597  1.00  0.00     0.239 C 
HETATM    3  O   UNL     1      45.774 -28.887   2.603  1.00  0.00    -0.272 OA
HETATM    4  C   UNL     1      44.438 -30.816   2.400  1.00  0.00     0.145 C 
HETATM    5  C   UNL     1      44.779 -32.277   2.573  1.00  0.00     0.126 C 
HETATM    6  C   UNL     1      46.269 -32.303   2.379  1.00  0.00     0.238 C 
HETATM    7  O   UNL     1      46.842 -33.326   2.040  1.00  0.00    -0.272 OA
HETATM    8  C   UNL     1      43.859 -30.654   0.998  1.00  0.00     0.250 A 
HETATM    9  C   UNL     1      42.851 -29.455   0.961  1.00  0.00     0.264 A 
HETATM   10  O   UNL     1      41.860 -29.331   1.662  1.00  0.00    -0.270 OA
HETATM   11  N   UNL     1      43.244 -28.607  -0.057  1.00  0.00    -0.324 N 
HETATM   12  C   UNL     1      44.364 -29.089  -0.716  1.00  0.00     0.044 A 
HETATM   13  C   UNL     1      44.775 -30.306  -0.161  1.00  0.00     0.015 A 
HETATM   14  C   UNL     1      44.992 -28.505  -1.794  1.00  0.00     0.030 A 
HETATM   15  C   UNL     1      46.075 -29.186  -2.351  1.00  0.00     0.002 A 
HETATM   16  C   UNL     1      46.491 -30.419  -1.826  1.00  0.00     0.001 A 
HETATM   17  C   UNL     1      45.840 -30.993  -0.728  1.00  0.00     0.012 A 
HETATM   18  N   UNL     1      43.208 -32.028   0.748  1.00  0.00    -0.043 N 
HETATM   19  H   UNL     1      43.251 -32.223  -0.264  1.00  0.00     0.282 HD
HETATM   20  C   UNL     1      44.024 -33.069   1.514  1.00  0.00     0.204 C 
HETATM   21  C   UNL     1      41.766 -32.211   1.164  1.00  0.00     0.237 C 
HETATM   22  C   UNL     1      41.687 -33.713   1.336  1.00  0.00     0.030 C 
HETATM   23  C   UNL     1      42.974 -34.031   2.081  1.00  0.00     0.036 C 
HETATM   24  H   UNL     1      42.764 -27.743  -0.282  1.00  0.00     0.169 HD
ENDROOT
BRANCH   1  25
HETATM   25  C   UNL     1      48.138 -30.693   2.753  1.00  0.00     0.048 A 
HETATM   26  C   UNL     1      48.956 -30.569   1.618  1.00  0.00     0.066 A 
HETATM   27  C   UNL     1      50.303 -30.190   1.706  1.00  0.00     0.070 A 
HETATM   28  C   UNL     1      50.865 -29.951   2.953  1.00  0.00     0.037 A 
HETATM   29  C   UNL     1      50.076 -30.069   4.097  1.00  0.00     0.005 A 
HETATM   30  C   UNL     1      48.725 -30.423   3.997  1.00  0.00     0.030 A 
BRANCH  27  31
HETATM   31  O   UNL     1      50.940 -30.084   0.501  1.00  0.00    -0.356 OA
HETATM   32  C   UNL     1      50.141 -30.218  -0.669  1.00  0.00     0.210 C 
ENDBRANCH  27  31
ENDBRANCH   1  25
TORSDOF 2
ENDMDL
