MODEL 1
REMARK VINA RESULT:      -8.6      0.000      0.000
REMARK  5 active torsions:
REMARK  status: ('A' for Active; 'I' for Inactive)
REMARK    1  A    between atoms: C_3  and  N_4 
REMARK       I    between atoms: N_4  and  C_5 
REMARK    2  A    between atoms: C_5  and  C_6 
REMARK    3  A    between atoms: C_6  and  N_7 
REMARK    4  A    between atoms: C_6  and  C_16 
REMARK       I    between atoms: N_7  and  C_8 
REMARK    5  A    between atoms: C_8  and  C_9 
ROOT
HETATM    1  C   UNL     1      42.816 -15.311   2.032  1.00  0.00     0.210 C 
ENDROOT
BRANCH   1   2
HETATM    2  C   UNL     1      42.606 -16.713   2.683  1.00  0.00     0.249 C 
HETATM    3  N   UNL     1      43.761 -17.416   2.984  1.00  0.00    -0.324 N 
HETATM    4  H   UNL     1      44.609 -16.853   3.018  1.00  0.00     0.169 HD
HETATM    5  O   UNL     1      41.461 -17.139   2.856  1.00  0.00    -0.270 OA
BRANCH   3   6
HETATM    6  C   UNL     1      43.798 -18.645   3.688  1.00  0.00     0.046 A 
HETATM    7  C   UNL     1      43.746 -19.896   3.038  1.00  0.00    -0.035 A 
HETATM    8  C   UNL     1      43.751 -20.065   1.543  1.00  0.00     0.050 C 
HETATM    9  C   UNL     1      43.745 -21.072   3.809  1.00  0.00     0.009 A 
HETATM   10  C   UNL     1      43.854 -21.022   5.195  1.00  0.00     0.001 A 
HETATM   11  C   UNL     1      43.971 -19.793   5.832  1.00  0.00     0.009 A 
HETATM   12  C   UNL     1      43.943 -18.597   5.095  1.00  0.00    -0.035 A 
HETATM   13  C   UNL     1      44.043 -17.299   5.852  1.00  0.00     0.050 C 
ENDBRANCH   3   6
ENDBRANCH   1   2
BRANCH   1  14
HETATM   14  N   UNL     1      41.964 -15.041   0.874  1.00  0.00    -0.338 N 
HETATM   15  C   UNL     1      40.695 -14.520   0.909  1.00  0.00     0.273 C 
HETATM   16  O   UNL     1      40.016 -14.467   1.930  1.00  0.00    -0.266 OA
HETATM   17  H   UNL     1      42.417 -14.950  -0.032  1.00  0.00     0.164 HD
BRANCH  15  18
HETATM   18  C   UNL     1      40.222 -14.044  -0.397  1.00  0.00     0.145 A 
HETATM   19  N   UNL     1      39.374 -14.772  -1.154  1.00  0.00    -0.170 NA
HETATM   20  N   UNL     1      39.186 -14.015  -2.250  1.00  0.00    -0.289 N 
HETATM   21  H   UNL     1      38.568 -14.363  -2.978  1.00  0.00     0.188 HD
HETATM   22  C   UNL     1      39.881 -12.844  -2.232  1.00  0.00     0.112 A 
HETATM   23  C   UNL     1      40.566 -12.829  -1.042  1.00  0.00     0.058 A 
ENDBRANCH  15  18
ENDBRANCH   1  14
BRANCH   1  24
HETATM   24  C   UNL     1      42.931 -14.151   3.024  1.00  0.00    -0.026 A 
HETATM   25  C   UNL     1      42.634 -14.343   4.385  1.00  0.00     0.010 A 
HETATM   26  C   UNL     1      42.797 -13.312   5.315  1.00  0.00     0.001 A 
HETATM   27  C   UNL     1      43.282 -12.074   4.907  1.00  0.00     0.000 A 
HETATM   28  C   UNL     1      43.614 -11.869   3.572  1.00  0.00     0.001 A 
HETATM   29  C   UNL     1      43.451 -12.901   2.642  1.00  0.00     0.010 A 
ENDBRANCH   1  24
TORSDOF 5
ENDMDL
MODEL 2
REMARK VINA RESULT:      -8.6      3.626      5.888
REMARK  5 active torsions:
REMARK  status: ('A' for Active; 'I' for Inactive)
REMARK    1  A    between atoms: C_3  and  N_4 
REMARK       I    between atoms: N_4  and  C_5 
REMARK    2  A    between atoms: C_5  and  C_6 
REMARK    3  A    between atoms: C_6  and  N_7 
REMARK    4  A    between atoms: C_6  and  C_16 
REMARK       I    between atoms: N_7  and  C_8 
REMARK    5  A    between atoms: C_8  and  C_9 
ROOT
HETATM    1  C   UNL     1      41.281 -13.817   6.219  1.00  0.00     0.210 C 
ENDROOT
BRANCH   1   2
HETATM    2  C   UNL     1      41.440 -15.219   5.555  1.00  0.00     0.249 C 
HETATM    3  N   UNL     1      42.503 -15.353   4.677  1.00  0.00    -0.324 N 
HETATM    4  H   UNL     1      43.225 -14.640   4.765  1.00  0.00     0.169 HD
HETATM    5  O   UNL     1      40.615 -16.105   5.797  1.00  0.00    -0.270 OA
BRANCH   3   6
HETATM    6  C   UNL     1      42.898 -16.569   4.067  1.00  0.00     0.046 A 
HETATM    7  C   UNL     1      42.339 -17.029   2.856  1.00  0.00    -0.035 A 
HETATM    8  C   UNL     1      41.352 -16.243   2.035  1.00  0.00     0.050 C 
HETATM    9  C   UNL     1      42.753 -18.268   2.334  1.00  0.00     0.009 A 
HETATM   10  C   UNL     1      43.746 -19.015   2.960  1.00  0.00     0.001 A 
HETATM   11  C   UNL     1      44.343 -18.532   4.118  1.00  0.00     0.009 A 
HETATM   12  C   UNL     1      43.931 -17.314   4.684  1.00  0.00    -0.035 A 
HETATM   13  C   UNL     1      44.599 -16.865   5.956  1.00  0.00     0.050 C 
ENDBRANCH   3   6
ENDBRANCH   1   2
BRANCH   1  14
HETATM   14  N   UNL     1      42.523 -13.243   6.739  1.00  0.00    -0.338 N 
HETATM   15  C   UNL     1      43.470 -12.574   6.007  1.00  0.00     0.273 C 
HETATM   16  O   UNL     1      43.524 -12.606   4.782  1.00  0.00    -0.266 OA
HETATM   17  H   UNL     1      42.574 -13.060   7.738  1.00  0.00     0.164 HD
BRANCH  15  18
HETATM   18  C   UNL     1      44.425 -11.823   6.834  1.00  0.00     0.145 A 
HETATM   19  N   UNL     1      44.186 -11.562   8.136  1.00  0.00    -0.170 NA
HETATM   20  N   UNL     1      45.268 -10.868   8.532  1.00  0.00    -0.289 N 
HETATM   21  H   UNL     1      45.317 -10.558   9.498  1.00  0.00     0.188 HD
HETATM   22  C   UNL     1      46.181 -10.666   7.541  1.00  0.00     0.112 A 
HETATM   23  C   UNL     1      45.666 -11.274   6.423  1.00  0.00     0.058 A 
ENDBRANCH  15  18
ENDBRANCH   1  14
BRANCH   1  24
HETATM   24  C   UNL     1      40.399 -12.834   5.447  1.00  0.00    -0.026 A 
HETATM   25  C   UNL     1      39.969 -11.637   6.046  1.00  0.00     0.010 A 
HETATM   26  C   UNL     1      39.217 -10.699   5.334  1.00  0.00     0.001 A 
HETATM   27  C   UNL     1      38.899 -10.927   4.000  1.00  0.00     0.000 A 
HETATM   28  C   UNL     1      39.340 -12.088   3.374  1.00  0.00     0.001 A 
HETATM   29  C   UNL     1      40.093 -13.027   4.087  1.00  0.00     0.010 A 
ENDBRANCH   1  24
TORSDOF 5
ENDMDL
MODEL 3
REMARK VINA RESULT:      -8.5      3.624      6.060
REMARK  5 active torsions:
REMARK  status: ('A' for Active; 'I' for Inactive)
REMARK    1  A    between atoms: C_3  and  N_4 
REMARK       I    between atoms: N_4  and  C_5 
REMARK    2  A    between atoms: C_5  and  C_6 
REMARK    3  A    between atoms: C_6  and  N_7 
REMARK    4  A    between atoms: C_6  and  C_16 
REMARK       I    between atoms: N_7  and  C_8 
REMARK    5  A    between atoms: C_8  and  C_9 
ROOT
HETATM    1  C   UNL     1      41.303 -13.730   6.066  1.00  0.00     0.210 C 
ENDROOT
BRANCH   1   2
HETATM    2  C   UNL     1      41.478 -15.156   5.459  1.00  0.00     0.249 C 
HETATM    3  N   UNL     1      42.531 -15.308   4.572  1.00  0.00    -0.324 N 
HETATM    4  H   UNL     1      43.240 -14.579   4.619  1.00  0.00     0.169 HD
HETATM    5  O   UNL     1      40.674 -16.046   5.751  1.00  0.00    -0.270 OA
BRANCH   3   6
HETATM    6  C   UNL     1      42.940 -16.542   4.007  1.00  0.00     0.046 A 
HETATM    7  C   UNL     1      43.866 -17.398   4.639  1.00  0.00    -0.035 A 
HETATM    8  C   UNL     1      44.437 -17.152   6.009  1.00  0.00     0.050 C 
HETATM    9  C   UNL     1      44.253 -18.587   3.994  1.00  0.00     0.009 A 
HETATM   10  C   UNL     1      43.693 -18.958   2.776  1.00  0.00     0.001 A 
HETATM   11  C   UNL     1      42.733 -18.148   2.185  1.00  0.00     0.009 A 
HETATM   12  C   UNL     1      42.346 -16.938   2.785  1.00  0.00    -0.035 A 
HETATM   13  C   UNL     1      41.322 -16.093   2.074  1.00  0.00     0.050 C 
ENDBRANCH   3   6
ENDBRANCH   1   2
BRANCH   1  14
HETATM   14  N   UNL     1      42.517 -13.164   6.655  1.00  0.00    -0.338 N 
HETATM   15  C   UNL     1      43.514 -12.511   5.976  1.00  0.00     0.273 C 
HETATM   16  O   UNL     1      43.642 -12.557   4.756  1.00  0.00    -0.266 OA
HETATM   17  H   UNL     1      42.509 -12.970   7.653  1.00  0.00     0.164 HD
BRANCH  15  18
HETATM   18  C   UNL     1      44.425 -11.761   6.852  1.00  0.00     0.145 A 
HETATM   19  N   UNL     1      44.132 -11.527   8.147  1.00  0.00    -0.170 NA
HETATM   20  N   UNL     1      45.187 -10.824   8.597  1.00  0.00    -0.289 N 
HETATM   21  H   UNL     1      45.193 -10.530   9.570  1.00  0.00     0.188 HD
HETATM   22  C   UNL     1      46.134 -10.592   7.647  1.00  0.00     0.112 A 
HETATM   23  C   UNL     1      45.672 -11.187   6.499  1.00  0.00     0.058 A 
ENDBRANCH  15  18
ENDBRANCH   1  14
BRANCH   1  24
HETATM   24  C   UNL     1      40.498 -12.757   5.203  1.00  0.00    -0.026 A 
HETATM   25  C   UNL     1      40.140 -13.098   3.887  1.00  0.00     0.010 A 
HETATM   26  C   UNL     1      39.350 -12.249   3.106  1.00  0.00     0.001 A 
HETATM   27  C   UNL     1      38.882 -11.051   3.635  1.00  0.00     0.000 A 
HETATM   28  C   UNL     1      39.194 -10.706   4.945  1.00  0.00     0.001 A 
HETATM   29  C   UNL     1      39.985 -11.555   5.725  1.00  0.00     0.010 A 
ENDBRANCH   1  24
TORSDOF 5
ENDMDL
MODEL 4
REMARK VINA RESULT:      -8.1      1.841      5.519
REMARK  5 active torsions:
REMARK  status: ('A' for Active; 'I' for Inactive)
REMARK    1  A    between atoms: C_3  and  N_4 
REMARK       I    between atoms: N_4  and  C_5 
REMARK    2  A    between atoms: C_5  and  C_6 
REMARK    3  A    between atoms: C_6  and  N_7 
REMARK    4  A    between atoms: C_6  and  C_16 
REMARK       I    between atoms: N_7  and  C_8 
REMARK    5  A    between atoms: C_8  and  C_9 
ROOT
HETATM    1  C   UNL     1      41.793 -15.411   2.908  1.00  0.00     0.210 C 
ENDROOT
BRANCH   1   2
HETATM    2  C   UNL     1      42.489 -14.171   3.550  1.00  0.00     0.249 C 
HETATM    3  N   UNL     1      41.965 -13.748   4.761  1.00  0.00    -0.324 N 
HETATM    4  H   UNL     1      41.385 -14.434   5.241  1.00  0.00     0.169 HD
HETATM    5  O   UNL     1      43.413 -13.614   2.953  1.00  0.00    -0.270 OA
BRANCH   3   6
HETATM    6  C   UNL     1      42.523 -12.726   5.568  1.00  0.00     0.046 A 
HETATM    7  C   UNL     1      42.150 -11.371   5.446  1.00  0.00    -0.035 A 
HETATM    8  C   UNL     1      41.061 -10.879   4.532  1.00  0.00     0.050 C 
HETATM    9  C   UNL     1      42.781 -10.408   6.256  1.00  0.00     0.009 A 
HETATM   10  C   UNL     1      43.719 -10.780   7.214  1.00  0.00     0.001 A 
HETATM   11  C   UNL     1      44.039 -12.121   7.380  1.00  0.00     0.009 A 
HETATM   12  C   UNL     1      43.452 -13.105   6.567  1.00  0.00    -0.035 A 
HETATM   13  C   UNL     1      43.868 -14.537   6.779  1.00  0.00     0.050 C 
ENDBRANCH   3   6
ENDBRANCH   1   2
BRANCH   1  14
HETATM   14  N   UNL     1      41.276 -15.190   1.557  1.00  0.00    -0.338 N 
HETATM   15  C   UNL     1      40.279 -14.315   1.208  1.00  0.00     0.273 C 
HETATM   16  O   UNL     1      39.513 -13.806   2.020  1.00  0.00    -0.266 OA
HETATM   17  H   UNL     1      41.866 -15.468   0.776  1.00  0.00     0.164 HD
BRANCH  15  18
HETATM   18  C   UNL     1      40.207 -14.055  -0.236  1.00  0.00     0.145 A 
HETATM   19  N   UNL     1      40.898 -13.050  -0.813  1.00  0.00    -0.170 NA
HETATM   20  N   UNL     1      40.572 -13.137  -2.115  1.00  0.00    -0.289 N 
HETATM   21  H   UNL     1      40.983 -12.470  -2.762  1.00  0.00     0.188 HD
HETATM   22  C   UNL     1      39.699 -14.144  -2.394  1.00  0.00     0.112 A 
HETATM   23  C   UNL     1      39.439 -14.763  -1.196  1.00  0.00     0.058 A 
ENDBRANCH  15  18
ENDBRANCH   1  14
BRANCH   1  24
HETATM   24  C   UNL     1      42.534 -16.736   3.099  1.00  0.00    -0.026 A 
HETATM   25  C   UNL     1      42.454 -17.746   2.124  1.00  0.00     0.010 A 
HETATM   26  C   UNL     1      43.176 -18.936   2.251  1.00  0.00     0.001 A 
HETATM   27  C   UNL     1      44.012 -19.131   3.346  1.00  0.00     0.000 A 
HETATM   28  C   UNL     1      44.133 -18.134   4.308  1.00  0.00     0.001 A 
HETATM   29  C   UNL     1      43.411 -16.943   4.180  1.00  0.00     0.010 A 
ENDBRANCH   1  24
TORSDOF 5
ENDMDL
MODEL 5
REMARK VINA RESULT:      -7.9      3.427      5.366
REMARK  5 active torsions:
REMARK  status: ('A' for Active; 'I' for Inactive)
REMARK    1  A    between atoms: C_3  and  N_4 
REMARK       I    between atoms: N_4  and  C_5 
REMARK    2  A    between atoms: C_5  and  C_6 
REMARK    3  A    between atoms: C_6  and  N_7 
REMARK    4  A    between atoms: C_6  and  C_16 
REMARK       I    between atoms: N_7  and  C_8 
REMARK    5  A    between atoms: C_8  and  C_9 
ROOT
HETATM    1  C   UNL     1      40.025 -13.791   3.478  1.00  0.00     0.210 C 
ENDROOT
BRANCH   1   2
HETATM    2  C   UNL     1      41.358 -14.548   3.766  1.00  0.00     0.249 C 
HETATM    3  N   UNL     1      41.226 -15.862   4.184  1.00  0.00    -0.324 N 
HETATM    4  H   UNL     1      40.319 -16.284   3.994  1.00  0.00     0.169 HD
HETATM    5  O   UNL     1      42.433 -13.952   3.655  1.00  0.00    -0.270 OA
BRANCH   3   6
HETATM    6  C   UNL     1      42.305 -16.759   4.378  1.00  0.00     0.046 A 
HETATM    7  C   UNL     1      42.978 -17.383   3.306  1.00  0.00    -0.035 A 
HETATM    8  C   UNL     1      42.700 -17.090   1.857  1.00  0.00     0.050 C 
HETATM    9  C   UNL     1      44.013 -18.295   3.582  1.00  0.00     0.009 A 
HETATM   10  C   UNL     1      44.421 -18.545   4.889  1.00  0.00     0.001 A 
HETATM   11  C   UNL     1      43.802 -17.882   5.941  1.00  0.00     0.009 A 
HETATM   12  C   UNL     1      42.744 -16.989   5.704  1.00  0.00    -0.035 A 
HETATM   13  C   UNL     1      42.098 -16.328   6.893  1.00  0.00     0.050 C 
ENDBRANCH   3   6
ENDBRANCH   1   2
BRANCH   1  14
HETATM   14  N   UNL     1      39.750 -12.672   4.380  1.00  0.00    -0.338 N 
HETATM   15  C   UNL     1      39.712 -12.732   5.749  1.00  0.00     0.273 C 
HETATM   16  O   UNL     1      39.637 -13.783   6.378  1.00  0.00    -0.266 OA
HETATM   17  H   UNL     1      39.880 -11.732   4.016  1.00  0.00     0.164 HD
BRANCH  15  18
HETATM   18  C   UNL     1      39.755 -11.412   6.394  1.00  0.00     0.145 A 
HETATM   19  N   UNL     1      38.737 -10.960   7.155  1.00  0.00    -0.170 NA
HETATM   20  N   UNL     1      39.145  -9.741   7.553  1.00  0.00    -0.289 N 
HETATM   21  H   UNL     1      38.531  -9.197   8.153  1.00  0.00     0.188 HD
HETATM   22  C   UNL     1      40.370  -9.392   7.072  1.00  0.00     0.112 A 
HETATM   23  C   UNL     1      40.797 -10.454   6.315  1.00  0.00     0.058 A 
ENDBRANCH  15  18
ENDBRANCH   1  14
BRANCH   1  24
HETATM   24  C   UNL     1      39.755 -13.500   2.000  1.00  0.00    -0.026 A 
HETATM   25  C   UNL     1      39.243 -12.254   1.599  1.00  0.00     0.010 A 
HETATM   26  C   UNL     1      39.052 -11.949   0.248  1.00  0.00     0.001 A 
HETATM   27  C   UNL     1      39.393 -12.875  -0.732  1.00  0.00     0.000 A 
HETATM   28  C   UNL     1      39.933 -14.102  -0.362  1.00  0.00     0.001 A 
HETATM   29  C   UNL     1      40.123 -14.408   0.989  1.00  0.00     0.010 A 
ENDBRANCH   1  24
TORSDOF 5
ENDMDL
MODEL 6
REMARK VINA RESULT:      -7.9      1.895      5.770
REMARK  5 active torsions:
REMARK  status: ('A' for Active; 'I' for Inactive)
REMARK    1  A    between atoms: C_3  and  N_4 
REMARK       I    between atoms: N_4  and  C_5 
REMARK    2  A    between atoms: C_5  and  C_6 
REMARK    3  A    between atoms: C_6  and  N_7 
REMARK    4  A    between atoms: C_6  and  C_16 
REMARK       I    between atoms: N_7  and  C_8 
REMARK    5  A    between atoms: C_8  and  C_9 
ROOT
HETATM    1  C   UNL     1      41.521 -15.504   3.272  1.00  0.00     0.210 C 
ENDROOT
BRANCH   1   2
HETATM    2  C   UNL     1      41.512 -14.417   4.391  1.00  0.00     0.249 C 
HETATM    3  N   UNL     1      42.392 -13.362   4.212  1.00  0.00    -0.324 N 
HETATM    4  H   UNL     1      42.740 -13.250   3.262  1.00  0.00     0.169 HD
HETATM    5  O   UNL     1      40.781 -14.561   5.374  1.00  0.00    -0.270 OA
BRANCH   3   6
HETATM    6  C   UNL     1      42.454 -12.214   5.040  1.00  0.00     0.046 A 
HETATM    7  C   UNL     1      43.203 -12.177   6.235  1.00  0.00    -0.035 A 
HETATM    8  C   UNL     1      44.089 -13.299   6.705  1.00  0.00     0.050 C 
HETATM    9  C   UNL     1      43.181 -11.013   7.025  1.00  0.00     0.009 A 
HETATM   10  C   UNL     1      42.483  -9.881   6.617  1.00  0.00     0.001 A 
HETATM   11  C   UNL     1      41.798  -9.895   5.408  1.00  0.00     0.009 A 
HETATM   12  C   UNL     1      41.773 -11.050   4.610  1.00  0.00    -0.035 A 
HETATM   13  C   UNL     1      40.985 -11.005   3.327  1.00  0.00     0.050 C 
ENDBRANCH   3   6
ENDBRANCH   1   2
BRANCH   1  14
HETATM   14  N   UNL     1      41.422 -14.979   1.910  1.00  0.00    -0.338 N 
HETATM   15  C   UNL     1      40.401 -15.217   1.026  1.00  0.00     0.273 C 
HETATM   16  O   UNL     1      39.578 -16.115   1.172  1.00  0.00    -0.266 OA
HETATM   17  H   UNL     1      41.977 -14.158   1.681  1.00  0.00     0.164 HD
BRANCH  15  18
HETATM   18  C   UNL     1      40.395 -14.301  -0.122  1.00  0.00     0.145 A 
HETATM   19  N   UNL     1      41.107 -13.155  -0.120  1.00  0.00    -0.170 NA
HETATM   20  N   UNL     1      40.843 -12.605  -1.319  1.00  0.00    -0.289 N 
HETATM   21  H   UNL     1      41.280 -11.719  -1.551  1.00  0.00     0.188 HD
HETATM   22  C   UNL     1      39.989 -13.343  -2.081  1.00  0.00     0.112 A 
HETATM   23  C   UNL     1      39.677 -14.453  -1.335  1.00  0.00     0.058 A 
ENDBRANCH  15  18
ENDBRANCH   1  14
BRANCH   1  24
HETATM   24  C   UNL     1      42.562 -16.610   3.456  1.00  0.00    -0.026 A 
HETATM   25  C   UNL     1      43.257 -16.742   4.672  1.00  0.00     0.010 A 
HETATM   26  C   UNL     1      44.164 -17.785   4.880  1.00  0.00     0.001 A 
HETATM   27  C   UNL     1      44.377 -18.733   3.885  1.00  0.00     0.000 A 
HETATM   28  C   UNL     1      43.678 -18.644   2.686  1.00  0.00     0.001 A 
HETATM   29  C   UNL     1      42.771 -17.600   2.478  1.00  0.00     0.010 A 
ENDBRANCH   1  24
TORSDOF 5
ENDMDL
MODEL 7
REMARK VINA RESULT:      -7.7      3.051      5.288
REMARK  5 active torsions:
REMARK  status: ('A' for Active; 'I' for Inactive)
REMARK    1  A    between atoms: C_3  and  N_4 
REMARK       I    between atoms: N_4  and  C_5 
REMARK    2  A    between atoms: C_5  and  C_6 
REMARK    3  A    between atoms: C_6  and  N_7 
REMARK    4  A    between atoms: C_6  and  C_16 
REMARK       I    between atoms: N_7  and  C_8 
REMARK    5  A    between atoms: C_8  and  C_9 
ROOT
HETATM    1  C   UNL     1      40.727 -13.946   4.085  1.00  0.00     0.210 C 
ENDROOT
BRANCH   1   2
HETATM    2  C   UNL     1      41.098 -15.459   4.170  1.00  0.00     0.249 C 
HETATM    3  N   UNL     1      42.447 -15.741   4.311  1.00  0.00    -0.324 N 
HETATM    4  H   UNL     1      43.019 -14.958   4.624  1.00  0.00     0.169 HD
HETATM    5  O   UNL     1      40.211 -16.311   4.069  1.00  0.00    -0.270 OA
BRANCH   3   6
HETATM    6  C   UNL     1      42.983 -17.034   4.530  1.00  0.00     0.046 A 
HETATM    7  C   UNL     1      43.409 -17.870   3.477  1.00  0.00    -0.035 A 
HETATM    8  C   UNL     1      43.439 -17.450   2.032  1.00  0.00     0.050 C 
HETATM    9  C   UNL     1      43.891 -19.158   3.773  1.00  0.00     0.009 A 
HETATM   10  C   UNL     1      44.011 -19.594   5.089  1.00  0.00     0.001 A 
HETATM   11  C   UNL     1      43.653 -18.748   6.130  1.00  0.00     0.009 A 
HETATM   12  C   UNL     1      43.137 -17.467   5.869  1.00  0.00    -0.035 A 
HETATM   13  C   UNL     1      42.740 -16.613   7.044  1.00  0.00     0.050 C 
ENDBRANCH   3   6
ENDBRANCH   1   2
BRANCH   1  14
HETATM   14  N   UNL     1      41.684 -13.045   4.727  1.00  0.00    -0.338 N 
HETATM   15  C   UNL     1      41.453 -12.286   5.846  1.00  0.00     0.273 C 
HETATM   16  O   UNL     1      40.331 -12.063   6.290  1.00  0.00    -0.266 OA
HETATM   17  H   UNL     1      42.672 -13.190   4.529  1.00  0.00     0.164 HD
BRANCH  15  18
HETATM   18  C   UNL     1      42.679 -11.752   6.454  1.00  0.00     0.145 A 
HETATM   19  N   UNL     1      42.815 -10.442   6.746  1.00  0.00    -0.170 NA
HETATM   20  N   UNL     1      44.049 -10.353   7.274  1.00  0.00    -0.289 N 
HETATM   21  H   UNL     1      44.380  -9.442   7.579  1.00  0.00     0.188 HD
HETATM   22  C   UNL     1      44.709 -11.543   7.325  1.00  0.00     0.112 A 
HETATM   23  C   UNL     1      43.848 -12.476   6.800  1.00  0.00     0.058 A 
ENDBRANCH  15  18
ENDBRANCH   1  14
BRANCH   1  24
HETATM   24  C   UNL     1      40.232 -13.481   2.715  1.00  0.00    -0.026 A 
HETATM   25  C   UNL     1      39.412 -12.344   2.599  1.00  0.00     0.010 A 
HETATM   26  C   UNL     1      39.004 -11.867   1.350  1.00  0.00     0.001 A 
HETATM   27  C   UNL     1      39.428 -12.503   0.188  1.00  0.00     0.000 A 
HETATM   28  C   UNL     1      40.266 -13.609   0.274  1.00  0.00     0.001 A 
HETATM   29  C   UNL     1      40.674 -14.086   1.524  1.00  0.00     0.010 A 
ENDBRANCH   1  24
TORSDOF 5
ENDMDL
MODEL 8
REMARK VINA RESULT:      -7.7     13.759     15.618
REMARK  5 active torsions:
REMARK  status: ('A' for Active; 'I' for Inactive)
REMARK    1  A    between atoms: C_3  and  N_4 
REMARK       I    between atoms: N_4  and  C_5 
REMARK    2  A    between atoms: C_5  and  C_6 
REMARK    3  A    between atoms: C_6  and  N_7 
REMARK    4  A    between atoms: C_6  and  C_16 
REMARK       I    between atoms: N_7  and  C_8 
REMARK    5  A    between atoms: C_8  and  C_9 
ROOT
HETATM    1  C   UNL     1      44.887 -29.603   1.523  1.00  0.00     0.210 C 
ENDROOT
BRANCH   1   2
HETATM    2  C   UNL     1      45.164 -30.266   0.138  1.00  0.00     0.249 C 
HETATM    3  N   UNL     1      44.256 -29.968  -0.864  1.00  0.00    -0.324 N 
HETATM    4  H   UNL     1      43.679 -29.146  -0.690  1.00  0.00     0.169 HD
HETATM    5  O   UNL     1      46.120 -31.035   0.011  1.00  0.00    -0.270 OA
BRANCH   3   6
HETATM    6  C   UNL     1      44.389 -30.362  -2.218  1.00  0.00     0.046 A 
HETATM    7  C   UNL     1      44.129 -31.677  -2.657  1.00  0.00    -0.035 A 
HETATM    8  C   UNL     1      43.590 -32.766  -1.770  1.00  0.00     0.050 C 
HETATM    9  C   UNL     1      44.326 -32.002  -4.012  1.00  0.00     0.009 A 
HETATM   10  C   UNL     1      44.713 -31.034  -4.933  1.00  0.00     0.001 A 
HETATM   11  C   UNL     1      44.907 -29.724  -4.514  1.00  0.00     0.009 A 
HETATM   12  C   UNL     1      44.750 -29.371  -3.163  1.00  0.00    -0.035 A 
HETATM   13  C   UNL     1      45.005 -27.940  -2.772  1.00  0.00     0.050 C 
ENDBRANCH   3   6
ENDBRANCH   1   2
BRANCH   1  14
HETATM   14  N   UNL     1      43.681 -30.080   2.199  1.00  0.00    -0.338 N 
HETATM   15  C   UNL     1      42.389 -29.774   1.854  1.00  0.00     0.273 C 
HETATM   16  O   UNL     1      42.091 -28.849   1.105  1.00  0.00    -0.266 OA
HETATM   17  H   UNL     1      43.762 -30.915   2.773  1.00  0.00     0.164 HD
BRANCH  15  18
HETATM   18  C   UNL     1      41.392 -30.653   2.481  1.00  0.00     0.145 A 
HETATM   19  N   UNL     1      41.088 -30.561   3.792  1.00  0.00    -0.170 NA
HETATM   20  N   UNL     1      40.158 -31.515   3.979  1.00  0.00    -0.289 N 
HETATM   21  H   UNL     1      39.768 -31.634   4.909  1.00  0.00     0.188 HD
HETATM   22  C   UNL     1      39.863 -32.217   2.850  1.00  0.00     0.112 A 
HETATM   23  C   UNL     1      40.646 -31.684   1.856  1.00  0.00     0.058 A 
ENDBRANCH  15  18
ENDBRANCH   1  14
BRANCH   1  24
HETATM   24  C   UNL     1      46.113 -29.465   2.427  1.00  0.00    -0.026 A 
HETATM   25  C   UNL     1      46.311 -30.348   3.503  1.00  0.00     0.010 A 
HETATM   26  C   UNL     1      47.458 -30.278   4.299  1.00  0.00     0.001 A 
HETATM   27  C   UNL     1      48.443 -29.337   4.021  1.00  0.00     0.000 A 
HETATM   28  C   UNL     1      48.287 -28.473   2.942  1.00  0.00     0.001 A 
HETATM   29  C   UNL     1      47.140 -28.544   2.146  1.00  0.00     0.010 A 
ENDBRANCH   1  24
TORSDOF 5
ENDMDL
MODEL 9
REMARK VINA RESULT:      -7.6      2.498      3.481
REMARK  5 active torsions:
REMARK  status: ('A' for Active; 'I' for Inactive)
REMARK    1  A    between atoms: C_3  and  N_4 
REMARK       I    between atoms: N_4  and  C_5 
REMARK    2  A    between atoms: C_5  and  C_6 
REMARK    3  A    between atoms: C_6  and  N_7 
REMARK    4  A    between atoms: C_6  and  C_16 
REMARK       I    between atoms: N_7  and  C_8 
REMARK    5  A    between atoms: C_8  and  C_9 
ROOT
HETATM    1  C   UNL     1      41.302 -12.609   3.295  1.00  0.00     0.210 C 
ENDROOT
BRANCH   1   2
HETATM    2  C   UNL     1      42.194 -13.725   3.922  1.00  0.00     0.249 C 
HETATM    3  N   UNL     1      41.743 -15.024   3.751  1.00  0.00    -0.324 N 
HETATM    4  H   UNL     1      41.053 -15.144   3.013  1.00  0.00     0.169 HD
HETATM    5  O   UNL     1      43.204 -13.412   4.559  1.00  0.00    -0.270 OA
BRANCH   3   6
HETATM    6  C   UNL     1      42.462 -16.184   4.131  1.00  0.00     0.046 A 
HETATM    7  C   UNL     1      42.468 -16.677   5.453  1.00  0.00    -0.035 A 
HETATM    8  C   UNL     1      41.644 -16.095   6.569  1.00  0.00     0.050 C 
HETATM    9  C   UNL     1      43.241 -17.812   5.760  1.00  0.00     0.009 A 
HETATM   10  C   UNL     1      43.947 -18.489   4.771  1.00  0.00     0.001 A 
HETATM   11  C   UNL     1      43.889 -18.043   3.457  1.00  0.00     0.009 A 
HETATM   12  C   UNL     1      43.153 -16.894   3.120  1.00  0.00    -0.035 A 
HETATM   13  C   UNL     1      43.158 -16.448   1.682  1.00  0.00     0.050 C 
ENDBRANCH   3   6
ENDBRANCH   1   2
BRANCH   1  14
HETATM   14  N   UNL     1      40.496 -13.042   2.154  1.00  0.00    -0.338 N 
HETATM   15  C   UNL     1      40.630 -12.606   0.860  1.00  0.00     0.273 C 
HETATM   16  O   UNL     1      41.263 -11.602   0.548  1.00  0.00    -0.266 OA
HETATM   17  H   UNL     1      39.998 -13.925   2.237  1.00  0.00     0.164 HD
BRANCH  15  18
HETATM   18  C   UNL     1      39.930 -13.451  -0.117  1.00  0.00     0.145 A 
HETATM   19  N   UNL     1      39.873 -14.792   0.014  1.00  0.00    -0.170 NA
HETATM   20  N   UNL     1      39.165 -15.194  -1.056  1.00  0.00    -0.289 N 
HETATM   21  H   UNL     1      38.986 -16.188  -1.172  1.00  0.00     0.188 HD
HETATM   22  C   UNL     1      38.776 -14.173  -1.869  1.00  0.00     0.112 A 
HETATM   23  C   UNL     1      39.255 -13.024  -1.289  1.00  0.00     0.058 A 
ENDBRANCH  15  18
ENDBRANCH   1  14
BRANCH   1  24
HETATM   24  C   UNL     1      40.560 -11.734   4.306  1.00  0.00    -0.026 A 
HETATM   25  C   UNL     1      39.894 -12.313   5.400  1.00  0.00     0.010 A 
HETATM   26  C   UNL     1      39.267 -11.525   6.369  1.00  0.00     0.001 A 
HETATM   27  C   UNL     1      39.312 -10.138   6.276  1.00  0.00     0.000 A 
HETATM   28  C   UNL     1      39.993  -9.539   5.221  1.00  0.00     0.001 A 
HETATM   29  C   UNL     1      40.621 -10.329   4.252  1.00  0.00     0.010 A 
ENDBRANCH   1  24
TORSDOF 5
ENDMDL
MODEL 10
REMARK VINA RESULT:      -7.3      3.165      5.431
REMARK  5 active torsions:
REMARK  status: ('A' for Active; 'I' for Inactive)
REMARK    1  A    between atoms: C_3  and  N_4 
REMARK       I    between atoms: N_4  and  C_5 
REMARK    2  A    between atoms: C_5  and  C_6 
REMARK    3  A    between atoms: C_6  and  N_7 
REMARK    4  A    between atoms: C_6  and  C_16 
REMARK       I    between atoms: N_7  and  C_8 
REMARK    5  A    between atoms: C_8  and  C_9 
ROOT
HETATM    1  C   UNL     1      39.657 -13.507   1.334  1.00  0.00     0.210 C 
ENDROOT
BRANCH   1   2
HETATM    2  C   UNL     1      40.253 -14.773   2.024  1.00  0.00     0.249 C 
HETATM    3  N   UNL     1      41.380 -14.561   2.801  1.00  0.00    -0.324 N 
HETATM    4  H   UNL     1      41.538 -13.592   3.072  1.00  0.00     0.169 HD
HETATM    5  O   UNL     1      39.739 -15.876   1.820  1.00  0.00    -0.270 OA
BRANCH   3   6
HETATM    6  C   UNL     1      42.001 -15.546   3.608  1.00  0.00     0.046 A 
HETATM    7  C   UNL     1      41.653 -15.752   4.960  1.00  0.00    -0.035 A 
HETATM    8  C   UNL     1      40.530 -15.031   5.656  1.00  0.00     0.050 C 
HETATM    9  C   UNL     1      42.345 -16.721   5.708  1.00  0.00     0.009 A 
HETATM   10  C   UNL     1      43.322 -17.519   5.120  1.00  0.00     0.001 A 
HETATM   11  C   UNL     1      43.619 -17.362   3.773  1.00  0.00     0.009 A 
HETATM   12  C   UNL     1      42.970 -16.381   3.004  1.00  0.00    -0.035 A 
HETATM   13  C   UNL     1      43.363 -16.244   1.556  1.00  0.00     0.050 C 
ENDBRANCH   3   6
ENDBRANCH   1   2
BRANCH   1  14
HETATM   14  N   UNL     1      39.672 -12.298   2.158  1.00  0.00    -0.338 N 
HETATM   15  C   UNL     1      38.620 -11.440   2.350  1.00  0.00     0.273 C 
HETATM   16  O   UNL     1      37.617 -11.432   1.643  1.00  0.00    -0.266 OA
HETATM   17  H   UNL     1      40.395 -12.223   2.869  1.00  0.00     0.164 HD
BRANCH  15  18
HETATM   18  C   UNL     1      38.814 -10.519   3.479  1.00  0.00     0.145 A 
HETATM   19  N   UNL     1      38.220  -9.309   3.519  1.00  0.00    -0.170 NA
HETATM   20  N   UNL     1      38.639  -8.779   4.682  1.00  0.00    -0.289 N 
HETATM   21  H   UNL     1      38.312  -7.851   4.936  1.00  0.00     0.188 HD
HETATM   22  C   UNL     1      39.480  -9.591   5.380  1.00  0.00     0.112 A 
HETATM   23  C   UNL     1      39.616 -10.732   4.629  1.00  0.00     0.058 A 
ENDBRANCH  15  18
ENDBRANCH   1  14
BRANCH   1  24
HETATM   24  C   UNL     1      40.097 -13.297  -0.116  1.00  0.00    -0.026 A 
HETATM   25  C   UNL     1      39.663 -14.171  -1.128  1.00  0.00     0.010 A 
HETATM   26  C   UNL     1      40.001 -13.956  -2.467  1.00  0.00     0.001 A 
HETATM   27  C   UNL     1      40.762 -12.848  -2.826  1.00  0.00     0.000 A 
HETATM   28  C   UNL     1      41.176 -11.950  -1.847  1.00  0.00     0.001 A 
HETATM   29  C   UNL     1      40.837 -12.165  -0.508  1.00  0.00     0.010 A 
ENDBRANCH   1  24
TORSDOF 5
ENDMDL
