MODEL 1
REMARK VINA RESULT:      -8.6      0.000      0.000
REMARK  5 active torsions:
REMARK  status: ('A' for Active; 'I' for Inactive)
REMARK    1  A    between atoms: C_2  and  C_3 
REMARK    2  A    between atoms: C_7  and  N_8 
REMARK    3  A    between atoms: C_13  and  N_14 
REMARK       I    between atoms: N_14  and  C_15 
REMARK    4  A    between atoms: C_15  and  C_16 
REMARK       I    between atoms: C_16  and  N_17 
REMARK    5  A    between atoms: N_17  and  C_18 
ROOT
HETATM    1  N   UNL     1      41.398 -15.767   2.693  1.00  0.00    -0.045 N 
HETATM    2  N   UNL     1      41.585 -15.245   1.453  1.00  0.00    -0.156 NA
HETATM    3  C   UNL     1      40.578 -14.376   1.312  1.00  0.00     0.055 A 
HETATM    4  C   UNL     1      40.426 -13.595   0.058  1.00  0.00     0.072 C 
HETATM    5  C   UNL     1      39.750 -14.326   2.465  1.00  0.00     0.079 A 
HETATM    6  C   UNL     1      40.285 -15.243   3.338  1.00  0.00     0.152 A 
ENDROOT
BRANCH   6   7
HETATM    7  N   UNL     1      39.917 -15.603   4.626  1.00  0.00    -0.303 N 
HETATM    8  C   UNL     1      39.903 -14.845   5.826  1.00  0.00     0.315 C 
HETATM    9  O   UNL     1      39.760 -15.469   6.867  1.00  0.00    -0.262 OA
HETATM   10  H   UNL     1      39.624 -16.578   4.748  1.00  0.00     0.171 HD
BRANCH   8  11
HETATM   11  C   UNL     1      40.077 -13.323   5.865  1.00  0.00     0.310 C 
HETATM   12  N   UNL     1      41.212 -12.876   5.208  1.00  0.00    -0.348 N 
HETATM   13  H   UNL     1      41.853 -13.590   4.879  1.00  0.00     0.163 HD
HETATM   14  O   UNL     1      39.288 -12.622   6.479  1.00  0.00    -0.262 OA
BRANCH  12  15
HETATM   15  C   UNL     1      41.714 -11.521   5.368  1.00  0.00     0.085 C 
HETATM   16  C   UNL     1      42.674 -11.376   6.560  1.00  0.00     0.034 C 
HETATM   17  C   UNL     1      44.105 -11.917   6.338  1.00  0.00    -0.045 C 
HETATM   18  C   UNL     1      44.154 -13.453   6.422  1.00  0.00     0.015 C 
HETATM   19  C   UNL     1      44.998 -11.395   7.489  1.00  0.00     0.015 C 
HETATM   20  C   UNL     1      44.685 -11.392   5.004  1.00  0.00     0.013 C 
HETATM   21  C   UNL     1      43.767 -11.446   3.771  1.00  0.00    -0.016 C 
HETATM   22  C   UNL     1      42.334 -10.983   4.075  1.00  0.00     0.029 C 
HETATM   23  C   UNL     1      43.834 -12.776   3.019  1.00  0.00     0.010 C 
ENDBRANCH  12  15
ENDBRANCH   8  11
ENDBRANCH   6   7
BRANCH   1  24
HETATM   24  C   UNL     1      42.286 -16.714   3.225  1.00  0.00     0.732 A 
HETATM   25  N   UNL     1      42.420 -17.810   2.432  1.00  0.00    -0.152 N 
HETATM   26  C   UNL     1      43.283 -18.808   2.757  1.00  0.00     0.268 A 
HETATM   27  H   UNL     1      41.915 -17.872   1.554  1.00  0.00     0.188 HD
HETATM   28  C   UNL     1      43.990 -18.646   4.061  1.00  0.00     0.035 A 
HETATM   29  O   UNL     1      43.466 -19.769   2.020  1.00  0.00    -0.267 OA
HETATM   30  C   UNL     1      43.749 -17.521   4.769  1.00  0.00     0.061 A 
HETATM   31  N   UNL     1      42.901 -16.515   4.349  1.00  0.00    -0.067 NA
HETATM   32  C   UNL     1      44.402 -17.224   6.097  1.00  0.00     0.072 C 
BRANCH  28  33
HETATM   33  C   UNL     1      44.882 -19.789   4.475  1.00  0.00     0.042 C 
HETATM   34  C   UNL     1      44.134 -20.819   5.309  1.00  0.00     0.010 C 
ENDBRANCH  28  33
ENDBRANCH   1  24
TORSDOF 5
ENDMDL
MODEL 2
REMARK VINA RESULT:      -8.5      2.416      6.456
REMARK  5 active torsions:
REMARK  status: ('A' for Active; 'I' for Inactive)
REMARK    1  A    between atoms: C_2  and  C_3 
REMARK    2  A    between atoms: C_7  and  N_8 
REMARK    3  A    between atoms: C_13  and  N_14 
REMARK       I    between atoms: N_14  and  C_15 
REMARK    4  A    between atoms: C_15  and  C_16 
REMARK       I    between atoms: C_16  and  N_17 
REMARK    5  A    between atoms: N_17  and  C_18 
ROOT
HETATM    1  N   UNL     1      42.615 -11.414   4.156  1.00  0.00    -0.045 N 
HETATM    2  N   UNL     1      43.969 -11.426   4.257  1.00  0.00    -0.156 NA
HETATM    3  C   UNL     1      44.196 -11.401   5.575  1.00  0.00     0.055 A 
HETATM    4  C   UNL     1      45.584 -11.394   6.102  1.00  0.00     0.072 C 
HETATM    5  C   UNL     1      42.989 -11.386   6.324  1.00  0.00     0.079 A 
HETATM    6  C   UNL     1      41.981 -11.377   5.390  1.00  0.00     0.152 A 
ENDROOT
BRANCH   6   7
HETATM    7  N   UNL     1      40.601 -11.391   5.533  1.00  0.00    -0.303 N 
HETATM    8  C   UNL     1      39.697 -12.481   5.647  1.00  0.00     0.315 C 
HETATM    9  O   UNL     1      38.510 -12.223   5.525  1.00  0.00    -0.262 OA
HETATM   10  H   UNL     1      40.146 -10.473   5.539  1.00  0.00     0.171 HD
BRANCH   8  11
HETATM   11  C   UNL     1      40.145 -13.927   5.890  1.00  0.00     0.310 C 
HETATM   12  N   UNL     1      40.594 -14.568   4.747  1.00  0.00    -0.348 N 
HETATM   13  H   UNL     1      40.475 -14.068   3.873  1.00  0.00     0.163 HD
HETATM   14  O   UNL     1      40.041 -14.433   6.996  1.00  0.00    -0.262 OA
BRANCH  12  15
HETATM   15  C   UNL     1      40.788 -16.008   4.697  1.00  0.00     0.085 C 
HETATM   16  C   UNL     1      41.376 -16.486   3.359  1.00  0.00     0.034 C 
HETATM   17  C   UNL     1      42.890 -16.240   3.166  1.00  0.00    -0.045 C 
HETATM   18  C   UNL     1      43.191 -14.769   2.829  1.00  0.00     0.015 C 
HETATM   19  C   UNL     1      43.357 -17.065   1.943  1.00  0.00     0.015 C 
HETATM   20  C   UNL     1      43.682 -16.725   4.402  1.00  0.00     0.013 C 
HETATM   21  C   UNL     1      43.129 -16.339   5.784  1.00  0.00    -0.016 C 
HETATM   22  C   UNL     1      41.606 -16.519   5.887  1.00  0.00     0.029 C 
HETATM   23  C   UNL     1      43.620 -14.979   6.280  1.00  0.00     0.010 C 
ENDBRANCH  12  15
ENDBRANCH   8  11
ENDBRANCH   6   7
BRANCH   1  24
HETATM   24  C   UNL     1      41.979 -11.462   2.906  1.00  0.00     0.732 A 
HETATM   25  N   UNL     1      42.201 -10.346   2.162  1.00  0.00    -0.152 N 
HETATM   26  C   UNL     1      41.711 -10.238   0.899  1.00  0.00     0.268 A 
HETATM   27  H   UNL     1      42.784  -9.597   2.522  1.00  0.00     0.188 HD
HETATM   28  C   UNL     1      40.864 -11.377   0.438  1.00  0.00     0.035 A 
HETATM   29  O   UNL     1      41.960  -9.270   0.191  1.00  0.00    -0.267 OA
HETATM   30  C   UNL     1      40.699 -12.417   1.285  1.00  0.00     0.061 A 
HETATM   31  N   UNL     1      41.277 -12.488   2.538  1.00  0.00    -0.067 NA
HETATM   32  C   UNL     1      39.877 -13.637   0.945  1.00  0.00     0.072 C 
BRANCH  28  33
HETATM   33  C   UNL     1      40.243 -11.228  -0.926  1.00  0.00     0.042 C 
HETATM   34  C   UNL     1      41.119 -11.825  -2.018  1.00  0.00     0.010 C 
ENDBRANCH  28  33
ENDBRANCH   1  24
TORSDOF 5
ENDMDL
MODEL 3
REMARK VINA RESULT:      -8.1      1.746      3.174
REMARK  5 active torsions:
REMARK  status: ('A' for Active; 'I' for Inactive)
REMARK    1  A    between atoms: C_2  and  C_3 
REMARK    2  A    between atoms: C_7  and  N_8 
REMARK    3  A    between atoms: C_13  and  N_14 
REMARK       I    between atoms: N_14  and  C_15 
REMARK    4  A    between atoms: C_15  and  C_16 
REMARK       I    between atoms: C_16  and  N_17 
REMARK    5  A    between atoms: N_17  and  C_18 
ROOT
HETATM    1  N   UNL     1      41.548 -15.630   2.403  1.00  0.00    -0.045 N 
HETATM    2  N   UNL     1      41.760 -15.046   1.196  1.00  0.00    -0.156 NA
HETATM    3  C   UNL     1      40.857 -14.060   1.150  1.00  0.00     0.055 A 
HETATM    4  C   UNL     1      40.762 -13.179  -0.042  1.00  0.00     0.072 C 
HETATM    5  C   UNL     1      40.072 -14.000   2.332  1.00  0.00     0.079 A 
HETATM    6  C   UNL     1      40.521 -15.031   3.121  1.00  0.00     0.152 A 
ENDROOT
BRANCH   6   7
HETATM    7  N   UNL     1      40.148 -15.439   4.393  1.00  0.00    -0.303 N 
HETATM    8  C   UNL     1      40.668 -15.079   5.665  1.00  0.00     0.315 C 
HETATM    9  O   UNL     1      40.317 -15.763   6.614  1.00  0.00    -0.262 OA
HETATM   10  H   UNL     1      39.389 -16.126   4.435  1.00  0.00     0.171 HD
BRANCH   8  11
HETATM   11  C   UNL     1      41.641 -13.913   5.880  1.00  0.00     0.310 C 
HETATM   12  N   UNL     1      41.068 -12.668   5.678  1.00  0.00    -0.348 N 
HETATM   13  H   UNL     1      40.124 -12.661   5.307  1.00  0.00     0.163 HD
HETATM   14  O   UNL     1      42.813 -14.123   6.150  1.00  0.00    -0.262 OA
BRANCH  12  15
HETATM   15  C   UNL     1      41.870 -11.462   5.547  1.00  0.00     0.085 C 
HETATM   16  C   UNL     1      41.619 -10.718   4.226  1.00  0.00     0.034 C 
HETATM   17  C   UNL     1      40.311  -9.898   4.156  1.00  0.00    -0.045 C 
HETATM   18  C   UNL     1      39.082 -10.799   3.938  1.00  0.00     0.015 C 
HETATM   19  C   UNL     1      40.391  -8.974   2.917  1.00  0.00     0.015 C 
HETATM   20  C   UNL     1      40.160  -9.006   5.411  1.00  0.00     0.013 C 
HETATM   21  C   UNL     1      40.450  -9.659   6.773  1.00  0.00    -0.016 C 
HETATM   22  C   UNL     1      41.712 -10.535   6.756  1.00  0.00     0.029 C 
HETATM   23  C   UNL     1      39.233 -10.350   7.390  1.00  0.00     0.010 C 
ENDBRANCH  12  15
ENDBRANCH   8  11
ENDBRANCH   6   7
BRANCH   1  24
HETATM   24  C   UNL     1      42.335 -16.707   2.838  1.00  0.00     0.732 A 
HETATM   25  N   UNL     1      43.062 -16.410   3.948  1.00  0.00    -0.152 N 
HETATM   26  C   UNL     1      43.840 -17.349   4.547  1.00  0.00     0.268 A 
HETATM   27  H   UNL     1      42.991 -15.493   4.377  1.00  0.00     0.188 HD
HETATM   28  C   UNL     1      43.893 -18.673   3.859  1.00  0.00     0.035 A 
HETATM   29  O   UNL     1      44.447 -17.118   5.586  1.00  0.00    -0.267 OA
HETATM   30  C   UNL     1      43.142 -18.832   2.747  1.00  0.00     0.061 A 
HETATM   31  N   UNL     1      42.325 -17.849   2.225  1.00  0.00    -0.067 NA
HETATM   32  C   UNL     1      43.095 -20.119   1.960  1.00  0.00     0.072 C 
BRANCH  28  33
HETATM   33  C   UNL     1      44.822 -19.694   4.464  1.00  0.00     0.042 C 
HETATM   34  C   UNL     1      44.088 -20.649   5.395  1.00  0.00     0.010 C 
ENDBRANCH  28  33
ENDBRANCH   1  24
TORSDOF 5
ENDMDL
MODEL 4
REMARK VINA RESULT:      -8.1      3.337      8.247
REMARK  5 active torsions:
REMARK  status: ('A' for Active; 'I' for Inactive)
REMARK    1  A    between atoms: C_2  and  C_3 
REMARK    2  A    between atoms: C_7  and  N_8 
REMARK    3  A    between atoms: C_13  and  N_14 
REMARK       I    between atoms: N_14  and  C_15 
REMARK    4  A    between atoms: C_15  and  C_16 
REMARK       I    between atoms: C_16  and  N_17 
REMARK    5  A    between atoms: N_17  and  C_18 
ROOT
HETATM    1  N   UNL     1      42.432 -10.231   6.866  1.00  0.00    -0.045 N 
HETATM    2  N   UNL     1      43.690 -10.372   7.358  1.00  0.00    -0.156 NA
HETATM    3  C   UNL     1      44.344 -11.027   6.392  1.00  0.00     0.055 A 
HETATM    4  C   UNL     1      45.775 -11.387   6.559  1.00  0.00     0.072 C 
HETATM    5  C   UNL     1      43.512 -11.296   5.272  1.00  0.00     0.079 A 
HETATM    6  C   UNL     1      42.279 -10.790   5.604  1.00  0.00     0.152 A 
ENDROOT
BRANCH   6   7
HETATM    7  N   UNL     1      41.089 -10.737   4.893  1.00  0.00    -0.303 N 
HETATM    8  C   UNL     1      40.135 -11.753   4.617  1.00  0.00     0.315 C 
HETATM    9  O   UNL     1      39.294 -11.498   3.768  1.00  0.00    -0.262 OA
HETATM   10  H   UNL     1      40.860  -9.829   4.477  1.00  0.00     0.171 HD
BRANCH   8  11
HETATM   11  C   UNL     1      40.135 -13.121   5.308  1.00  0.00     0.310 C 
HETATM   12  N   UNL     1      40.848 -14.090   4.622  1.00  0.00    -0.348 N 
HETATM   13  H   UNL     1      41.189 -13.832   3.703  1.00  0.00     0.163 HD
HETATM   14  O   UNL     1      39.502 -13.297   6.337  1.00  0.00    -0.262 OA
BRANCH  12  15
HETATM   15  C   UNL     1      40.736 -15.503   4.945  1.00  0.00     0.085 C 
HETATM   16  C   UNL     1      41.133 -16.417   3.775  1.00  0.00     0.034 C 
HETATM   17  C   UNL     1      42.651 -16.560   3.520  1.00  0.00    -0.045 C 
HETATM   18  C   UNL     1      43.230 -15.321   2.813  1.00  0.00     0.015 C 
HETATM   19  C   UNL     1      42.864 -17.747   2.550  1.00  0.00     0.015 C 
HETATM   20  C   UNL     1      43.396 -16.877   4.836  1.00  0.00     0.013 C 
HETATM   21  C   UNL     1      43.017 -16.046   6.074  1.00  0.00    -0.016 C 
HETATM   22  C   UNL     1      41.499 -15.861   6.224  1.00  0.00     0.029 C 
HETATM   23  C   UNL     1      43.807 -14.743   6.200  1.00  0.00     0.010 C 
ENDBRANCH  12  15
ENDBRANCH   8  11
ENDBRANCH   6   7
BRANCH   1  24
HETATM   24  C   UNL     1      41.439  -9.556   7.593  1.00  0.00     0.732 A 
HETATM   25  N   UNL     1      41.469  -9.850   8.919  1.00  0.00    -0.152 N 
HETATM   26  C   UNL     1      40.618  -9.247   9.790  1.00  0.00     0.268 A 
HETATM   27  H   UNL     1      42.168 -10.489   9.287  1.00  0.00     0.188 HD
HETATM   28  C   UNL     1      39.621  -8.321   9.176  1.00  0.00     0.035 A 
HETATM   29  O   UNL     1      40.678  -9.449  10.997  1.00  0.00    -0.267 OA
HETATM   30  C   UNL     1      39.681  -8.134   7.839  1.00  0.00     0.061 A 
HETATM   31  N   UNL     1      40.614  -8.738   7.019  1.00  0.00    -0.067 NA
HETATM   32  C   UNL     1      38.741  -7.220   7.091  1.00  0.00     0.072 C 
BRANCH  28  33
HETATM   33  C   UNL     1      38.615  -7.714  10.120  1.00  0.00     0.042 C 
HETATM   34  C   UNL     1      39.100  -6.390  10.693  1.00  0.00     0.010 C 
ENDBRANCH  28  33
ENDBRANCH   1  24
TORSDOF 5
ENDMDL
MODEL 5
REMARK VINA RESULT:      -8.1      3.210      7.785
REMARK  5 active torsions:
REMARK  status: ('A' for Active; 'I' for Inactive)
REMARK    1  A    between atoms: C_2  and  C_3 
REMARK    2  A    between atoms: C_7  and  N_8 
REMARK    3  A    between atoms: C_13  and  N_14 
REMARK       I    between atoms: N_14  and  C_15 
REMARK    4  A    between atoms: C_15  and  C_16 
REMARK       I    between atoms: C_16  and  N_17 
REMARK    5  A    between atoms: N_17  and  C_18 
ROOT
HETATM    1  N   UNL     1      42.294  -9.978   6.991  1.00  0.00    -0.045 N 
HETATM    2  N   UNL     1      41.720  -8.975   6.277  1.00  0.00    -0.156 NA
HETATM    3  C   UNL     1      41.597  -9.483   5.046  1.00  0.00     0.055 A 
HETATM    4  C   UNL     1      41.011  -8.670   3.950  1.00  0.00     0.072 C 
HETATM    5  C   UNL     1      42.078 -10.817   4.968  1.00  0.00     0.079 A 
HETATM    6  C   UNL     1      42.539 -11.112   6.228  1.00  0.00     0.152 A 
ENDROOT
BRANCH   6   7
HETATM    7  N   UNL     1      43.089 -12.273   6.753  1.00  0.00    -0.303 N 
HETATM    8  C   UNL     1      42.563 -13.590   6.826  1.00  0.00     0.315 C 
HETATM    9  O   UNL     1      43.154 -14.376   7.550  1.00  0.00    -0.262 OA
HETATM   10  H   UNL     1      44.016 -12.173   7.177  1.00  0.00     0.171 HD
BRANCH   8  11
HETATM   11  C   UNL     1      41.308 -14.041   6.071  1.00  0.00     0.310 C 
HETATM   12  N   UNL     1      41.581 -14.719   4.894  1.00  0.00    -0.348 N 
HETATM   13  H   UNL     1      42.553 -14.745   4.604  1.00  0.00     0.163 HD
HETATM   14  O   UNL     1      40.195 -13.754   6.484  1.00  0.00    -0.262 OA
BRANCH  12  15
HETATM   15  C   UNL     1      40.557 -14.975   3.895  1.00  0.00     0.085 C 
HETATM   16  C   UNL     1      40.460 -13.863   2.839  1.00  0.00     0.034 C 
HETATM   17  C   UNL     1      41.565 -13.867   1.758  1.00  0.00    -0.045 C 
HETATM   18  C   UNL     1      42.894 -13.307   2.297  1.00  0.00     0.015 C 
HETATM   19  C   UNL     1      41.126 -12.912   0.621  1.00  0.00     0.015 C 
HETATM   20  C   UNL     1      41.734 -15.281   1.157  1.00  0.00     0.013 C 
HETATM   21  C   UNL     1      41.782 -16.460   2.144  1.00  0.00    -0.016 C 
HETATM   22  C   UNL     1      40.719 -16.355   3.249  1.00  0.00     0.029 C 
HETATM   23  C   UNL     1      43.185 -16.759   2.671  1.00  0.00     0.010 C 
ENDBRANCH  12  15
ENDBRANCH   8  11
ENDBRANCH   6   7
BRANCH   1  24
HETATM   24  C   UNL     1      42.562  -9.835   8.361  1.00  0.00     0.732 A 
HETATM   25  N   UNL     1      41.441  -9.601   9.093  1.00  0.00    -0.152 N 
HETATM   26  C   UNL     1      41.498  -9.492  10.446  1.00  0.00     0.268 A 
HETATM   27  H   UNL     1      40.533  -9.558   8.641  1.00  0.00     0.188 HD
HETATM   28  C   UNL     1      42.865  -9.566  11.039  1.00  0.00     0.035 A 
HETATM   29  O   UNL     1      40.489  -9.351  11.126  1.00  0.00    -0.267 OA
HETATM   30  C   UNL     1      43.902  -9.776  10.198  1.00  0.00     0.061 A 
HETATM   31  N   UNL     1      43.764  -9.937   8.833  1.00  0.00    -0.067 NA
HETATM   32  C   UNL     1      45.335  -9.882  10.663  1.00  0.00     0.072 C 
BRANCH  28  33
HETATM   33  C   UNL     1      42.951  -9.358  12.529  1.00  0.00     0.042 C 
HETATM   34  C   UNL     1      43.162  -7.894  12.887  1.00  0.00     0.010 C 
ENDBRANCH  28  33
ENDBRANCH   1  24
TORSDOF 5
ENDMDL
MODEL 6
REMARK VINA RESULT:      -7.9      4.559      8.178
REMARK  5 active torsions:
REMARK  status: ('A' for Active; 'I' for Inactive)
REMARK    1  A    between atoms: C_2  and  C_3 
REMARK    2  A    between atoms: C_7  and  N_8 
REMARK    3  A    between atoms: C_13  and  N_14 
REMARK       I    between atoms: N_14  and  C_15 
REMARK    4  A    between atoms: C_15  and  C_16 
REMARK       I    between atoms: C_16  and  N_17 
REMARK    5  A    between atoms: N_17  and  C_18 
ROOT
HETATM    1  N   UNL     1      40.414 -12.130  -1.723  1.00  0.00    -0.045 N 
HETATM    2  N   UNL     1      39.814 -13.011  -2.564  1.00  0.00    -0.156 NA
HETATM    3  C   UNL     1      39.600 -14.090  -1.803  1.00  0.00     0.055 A 
HETATM    4  C   UNL     1      38.957 -15.301  -2.375  1.00  0.00     0.072 C 
HETATM    5  C   UNL     1      40.050 -13.901  -0.470  1.00  0.00     0.079 A 
HETATM    6  C   UNL     1      40.588 -12.637  -0.442  1.00  0.00     0.152 A 
ENDROOT
BRANCH   6   7
HETATM    7  N   UNL     1      41.150 -11.904   0.592  1.00  0.00    -0.303 N 
HETATM    8  C   UNL     1      40.966 -12.002   1.997  1.00  0.00     0.315 C 
HETATM    9  O   UNL     1      41.400 -11.081   2.672  1.00  0.00    -0.262 OA
HETATM   10  H   UNL     1      41.788 -11.153   0.310  1.00  0.00     0.171 HD
BRANCH   8  11
HETATM   11  C   UNL     1      40.248 -13.175   2.674  1.00  0.00     0.310 C 
HETATM   12  N   UNL     1      41.092 -14.217   3.022  1.00  0.00    -0.348 N 
HETATM   13  H   UNL     1      42.050 -14.148   2.698  1.00  0.00     0.163 HD
HETATM   14  O   UNL     1      39.035 -13.162   2.818  1.00  0.00    -0.262 OA
BRANCH  12  15
HETATM   15  C   UNL     1      40.586 -15.525   3.404  1.00  0.00     0.085 C 
HETATM   16  C   UNL     1      41.123 -16.657   2.514  1.00  0.00     0.034 C 
HETATM   17  C   UNL     1      42.577 -17.099   2.797  1.00  0.00    -0.045 C 
HETATM   18  C   UNL     1      43.599 -16.099   2.226  1.00  0.00     0.015 C 
HETATM   19  C   UNL     1      42.824 -18.435   2.056  1.00  0.00     0.015 C 
HETATM   20  C   UNL     1      42.789 -17.342   4.309  1.00  0.00     0.013 C 
HETATM   21  C   UNL     1      42.229 -16.284   5.274  1.00  0.00    -0.016 C 
HETATM   22  C   UNL     1      40.815 -15.817   4.890  1.00  0.00     0.029 C 
HETATM   23  C   UNL     1      43.199 -15.135   5.550  1.00  0.00     0.010 C 
ENDBRANCH  12  15
ENDBRANCH   8  11
ENDBRANCH   6   7
BRANCH   1  24
HETATM   24  C   UNL     1      40.775 -10.844  -2.154  1.00  0.00     0.732 A 
HETATM   25  N   UNL     1      40.220 -10.517  -3.351  1.00  0.00    -0.152 N 
HETATM   26  C   UNL     1      40.411  -9.288  -3.900  1.00  0.00     0.268 A 
HETATM   27  H   UNL     1      39.607 -11.171  -3.828  1.00  0.00     0.188 HD
HETATM   28  C   UNL     1      41.322  -8.381  -3.141  1.00  0.00     0.035 A 
HETATM   29  O   UNL     1      39.862  -8.954  -4.942  1.00  0.00    -0.267 OA
HETATM   30  C   UNL     1      41.831  -8.836  -1.975  1.00  0.00     0.061 A 
HETATM   31  N   UNL     1      41.547 -10.080  -1.446  1.00  0.00    -0.067 NA
HETATM   32  C   UNL     1      42.756  -8.022  -1.105  1.00  0.00     0.072 C 
BRANCH  28  33
HETATM   33  C   UNL     1      41.612  -7.049  -3.784  1.00  0.00     0.042 C 
HETATM   34  C   UNL     1      42.895  -7.080  -4.602  1.00  0.00     0.010 C 
ENDBRANCH  28  33
ENDBRANCH   1  24
TORSDOF 5
ENDMDL
MODEL 7
REMARK VINA RESULT:      -7.8      4.050      6.400
REMARK  5 active torsions:
REMARK  status: ('A' for Active; 'I' for Inactive)
REMARK    1  A    between atoms: C_2  and  C_3 
REMARK    2  A    between atoms: C_7  and  N_8 
REMARK    3  A    between atoms: C_13  and  N_14 
REMARK       I    between atoms: N_14  and  C_15 
REMARK    4  A    between atoms: C_15  and  C_16 
REMARK       I    between atoms: C_16  and  N_17 
REMARK    5  A    between atoms: N_17  and  C_18 
ROOT
HETATM    1  N   UNL     1      43.360 -12.202   6.212  1.00  0.00    -0.045 N 
HETATM    2  N   UNL     1      44.702 -12.179   6.418  1.00  0.00    -0.156 NA
HETATM    3  C   UNL     1      44.897 -11.085   7.162  1.00  0.00     0.055 A 
HETATM    4  C   UNL     1      46.264 -10.701   7.595  1.00  0.00     0.072 C 
HETATM    5  C   UNL     1      43.680 -10.410   7.447  1.00  0.00     0.079 A 
HETATM    6  C   UNL     1      42.702 -11.136   6.811  1.00  0.00     0.152 A 
ENDROOT
BRANCH   6   7
HETATM    7  N   UNL     1      41.326 -10.970   6.762  1.00  0.00    -0.303 N 
HETATM    8  C   UNL     1      40.497  -9.971   7.337  1.00  0.00     0.315 C 
HETATM    9  O   UNL     1      39.295 -10.191   7.339  1.00  0.00    -0.262 OA
HETATM   10  H   UNL     1      40.810 -11.690   6.245  1.00  0.00     0.171 HD
BRANCH   8  11
HETATM   11  C   UNL     1      41.039  -8.678   7.957  1.00  0.00     0.310 C 
HETATM   12  N   UNL     1      41.388  -8.805   9.291  1.00  0.00    -0.348 N 
HETATM   13  H   UNL     1      41.148  -9.683   9.739  1.00  0.00     0.163 HD
HETATM   14  O   UNL     1      41.085  -7.647   7.304  1.00  0.00    -0.262 OA
BRANCH  12  15
HETATM   15  C   UNL     1      41.646  -7.650  10.135  1.00  0.00     0.085 C 
HETATM   16  C   UNL     1      40.751  -7.610  11.384  1.00  0.00     0.034 C 
HETATM   17  C   UNL     1      41.149  -8.575  12.524  1.00  0.00    -0.045 C 
HETATM   18  C   UNL     1      40.737 -10.026  12.216  1.00  0.00     0.015 C 
HETATM   19  C   UNL     1      40.363  -8.167  13.794  1.00  0.00     0.015 C 
HETATM   20  C   UNL     1      42.659  -8.456  12.836  1.00  0.00     0.013 C 
HETATM   21  C   UNL     1      43.622  -8.429  11.638  1.00  0.00    -0.016 C 
HETATM   22  C   UNL     1      43.128  -7.524  10.498  1.00  0.00     0.029 C 
HETATM   23  C   UNL     1      44.055  -9.819  11.171  1.00  0.00     0.010 C 
ENDBRANCH  12  15
ENDBRANCH   8  11
ENDBRANCH   6   7
BRANCH   1  24
HETATM   24  C   UNL     1      42.753 -13.236   5.483  1.00  0.00     0.732 A 
HETATM   25  N   UNL     1      43.127 -13.245   4.176  1.00  0.00    -0.152 N 
HETATM   26  C   UNL     1      42.685 -14.210   3.327  1.00  0.00     0.268 A 
HETATM   27  H   UNL     1      43.788 -12.557   3.827  1.00  0.00     0.188 HD
HETATM   28  C   UNL     1      41.719 -15.185   3.912  1.00  0.00     0.035 A 
HETATM   29  O   UNL     1      43.066 -14.272   2.165  1.00  0.00    -0.267 OA
HETATM   30  C   UNL     1      41.408 -15.052   5.220  1.00  0.00     0.061 A 
HETATM   31  N   UNL     1      41.942 -14.078   6.042  1.00  0.00    -0.067 NA
HETATM   32  C   UNL     1      40.453 -15.973   5.941  1.00  0.00     0.072 C 
BRANCH  28  33
HETATM   33  C   UNL     1      41.153 -16.207   2.959  1.00  0.00     0.042 C 
HETATM   34  C   UNL     1      39.922 -15.685   2.232  1.00  0.00     0.010 C 
ENDBRANCH  28  33
ENDBRANCH   1  24
TORSDOF 5
ENDMDL
MODEL 8
REMARK VINA RESULT:      -7.8     14.787     16.784
REMARK  5 active torsions:
REMARK  status: ('A' for Active; 'I' for Inactive)
REMARK    1  A    between atoms: C_2  and  C_3 
REMARK    2  A    between atoms: C_7  and  N_8 
REMARK    3  A    between atoms: C_13  and  N_14 
REMARK       I    between atoms: N_14  and  C_15 
REMARK    4  A    between atoms: C_15  and  C_16 
REMARK       I    between atoms: C_16  and  N_17 
REMARK    5  A    between atoms: N_17  and  C_18 
ROOT
HETATM    1  N   UNL     1      44.583 -29.521  -1.438  1.00  0.00    -0.045 N 
HETATM    2  N   UNL     1      44.226 -30.087  -2.620  1.00  0.00    -0.156 NA
HETATM    3  C   UNL     1      44.981 -29.453  -3.524  1.00  0.00     0.055 A 
HETATM    4  C   UNL     1      44.872 -29.790  -4.967  1.00  0.00     0.072 C 
HETATM    5  C   UNL     1      45.835 -28.489  -2.925  1.00  0.00     0.079 A 
HETATM    6  C   UNL     1      45.551 -28.535  -1.582  1.00  0.00     0.152 A 
ENDROOT
BRANCH   6   7
HETATM    7  N   UNL     1      46.092 -27.843  -0.508  1.00  0.00    -0.303 N 
HETATM    8  C   UNL     1      46.967 -28.279   0.523  1.00  0.00     0.315 C 
HETATM    9  O   UNL     1      47.102 -27.531   1.479  1.00  0.00    -0.262 OA
HETATM   10  H   UNL     1      45.806 -26.863  -0.422  1.00  0.00     0.171 HD
BRANCH   8  11
HETATM   11  C   UNL     1      47.708 -29.620   0.490  1.00  0.00     0.310 C 
HETATM   12  N   UNL     1      47.441 -30.429   1.582  1.00  0.00    -0.348 N 
HETATM   13  H   UNL     1      46.890 -30.015   2.326  1.00  0.00     0.163 HD
HETATM   14  O   UNL     1      48.491 -29.877  -0.411  1.00  0.00    -0.262 OA
BRANCH  12  15
HETATM   15  C   UNL     1      48.247 -31.599   1.891  1.00  0.00     0.085 C 
HETATM   16  C   UNL     1      49.650 -31.240   2.406  1.00  0.00     0.034 C 
HETATM   17  C   UNL     1      49.723 -30.759   3.874  1.00  0.00    -0.045 C 
HETATM   18  C   UNL     1      49.242 -29.304   4.023  1.00  0.00     0.015 C 
HETATM   19  C   UNL     1      51.208 -30.767   4.307  1.00  0.00     0.015 C 
HETATM   20  C   UNL     1      48.947 -31.723   4.801  1.00  0.00     0.013 C 
HETATM   21  C   UNL     1      47.556 -32.179   4.332  1.00  0.00    -0.016 C 
HETATM   22  C   UNL     1      47.525 -32.558   2.843  1.00  0.00     0.029 C 
HETATM   23  C   UNL     1      46.430 -31.231   4.746  1.00  0.00     0.010 C 
ENDBRANCH  12  15
ENDBRANCH   8  11
ENDBRANCH   6   7
BRANCH   1  24
HETATM   24  C   UNL     1      44.018 -29.947  -0.227  1.00  0.00     0.732 A 
HETATM   25  N   UNL     1      43.135 -29.049   0.285  1.00  0.00    -0.152 N 
HETATM   26  C   UNL     1      42.445 -29.316   1.425  1.00  0.00     0.268 A 
HETATM   27  H   UNL     1      42.938 -28.185  -0.211  1.00  0.00     0.188 HD
HETATM   28  C   UNL     1      42.788 -30.605   2.095  1.00  0.00     0.035 A 
HETATM   29  O   UNL     1      41.596 -28.549   1.860  1.00  0.00    -0.267 OA
HETATM   30  C   UNL     1      43.704 -31.399   1.497  1.00  0.00     0.061 A 
HETATM   31  N   UNL     1      44.325 -31.090   0.303  1.00  0.00    -0.067 NA
HETATM   32  C   UNL     1      44.136 -32.731   2.060  1.00  0.00     0.072 C 
BRANCH  28  33
HETATM   33  C   UNL     1      42.095 -30.871   3.407  1.00  0.00     0.042 C 
HETATM   34  C   UNL     1      40.773 -31.602   3.213  1.00  0.00     0.010 C 
ENDBRANCH  28  33
ENDBRANCH   1  24
TORSDOF 5
ENDMDL
MODEL 9
REMARK VINA RESULT:      -7.7      3.030      7.324
REMARK  5 active torsions:
REMARK  status: ('A' for Active; 'I' for Inactive)
REMARK    1  A    between atoms: C_2  and  C_3 
REMARK    2  A    between atoms: C_7  and  N_8 
REMARK    3  A    between atoms: C_13  and  N_14 
REMARK       I    between atoms: N_14  and  C_15 
REMARK    4  A    between atoms: C_15  and  C_16 
REMARK       I    between atoms: C_16  and  N_17 
REMARK    5  A    between atoms: N_17  and  C_18 
ROOT
HETATM    1  N   UNL     1      41.186  -9.780   5.825  1.00  0.00    -0.045 N 
HETATM    2  N   UNL     1      39.854  -9.571   5.979  1.00  0.00    -0.156 NA
HETATM    3  C   UNL     1      39.369  -9.638   4.734  1.00  0.00     0.055 A 
HETATM    4  C   UNL     1      37.919  -9.446   4.477  1.00  0.00     0.072 C 
HETATM    5  C   UNL     1      40.386  -9.904   3.779  1.00  0.00     0.079 A 
HETATM    6  C   UNL     1      41.554  -9.975   4.500  1.00  0.00     0.152 A 
ENDROOT
BRANCH   6   7
HETATM    7  N   UNL     1      42.858 -10.238   4.107  1.00  0.00    -0.303 N 
HETATM    8  C   UNL     1      43.440 -11.422   3.581  1.00  0.00     0.315 C 
HETATM    9  O   UNL     1      44.660 -11.460   3.539  1.00  0.00    -0.262 OA
HETATM   10  H   UNL     1      43.523  -9.468   4.229  1.00  0.00     0.171 HD
BRANCH   8  11
HETATM   11  C   UNL     1      42.620 -12.623   3.098  1.00  0.00     0.310 C 
HETATM   12  N   UNL     1      42.757 -13.747   3.898  1.00  0.00    -0.348 N 
HETATM   13  H   UNL     1      43.455 -13.695   4.631  1.00  0.00     0.163 HD
HETATM   14  O   UNL     1      41.968 -12.558   2.068  1.00  0.00    -0.262 OA
BRANCH  12  15
HETATM   15  C   UNL     1      42.305 -15.060   3.468  1.00  0.00     0.085 C 
HETATM   16  C   UNL     1      43.286 -16.182   3.841  1.00  0.00     0.034 C 
HETATM   17  C   UNL     1      43.268 -16.623   5.323  1.00  0.00    -0.045 C 
HETATM   18  C   UNL     1      44.000 -15.615   6.227  1.00  0.00     0.015 C 
HETATM   19  C   UNL     1      44.053 -17.952   5.437  1.00  0.00     0.015 C 
HETATM   20  C   UNL     1      41.819 -16.880   5.797  1.00  0.00     0.013 C 
HETATM   21  C   UNL     1      40.761 -15.832   5.414  1.00  0.00    -0.016 C 
HETATM   22  C   UNL     1      40.885 -15.365   3.955  1.00  0.00     0.029 C 
HETATM   23  C   UNL     1      40.648 -14.683   6.417  1.00  0.00     0.010 C 
ENDBRANCH  12  15
ENDBRANCH   8  11
ENDBRANCH   6   7
BRANCH   1  24
HETATM   24  C   UNL     1      42.050  -9.812   6.930  1.00  0.00     0.732 A 
HETATM   25  N   UNL     1      41.529  -9.190   8.021  1.00  0.00    -0.152 N 
HETATM   26  C   UNL     1      42.199  -9.170   9.203  1.00  0.00     0.268 A 
HETATM   27  H   UNL     1      40.602  -8.776   7.981  1.00  0.00     0.188 HD
HETATM   28  C   UNL     1      43.553  -9.798   9.184  1.00  0.00     0.035 A 
HETATM   29  O   UNL     1      41.713  -8.675  10.213  1.00  0.00    -0.267 OA
HETATM   30  C   UNL     1      43.966 -10.360   8.027  1.00  0.00     0.061 A 
HETATM   31  N   UNL     1      43.206 -10.396   6.875  1.00  0.00    -0.067 NA
HETATM   32  C   UNL     1      45.307 -11.037   7.871  1.00  0.00     0.072 C 
BRANCH  28  33
HETATM   33  C   UNL     1      44.342  -9.704  10.465  1.00  0.00     0.042 C 
HETATM   34  C   UNL     1      43.948 -10.790  11.456  1.00  0.00     0.010 C 
ENDBRANCH  28  33
ENDBRANCH   1  24
TORSDOF 5
ENDMDL
MODEL 10
REMARK VINA RESULT:      -7.7      3.284      5.268
REMARK  5 active torsions:
REMARK  status: ('A' for Active; 'I' for Inactive)
REMARK    1  A    between atoms: C_2  and  C_3 
REMARK    2  A    between atoms: C_7  and  N_8 
REMARK    3  A    between atoms: C_13  and  N_14 
REMARK       I    between atoms: N_14  and  C_15 
REMARK    4  A    between atoms: C_15  and  C_16 
REMARK       I    between atoms: C_16  and  N_17 
REMARK    5  A    between atoms: N_17  and  C_18 
ROOT
HETATM    1  N   UNL     1      40.083 -13.963  -0.964  1.00  0.00    -0.045 N 
HETATM    2  N   UNL     1      39.208 -14.781  -1.605  1.00  0.00    -0.156 NA
HETATM    3  C   UNL     1      39.003 -14.179  -2.781  1.00  0.00     0.055 A 
HETATM    4  C   UNL     1      38.079 -14.772  -3.781  1.00  0.00     0.072 C 
HETATM    5  C   UNL     1      39.754 -12.980  -2.905  1.00  0.00     0.079 A 
HETATM    6  C   UNL     1      40.431 -12.849  -1.717  1.00  0.00     0.152 A 
ENDROOT
BRANCH   6   7
HETATM    7  N   UNL     1      41.334 -11.892  -1.279  1.00  0.00    -0.303 N 
HETATM    8  C   UNL     1      41.156 -10.790  -0.400  1.00  0.00     0.315 C 
HETATM    9  O   UNL     1      42.056  -9.965  -0.367  1.00  0.00    -0.262 OA
HETATM   10  H   UNL     1      42.283 -11.969  -1.659  1.00  0.00     0.171 HD
BRANCH   8  11
HETATM   11  C   UNL     1      39.906 -10.595   0.466  1.00  0.00     0.310 C 
HETATM   12  N   UNL     1      40.055 -11.048   1.766  1.00  0.00    -0.348 N 
HETATM   13  H   UNL     1      40.910 -11.553   1.973  1.00  0.00     0.163 HD
HETATM   14  O   UNL     1      38.884 -10.130  -0.013  1.00  0.00    -0.262 OA
BRANCH  12  15
HETATM   15  C   UNL     1      38.920 -11.223   2.658  1.00  0.00     0.085 C 
HETATM   16  C   UNL     1      39.195 -12.229   3.786  1.00  0.00     0.034 C 
HETATM   17  C   UNL     1      40.072 -11.710   4.949  1.00  0.00    -0.045 C 
HETATM   18  C   UNL     1      41.561 -11.661   4.563  1.00  0.00     0.015 C 
HETATM   19  C   UNL     1      39.964 -12.719   6.117  1.00  0.00     0.015 C 
HETATM   20  C   UNL     1      39.558 -10.340   5.448  1.00  0.00     0.013 C 
HETATM   21  C   UNL     1      39.203  -9.293   4.380  1.00  0.00    -0.016 C 
HETATM   22  C   UNL     1      38.410  -9.886   3.205  1.00  0.00     0.029 C 
HETATM   23  C   UNL     1      40.394  -8.438   3.944  1.00  0.00     0.010 C 
ENDBRANCH  12  15
ENDBRANCH   8  11
ENDBRANCH   6   7
BRANCH   1  24
HETATM   24  C   UNL     1      40.570 -14.276   0.314  1.00  0.00     0.732 A 
HETATM   25  N   UNL     1      39.700 -15.032   1.035  1.00  0.00    -0.152 N 
HETATM   26  C   UNL     1      40.024 -15.480   2.276  1.00  0.00     0.268 A 
HETATM   27  H   UNL     1      38.813 -15.318   0.633  1.00  0.00     0.188 HD
HETATM   28  C   UNL     1      41.344 -15.021   2.800  1.00  0.00     0.035 A 
HETATM   29  O   UNL     1      39.281 -16.219   2.911  1.00  0.00    -0.267 OA
HETATM   30  C   UNL     1      42.105 -14.250   1.992  1.00  0.00     0.061 A 
HETATM   31  N   UNL     1      41.737 -13.879   0.714  1.00  0.00    -0.067 NA
HETATM   32  C   UNL     1      43.463 -13.724   2.391  1.00  0.00     0.072 C 
BRANCH  28  33
HETATM   33  C   UNL     1      41.677 -15.439   4.210  1.00  0.00     0.042 C 
HETATM   34  C   UNL     1      42.486 -16.727   4.245  1.00  0.00     0.010 C 
ENDBRANCH  28  33
ENDBRANCH   1  24
TORSDOF 5
ENDMDL
