MODEL 1
REMARK VINA RESULT:      -8.5      0.000      0.000
REMARK  4 active torsions:
REMARK  status: ('A' for Active; 'I' for Inactive)
REMARK    1  A    between atoms: S_2  and  C_3 
REMARK    2  A    between atoms: C_3  and  C_4 
REMARK       I    between atoms: C_4  and  N_5 
REMARK    3  A    between atoms: N_5  and  N_6 
REMARK       I    between atoms: N_6  and  C_7 
REMARK    4  A    between atoms: C_7  and  C_8 
ROOT
HETATM    1  C   UNL     1      43.385 -15.299   6.067  1.00  0.00     0.103 A 
HETATM    2  N   UNL     1      43.077 -14.954   4.770  1.00  0.00    -0.351 N 
HETATM    3  H   UNL     1      42.869 -14.008   4.476  1.00  0.00     0.166 HD
HETATM    4  C   UNL     1      43.128 -16.047   3.938  1.00  0.00     0.044 A 
HETATM    5  C   UNL     1      43.466 -17.148   4.723  1.00  0.00     0.004 A 
HETATM    6  C   UNL     1      43.612 -16.664   6.060  1.00  0.00     0.050 A 
HETATM    7  C   UNL     1      42.907 -16.135   2.561  1.00  0.00     0.031 A 
HETATM    8  C   UNL     1      43.044 -17.389   1.958  1.00  0.00     0.014 A 
HETATM    9  C   UNL     1      43.389 -18.528   2.698  1.00  0.00    -0.025 A 
HETATM   10  C   UNL     1      43.601 -18.423   4.095  1.00  0.00    -0.013 A 
HETATM   11  C   UNL     1      43.533 -19.783   2.083  1.00  0.00     0.012 A 
HETATM   12  C   UNL     1      43.881 -20.911   2.831  1.00  0.00     0.001 A 
HETATM   13  C   UNL     1      44.088 -20.805   4.204  1.00  0.00     0.001 A 
HETATM   14  C   UNL     1      43.949 -19.569   4.838  1.00  0.00     0.013 A 
ENDROOT
BRANCH   1  15
HETATM   15  C   UNL     1      43.448 -14.309   7.118  1.00  0.00     0.286 C 
HETATM   16  N   UNL     1      43.715 -13.021   6.703  1.00  0.00    -0.262 N 
HETATM   17  H   UNL     1      44.037 -12.800   5.765  1.00  0.00     0.190 HD
HETATM   18  O   UNL     1      43.271 -14.588   8.304  1.00  0.00    -0.264 OA
BRANCH  16  19
HETATM   19  N   UNL     1      43.823 -12.003   7.660  1.00  0.00    -0.267 N 
HETATM   20  C   UNL     1      44.978 -11.247   7.668  1.00  0.00     0.245 C 
HETATM   21  O   UNL     1      45.824 -11.327   6.776  1.00  0.00    -0.271 OA
HETATM   22  H   UNL     1      43.286 -12.124   8.521  1.00  0.00     0.190 HD
BRANCH  20  23
HETATM   23  C   UNL     1      45.077 -10.227   8.789  1.00  0.00     0.177 C 
BRANCH  23  24
HETATM   24  S   UNL     1      43.469  -9.835   9.553  1.00  0.00    -0.164 SA
HETATM   25  C   UNL     1      43.704 -10.650  11.152  1.00  0.00     0.090 C 
ENDBRANCH  23  24
ENDBRANCH  20  23
ENDBRANCH  16  19
ENDBRANCH   1  15
TORSDOF 4
ENDMDL
MODEL 2
REMARK VINA RESULT:      -8.5      5.001      6.839
REMARK  4 active torsions:
REMARK  status: ('A' for Active; 'I' for Inactive)
REMARK    1  A    between atoms: S_2  and  C_3 
REMARK    2  A    between atoms: C_3  and  C_4 
REMARK       I    between atoms: C_4  and  N_5 
REMARK    3  A    between atoms: N_5  and  N_6 
REMARK       I    between atoms: N_6  and  C_7 
REMARK    4  A    between atoms: C_7  and  C_8 
ROOT
HETATM    1  C   UNL     1      42.504 -14.869   2.177  1.00  0.00     0.103 A 
HETATM    2  N   UNL     1      42.922 -14.777   3.486  1.00  0.00    -0.351 N 
HETATM    3  H   UNL     1      42.919 -13.914   4.015  1.00  0.00     0.166 HD
HETATM    4  C   UNL     1      43.304 -16.004   3.975  1.00  0.00     0.044 A 
HETATM    5  C   UNL     1      43.142 -16.928   2.944  1.00  0.00     0.004 A 
HETATM    6  C   UNL     1      42.651 -16.198   1.817  1.00  0.00     0.050 A 
HETATM    7  C   UNL     1      43.767 -16.355   5.246  1.00  0.00     0.031 A 
HETATM    8  C   UNL     1      44.071 -17.701   5.479  1.00  0.00     0.014 A 
HETATM    9  C   UNL     1      43.921 -18.673   4.481  1.00  0.00    -0.025 A 
HETATM   10  C   UNL     1      43.457 -18.297   3.196  1.00  0.00    -0.013 A 
HETATM   11  C   UNL     1      44.218 -20.024   4.725  1.00  0.00     0.012 A 
HETATM   12  C   UNL     1      44.061 -20.985   3.723  1.00  0.00     0.001 A 
HETATM   13  C   UNL     1      43.606 -20.612   2.460  1.00  0.00     0.001 A 
HETATM   14  C   UNL     1      43.304 -19.276   2.193  1.00  0.00     0.013 A 
ENDROOT
BRANCH   1  15
HETATM   15  C   UNL     1      42.005 -13.718   1.460  1.00  0.00     0.286 C 
HETATM   16  N   UNL     1      41.423 -13.987   0.239  1.00  0.00    -0.262 N 
HETATM   17  H   UNL     1      41.506 -14.889  -0.224  1.00  0.00     0.190 HD
HETATM   18  O   UNL     1      42.085 -12.573   1.905  1.00  0.00    -0.264 OA
BRANCH  16  19
HETATM   19  N   UNL     1      40.940 -12.926  -0.537  1.00  0.00    -0.267 N 
HETATM   20  C   UNL     1      39.957 -13.202  -1.466  1.00  0.00     0.245 C 
HETATM   21  O   UNL     1      39.388 -14.293  -1.518  1.00  0.00    -0.271 OA
HETATM   22  H   UNL     1      41.575 -12.139  -0.684  1.00  0.00     0.190 HD
BRANCH  20  23
HETATM   23  C   UNL     1      39.546 -12.031  -2.342  1.00  0.00     0.177 C 
BRANCH  23  24
HETATM   24  S   UNL     1      37.762 -11.666  -2.271  1.00  0.00    -0.164 SA
HETATM   25  C   UNL     1      37.597 -11.379  -0.492  1.00  0.00     0.090 C 
ENDBRANCH  23  24
ENDBRANCH  20  23
ENDBRANCH  16  19
ENDBRANCH   1  15
TORSDOF 4
ENDMDL
MODEL 3
REMARK VINA RESULT:      -7.6      4.172      5.245
REMARK  4 active torsions:
REMARK  status: ('A' for Active; 'I' for Inactive)
REMARK    1  A    between atoms: S_2  and  C_3 
REMARK    2  A    between atoms: C_3  and  C_4 
REMARK       I    between atoms: C_4  and  N_5 
REMARK    3  A    between atoms: N_5  and  N_6 
REMARK       I    between atoms: N_6  and  C_7 
REMARK    4  A    between atoms: C_7  and  C_8 
ROOT
HETATM    1  C   UNL     1      42.590 -14.649   2.446  1.00  0.00     0.103 A 
HETATM    2  N   UNL     1      43.021 -14.672   3.753  1.00  0.00    -0.351 N 
HETATM    3  H   UNL     1      43.054 -13.854   4.347  1.00  0.00     0.166 HD
HETATM    4  C   UNL     1      43.360 -15.947   4.142  1.00  0.00     0.044 A 
HETATM    5  C   UNL     1      43.156 -16.782   3.046  1.00  0.00     0.004 A 
HETATM    6  C   UNL     1      42.685 -15.950   1.983  1.00  0.00     0.050 A 
HETATM    7  C   UNL     1      43.820 -16.412   5.378  1.00  0.00     0.031 A 
HETATM    8  C   UNL     1      44.074 -17.782   5.504  1.00  0.00     0.014 A 
HETATM    9  C   UNL     1      43.881 -18.668   4.435  1.00  0.00    -0.025 A 
HETATM   10  C   UNL     1      43.422 -18.177   3.188  1.00  0.00    -0.013 A 
HETATM   11  C   UNL     1      44.130 -20.043   4.572  1.00  0.00     0.012 A 
HETATM   12  C   UNL     1      43.929 -20.918   3.501  1.00  0.00     0.001 A 
HETATM   13  C   UNL     1      43.479 -20.433   2.276  1.00  0.00     0.001 A 
HETATM   14  C   UNL     1      43.226 -19.070   2.115  1.00  0.00     0.013 A 
ENDROOT
BRANCH   1  15
HETATM   15  C   UNL     1      42.129 -13.428   1.824  1.00  0.00     0.286 C 
HETATM   16  N   UNL     1      42.484 -12.263   2.470  1.00  0.00    -0.262 N 
HETATM   17  H   UNL     1      42.868 -12.251   3.411  1.00  0.00     0.190 HD
HETATM   18  O   UNL     1      41.470 -13.421   0.784  1.00  0.00    -0.264 OA
BRANCH  16  19
HETATM   19  N   UNL     1      42.054 -11.035   1.952  1.00  0.00    -0.267 N 
HETATM   20  C   UNL     1      41.038 -10.376   2.615  1.00  0.00     0.245 C 
HETATM   21  O   UNL     1      40.622 -10.744   3.714  1.00  0.00    -0.271 OA
HETATM   22  H   UNL     1      42.189 -10.888   0.949  1.00  0.00     0.190 HD
BRANCH  20  23
HETATM   23  C   UNL     1      40.550  -9.101   1.949  1.00  0.00     0.177 C 
BRANCH  23  24
HETATM   24  S   UNL     1      38.774  -9.133   1.541  1.00  0.00    -0.164 SA
HETATM   25  C   UNL     1      38.769 -10.525   0.383  1.00  0.00     0.090 C 
ENDBRANCH  23  24
ENDBRANCH  20  23
ENDBRANCH  16  19
ENDBRANCH   1  15
TORSDOF 4
ENDMDL
MODEL 4
REMARK VINA RESULT:      -7.6      3.157      3.488
REMARK  4 active torsions:
REMARK  status: ('A' for Active; 'I' for Inactive)
REMARK    1  A    between atoms: S_2  and  C_3 
REMARK    2  A    between atoms: C_3  and  C_4 
REMARK       I    between atoms: C_4  and  N_5 
REMARK    3  A    between atoms: N_5  and  N_6 
REMARK       I    between atoms: N_6  and  C_7 
REMARK    4  A    between atoms: C_7  and  C_8 
ROOT
HETATM    1  C   UNL     1      42.706 -13.877   5.159  1.00  0.00     0.103 A 
HETATM    2  N   UNL     1      42.677 -13.980   3.787  1.00  0.00    -0.351 N 
HETATM    3  H   UNL     1      42.507 -13.196   3.169  1.00  0.00     0.166 HD
HETATM    4  C   UNL     1      42.941 -15.266   3.378  1.00  0.00     0.044 A 
HETATM    5  C   UNL     1      43.136 -16.033   4.526  1.00  0.00     0.004 A 
HETATM    6  C   UNL     1      42.972 -15.148   5.637  1.00  0.00     0.050 A 
HETATM    7  C   UNL     1      43.028 -15.795   2.087  1.00  0.00     0.031 A 
HETATM    8  C   UNL     1      43.333 -17.154   1.960  1.00  0.00     0.014 A 
HETATM    9  C   UNL     1      43.545 -17.970   3.079  1.00  0.00    -0.025 A 
HETATM   10  C   UNL     1      43.445 -17.418   4.381  1.00  0.00    -0.013 A 
HETATM   11  C   UNL     1      43.859 -19.331   2.943  1.00  0.00     0.012 A 
HETATM   12  C   UNL     1      44.073 -20.134   4.067  1.00  0.00     0.001 A 
HETATM   13  C   UNL     1      43.973 -19.590   5.345  1.00  0.00     0.001 A 
HETATM   14  C   UNL     1      43.660 -18.239   5.507  1.00  0.00     0.013 A 
ENDROOT
BRANCH   1  15
HETATM   15  C   UNL     1      42.508 -12.610   5.826  1.00  0.00     0.286 C 
HETATM   16  N   UNL     1      41.217 -12.353   6.240  1.00  0.00    -0.262 N 
HETATM   17  H   UNL     1      40.421 -12.907   5.935  1.00  0.00     0.190 HD
HETATM   18  O   UNL     1      43.425 -11.812   6.022  1.00  0.00    -0.264 OA
BRANCH  16  19
HETATM   19  N   UNL     1      40.931 -11.135   6.869  1.00  0.00    -0.267 N 
HETATM   20  C   UNL     1      39.608 -10.751   6.957  1.00  0.00     0.245 C 
HETATM   21  O   UNL     1      38.682 -11.505   6.656  1.00  0.00    -0.271 OA
HETATM   22  H   UNL     1      41.668 -10.427   6.855  1.00  0.00     0.190 HD
BRANCH  20  23
HETATM   23  C   UNL     1      39.371  -9.377   7.560  1.00  0.00     0.177 C 
BRANCH  23  24
HETATM   24  S   UNL     1      39.724  -8.011   6.406  1.00  0.00    -0.164 SA
HETATM   25  C   UNL     1      38.422  -8.320   5.188  1.00  0.00     0.090 C 
ENDBRANCH  23  24
ENDBRANCH  20  23
ENDBRANCH  16  19
ENDBRANCH   1  15
TORSDOF 4
ENDMDL
MODEL 5
REMARK VINA RESULT:      -7.6      4.749      6.293
REMARK  4 active torsions:
REMARK  status: ('A' for Active; 'I' for Inactive)
REMARK    1  A    between atoms: S_2  and  C_3 
REMARK    2  A    between atoms: C_3  and  C_4 
REMARK       I    between atoms: C_4  and  N_5 
REMARK    3  A    between atoms: N_5  and  N_6 
REMARK       I    between atoms: N_6  and  C_7 
REMARK    4  A    between atoms: C_7  and  C_8 
ROOT
HETATM    1  C   UNL     1      41.654 -14.879   2.181  1.00  0.00     0.103 A 
HETATM    2  N   UNL     1      42.218 -14.689   3.422  1.00  0.00    -0.351 N 
HETATM    3  H   UNL     1      42.171 -13.816   3.931  1.00  0.00     0.166 HD
HETATM    4  C   UNL     1      42.811 -15.842   3.881  1.00  0.00     0.044 A 
HETATM    5  C   UNL     1      42.640 -16.815   2.898  1.00  0.00     0.004 A 
HETATM    6  C   UNL     1      41.922 -16.191   1.830  1.00  0.00     0.050 A 
HETATM    7  C   UNL     1      43.471 -16.089   5.088  1.00  0.00     0.031 A 
HETATM    8  C   UNL     1      43.970 -17.377   5.306  1.00  0.00     0.014 A 
HETATM    9  C   UNL     1      43.821 -18.395   4.354  1.00  0.00    -0.025 A 
HETATM   10  C   UNL     1      43.156 -18.125   3.133  1.00  0.00    -0.013 A 
HETATM   11  C   UNL     1      44.317 -19.689   4.584  1.00  0.00     0.012 A 
HETATM   12  C   UNL     1      44.159 -20.697   3.629  1.00  0.00     0.001 A 
HETATM   13  C   UNL     1      43.505 -20.428   2.428  1.00  0.00     0.001 A 
HETATM   14  C   UNL     1      43.005 -19.150   2.177  1.00  0.00     0.013 A 
ENDROOT
BRANCH   1  15
HETATM   15  C   UNL     1      40.926 -13.825   1.512  1.00  0.00     0.286 C 
HETATM   16  N   UNL     1      41.634 -13.135   0.549  1.00  0.00    -0.262 N 
HETATM   17  H   UNL     1      42.641 -13.216   0.443  1.00  0.00     0.190 HD
HETATM   18  O   UNL     1      39.753 -13.559   1.774  1.00  0.00    -0.264 OA
BRANCH  16  19
HETATM   19  N   UNL     1      41.013 -12.077  -0.128  1.00  0.00    -0.267 N 
HETATM   20  C   UNL     1      41.230 -10.797   0.341  1.00  0.00     0.245 C 
HETATM   21  O   UNL     1      42.064 -10.548   1.213  1.00  0.00    -0.271 OA
HETATM   22  H   UNL     1      40.152 -12.297  -0.632  1.00  0.00     0.190 HD
BRANCH  20  23
HETATM   23  C   UNL     1      40.453  -9.705  -0.373  1.00  0.00     0.177 C 
BRANCH  23  24
HETATM   24  S   UNL     1      40.853  -9.575  -2.146  1.00  0.00    -0.164 SA
HETATM   25  C   UNL     1      39.344 -10.297  -2.836  1.00  0.00     0.090 C 
ENDBRANCH  23  24
ENDBRANCH  20  23
ENDBRANCH  16  19
ENDBRANCH   1  15
TORSDOF 4
ENDMDL
MODEL 6
REMARK VINA RESULT:      -7.4      5.461      7.031
REMARK  4 active torsions:
REMARK  status: ('A' for Active; 'I' for Inactive)
REMARK    1  A    between atoms: S_2  and  C_3 
REMARK    2  A    between atoms: C_3  and  C_4 
REMARK       I    between atoms: C_4  and  N_5 
REMARK    3  A    between atoms: N_5  and  N_6 
REMARK       I    between atoms: N_6  and  C_7 
REMARK    4  A    between atoms: C_7  and  C_8 
ROOT
HETATM    1  C   UNL     1      40.800 -14.420   2.658  1.00  0.00     0.103 A 
HETATM    2  N   UNL     1      41.507 -14.240   3.826  1.00  0.00    -0.351 N 
HETATM    3  H   UNL     1      41.431 -13.413   4.404  1.00  0.00     0.166 HD
HETATM    4  C   UNL     1      42.287 -15.335   4.109  1.00  0.00     0.044 A 
HETATM    5  C   UNL     1      42.094 -16.258   3.082  1.00  0.00     0.004 A 
HETATM    6  C   UNL     1      41.166 -15.663   2.172  1.00  0.00     0.050 A 
HETATM    7  C   UNL     1      43.135 -15.573   5.195  1.00  0.00     0.031 A 
HETATM    8  C   UNL     1      43.806 -16.800   5.241  1.00  0.00     0.014 A 
HETATM    9  C   UNL     1      43.643 -17.766   4.239  1.00  0.00    -0.025 A 
HETATM   10  C   UNL     1      42.785 -17.505   3.142  1.00  0.00    -0.013 A 
HETATM   11  C   UNL     1      44.312 -18.999   4.297  1.00  0.00     0.012 A 
HETATM   12  C   UNL     1      44.139 -19.957   3.295  1.00  0.00     0.001 A 
HETATM   13  C   UNL     1      43.296 -19.697   2.216  1.00  0.00     0.001 A 
HETATM   14  C   UNL     1      42.621 -18.478   2.135  1.00  0.00     0.013 A 
ENDROOT
BRANCH   1  15
HETATM   15  C   UNL     1      39.868 -13.425   2.177  1.00  0.00     0.286 C 
HETATM   16  N   UNL     1      39.455 -13.582   0.871  1.00  0.00    -0.262 N 
HETATM   17  H   UNL     1      39.906 -14.223   0.224  1.00  0.00     0.190 HD
HETATM   18  O   UNL     1      39.462 -12.500   2.882  1.00  0.00    -0.264 OA
BRANCH  16  19
HETATM   19  N   UNL     1      38.574 -12.645   0.315  1.00  0.00    -0.267 N 
HETATM   20  C   UNL     1      39.112 -11.640  -0.465  1.00  0.00     0.245 C 
HETATM   21  O   UNL     1      40.292 -11.639  -0.815  1.00  0.00    -0.271 OA
HETATM   22  H   UNL     1      37.695 -12.491   0.812  1.00  0.00     0.190 HD
BRANCH  20  23
HETATM   23  C   UNL     1      38.119 -10.601  -0.956  1.00  0.00     0.177 C 
BRANCH  23  24
HETATM   24  S   UNL     1      37.641 -10.825  -2.701  1.00  0.00    -0.164 SA
HETATM   25  C   UNL     1      35.902 -10.337  -2.587  1.00  0.00     0.090 C 
ENDBRANCH  23  24
ENDBRANCH  20  23
ENDBRANCH  16  19
ENDBRANCH   1  15
TORSDOF 4
ENDMDL
MODEL 7
REMARK VINA RESULT:      -7.4      1.908      3.327
REMARK  4 active torsions:
REMARK  status: ('A' for Active; 'I' for Inactive)
REMARK    1  A    between atoms: S_2  and  C_3 
REMARK    2  A    between atoms: C_3  and  C_4 
REMARK       I    between atoms: C_4  and  N_5 
REMARK    3  A    between atoms: N_5  and  N_6 
REMARK       I    between atoms: N_6  and  C_7 
REMARK    4  A    between atoms: C_7  and  C_8 
ROOT
HETATM    1  C   UNL     1      43.316 -12.949   6.363  1.00  0.00     0.103 A 
HETATM    2  N   UNL     1      43.728 -14.027   7.113  1.00  0.00    -0.351 N 
HETATM    3  H   UNL     1      43.953 -13.971   8.099  1.00  0.00     0.166 HD
HETATM    4  C   UNL     1      43.757 -15.177   6.360  1.00  0.00     0.044 A 
HETATM    5  C   UNL     1      43.363 -14.834   5.068  1.00  0.00     0.004 A 
HETATM    6  C   UNL     1      43.101 -13.429   5.082  1.00  0.00     0.050 A 
HETATM    7  C   UNL     1      44.094 -16.482   6.731  1.00  0.00     0.031 A 
HETATM    8  C   UNL     1      44.019 -17.477   5.752  1.00  0.00     0.014 A 
HETATM    9  C   UNL     1      43.623 -17.190   4.438  1.00  0.00    -0.025 A 
HETATM   10  C   UNL     1      43.293 -15.860   4.078  1.00  0.00    -0.013 A 
HETATM   11  C   UNL     1      43.541 -18.197   3.463  1.00  0.00     0.012 A 
HETATM   12  C   UNL     1      43.140 -17.899   2.158  1.00  0.00     0.001 A 
HETATM   13  C   UNL     1      42.818 -16.590   1.805  1.00  0.00     0.001 A 
HETATM   14  C   UNL     1      42.893 -15.572   2.757  1.00  0.00     0.013 A 
ENDROOT
BRANCH   1  15
HETATM   15  C   UNL     1      43.156 -11.637   6.948  1.00  0.00     0.286 C 
HETATM   16  N   UNL     1      43.541 -11.527   8.268  1.00  0.00    -0.262 N 
HETATM   17  H   UNL     1      43.737 -12.334   8.854  1.00  0.00     0.190 HD
HETATM   18  O   UNL     1      42.713 -10.678   6.316  1.00  0.00    -0.264 OA
BRANCH  16  19
HETATM   19  N   UNL     1      43.391 -10.297   8.922  1.00  0.00    -0.267 N 
HETATM   20  C   UNL     1      43.573 -10.269  10.290  1.00  0.00     0.245 C 
HETATM   21  O   UNL     1      44.015 -11.233  10.916  1.00  0.00    -0.271 OA
HETATM   22  H   UNL     1      42.781  -9.610   8.474  1.00  0.00     0.190 HD
BRANCH  20  23
HETATM   23  C   UNL     1      43.301  -8.929  10.952  1.00  0.00     0.177 C 
BRANCH  23  24
HETATM   24  S   UNL     1      42.449  -7.743   9.861  1.00  0.00    -0.164 SA
HETATM   25  C   UNL     1      41.177  -7.159  11.009  1.00  0.00     0.090 C 
ENDBRANCH  23  24
ENDBRANCH  20  23
ENDBRANCH  16  19
ENDBRANCH   1  15
TORSDOF 4
ENDMDL
MODEL 8
REMARK VINA RESULT:      -7.3      5.595      7.484
REMARK  4 active torsions:
REMARK  status: ('A' for Active; 'I' for Inactive)
REMARK    1  A    between atoms: S_2  and  C_3 
REMARK    2  A    between atoms: C_3  and  C_4 
REMARK       I    between atoms: C_4  and  N_5 
REMARK    3  A    between atoms: N_5  and  N_6 
REMARK       I    between atoms: N_6  and  C_7 
REMARK    4  A    between atoms: C_7  and  C_8 
ROOT
HETATM    1  C   UNL     1      41.913 -14.050   1.730  1.00  0.00     0.103 A 
HETATM    2  N   UNL     1      42.433 -15.199   1.179  1.00  0.00    -0.351 N 
HETATM    3  H   UNL     1      42.553 -15.339   0.183  1.00  0.00     0.166 HD
HETATM    4  C   UNL     1      42.792 -16.101   2.153  1.00  0.00     0.044 A 
HETATM    5  C   UNL     1      42.483 -15.525   3.384  1.00  0.00     0.004 A 
HETATM    6  C   UNL     1      41.920 -14.241   3.101  1.00  0.00     0.050 A 
HETATM    7  C   UNL     1      43.370 -17.367   2.030  1.00  0.00     0.031 A 
HETATM    8  C   UNL     1      43.651 -18.071   3.205  1.00  0.00     0.014 A 
HETATM    9  C   UNL     1      43.367 -17.537   4.470  1.00  0.00    -0.025 A 
HETATM   10  C   UNL     1      42.774 -16.255   4.575  1.00  0.00    -0.013 A 
HETATM   11  C   UNL     1      43.661 -18.247   5.646  1.00  0.00     0.012 A 
HETATM   12  C   UNL     1      43.377 -17.702   6.901  1.00  0.00     0.001 A 
HETATM   13  C   UNL     1      42.792 -16.441   7.001  1.00  0.00     0.001 A 
HETATM   14  C   UNL     1      42.490 -15.718   5.847  1.00  0.00     0.013 A 
ENDROOT
BRANCH   1  15
HETATM   15  C   UNL     1      41.510 -12.932   0.907  1.00  0.00     0.286 C 
HETATM   16  N   UNL     1      41.131 -13.250  -0.380  1.00  0.00    -0.262 N 
HETATM   17  H   UNL     1      41.302 -14.162  -0.795  1.00  0.00     0.190 HD
HETATM   18  O   UNL     1      41.497 -11.773   1.323  1.00  0.00    -0.264 OA
BRANCH  16  19
HETATM   19  N   UNL     1      40.754 -12.223  -1.255  1.00  0.00    -0.267 N 
HETATM   20  C   UNL     1      40.751 -12.497  -2.608  1.00  0.00     0.245 C 
HETATM   21  O   UNL     1      40.906 -13.636  -3.049  1.00  0.00    -0.271 OA
HETATM   22  H   UNL     1      40.900 -11.266  -0.928  1.00  0.00     0.190 HD
BRANCH  20  23
HETATM   23  C   UNL     1      40.430 -11.316  -3.507  1.00  0.00     0.177 C 
BRANCH  23  24
HETATM   24  S   UNL     1      38.890 -10.456  -3.048  1.00  0.00    -0.164 SA
HETATM   25  C   UNL     1      39.571  -8.814  -2.703  1.00  0.00     0.090 C 
ENDBRANCH  23  24
ENDBRANCH  20  23
ENDBRANCH  16  19
ENDBRANCH   1  15
TORSDOF 4
ENDMDL
MODEL 9
REMARK VINA RESULT:      -7.0     15.467     16.720
REMARK  4 active torsions:
REMARK  status: ('A' for Active; 'I' for Inactive)
REMARK    1  A    between atoms: S_2  and  C_3 
REMARK    2  A    between atoms: C_3  and  C_4 
REMARK       I    between atoms: C_4  and  N_5 
REMARK    3  A    between atoms: N_5  and  N_6 
REMARK       I    between atoms: N_6  and  C_7 
REMARK    4  A    between atoms: C_7  and  C_8 
ROOT
HETATM    1  C   UNL     1      42.465 -30.240   1.956  1.00  0.00     0.103 A 
HETATM    2  N   UNL     1      43.457 -30.010   2.882  1.00  0.00    -0.351 N 
HETATM    3  H   UNL     1      43.367 -30.230   3.866  1.00  0.00     0.166 HD
HETATM    4  C   UNL     1      44.580 -29.483   2.289  1.00  0.00     0.044 A 
HETATM    5  C   UNL     1      44.306 -29.351   0.929  1.00  0.00     0.004 A 
HETATM    6  C   UNL     1      42.969 -29.819   0.737  1.00  0.00     0.050 A 
HETATM    7  C   UNL     1      45.807 -29.126   2.856  1.00  0.00     0.031 A 
HETATM    8  C   UNL     1      46.796 -28.623   2.004  1.00  0.00     0.014 A 
HETATM    9  C   UNL     1      46.577 -28.475   0.628  1.00  0.00    -0.025 A 
HETATM   10  C   UNL     1      45.324 -28.835   0.072  1.00  0.00    -0.013 A 
HETATM   11  C   UNL     1      47.578 -27.978  -0.223  1.00  0.00     0.012 A 
HETATM   12  C   UNL     1      47.349 -27.839  -1.594  1.00  0.00     0.001 A 
HETATM   13  C   UNL     1      46.116 -28.192  -2.138  1.00  0.00     0.001 A 
HETATM   14  C   UNL     1      45.105 -28.688  -1.313  1.00  0.00     0.013 A 
ENDROOT
BRANCH   1  15
HETATM   15  C   UNL     1      41.205 -30.840   2.330  1.00  0.00     0.286 C 
HETATM   16  N   UNL     1      40.994 -30.976   3.686  1.00  0.00    -0.262 N 
HETATM   17  H   UNL     1      41.733 -30.853   4.374  1.00  0.00     0.190 HD
HETATM   18  O   UNL     1      40.369 -31.200   1.501  1.00  0.00    -0.264 OA
BRANCH  16  19
HETATM   19  N   UNL     1      39.810 -31.576   4.137  1.00  0.00    -0.267 N 
HETATM   20  C   UNL     1      39.875 -32.356   5.274  1.00  0.00     0.245 C 
HETATM   21  O   UNL     1      40.882 -32.406   5.981  1.00  0.00    -0.271 OA
HETATM   22  H   UNL     1      39.092 -31.757   3.433  1.00  0.00     0.190 HD
BRANCH  20  23
HETATM   23  C   UNL     1      38.582 -33.057   5.653  1.00  0.00     0.177 C 
BRANCH  23  24
HETATM   24  S   UNL     1      38.026 -34.269   4.412  1.00  0.00    -0.164 SA
HETATM   25  C   UNL     1      36.529 -33.427   3.838  1.00  0.00     0.090 C 
ENDBRANCH  23  24
ENDBRANCH  20  23
ENDBRANCH  16  19
ENDBRANCH   1  15
TORSDOF 4
ENDMDL
MODEL 10
REMARK VINA RESULT:      -6.7      9.371     12.020
REMARK  4 active torsions:
REMARK  status: ('A' for Active; 'I' for Inactive)
REMARK    1  A    between atoms: S_2  and  C_3 
REMARK    2  A    between atoms: C_3  and  C_4 
REMARK       I    between atoms: C_4  and  N_5 
REMARK    3  A    between atoms: N_5  and  N_6 
REMARK       I    between atoms: N_6  and  C_7 
REMARK    4  A    between atoms: C_7  and  C_8 
ROOT
HETATM    1  C   UNL     1      42.297  -7.493  14.070  1.00  0.00     0.103 A 
HETATM    2  N   UNL     1      41.923  -6.524  13.167  1.00  0.00    -0.351 N 
HETATM    3  H   UNL     1      41.365  -5.715  13.412  1.00  0.00     0.166 HD
HETATM    4  C   UNL     1      42.434  -6.783  11.918  1.00  0.00     0.044 A 
HETATM    5  C   UNL     1      43.156  -7.972  12.005  1.00  0.00     0.004 A 
HETATM    6  C   UNL     1      43.050  -8.413  13.361  1.00  0.00     0.050 A 
HETATM    7  C   UNL     1      42.315  -6.052  10.733  1.00  0.00     0.031 A 
HETATM    8  C   UNL     1      42.961  -6.545   9.595  1.00  0.00     0.014 A 
HETATM    9  C   UNL     1      43.706  -7.733   9.627  1.00  0.00    -0.025 A 
HETATM   10  C   UNL     1      43.809  -8.465  10.836  1.00  0.00    -0.013 A 
HETATM   11  C   UNL     1      44.360  -8.217   8.483  1.00  0.00     0.012 A 
HETATM   12  C   UNL     1      45.102  -9.399   8.529  1.00  0.00     0.001 A 
HETATM   13  C   UNL     1      45.202 -10.119   9.718  1.00  0.00     0.001 A 
HETATM   14  C   UNL     1      44.559  -9.658  10.868  1.00  0.00     0.013 A 
ENDROOT
BRANCH   1  15
HETATM   15  C   UNL     1      41.924  -7.412  15.464  1.00  0.00     0.286 C 
HETATM   16  N   UNL     1      42.654  -6.521  16.222  1.00  0.00    -0.262 N 
HETATM   17  H   UNL     1      43.516  -6.094  15.892  1.00  0.00     0.190 HD
HETATM   18  O   UNL     1      41.012  -8.084  15.947  1.00  0.00    -0.264 OA
BRANCH  16  19
HETATM   19  N   UNL     1      42.378  -6.401  17.591  1.00  0.00    -0.267 N 
HETATM   20  C   UNL     1      41.766  -5.243  18.025  1.00  0.00     0.245 C 
HETATM   21  O   UNL     1      41.316  -4.403  17.245  1.00  0.00    -0.271 OA
HETATM   22  H   UNL     1      42.975  -6.933  18.227  1.00  0.00     0.190 HD
BRANCH  20  23
HETATM   23  C   UNL     1      41.584  -5.132  19.529  1.00  0.00     0.177 C 
BRANCH  23  24
HETATM   24  S   UNL     1      40.705  -6.552  20.258  1.00  0.00    -0.164 SA
HETATM   25  C   UNL     1      42.078  -7.306  21.165  1.00  0.00     0.090 C 
ENDBRANCH  23  24
ENDBRANCH  20  23
ENDBRANCH  16  19
ENDBRANCH   1  15
TORSDOF 4
ENDMDL
