MODEL 1
REMARK VINA RESULT:      -8.4      0.000      0.000
REMARK  6 active torsions:
REMARK  status: ('A' for Active; 'I' for Inactive)
REMARK    1  A    between atoms: C_3  and  C_4 
REMARK    2  A    between atoms: C_9  and  C_10 
REMARK    3  A    between atoms: C_10  and  O_11 
REMARK    4  A    between atoms: C_10  and  C_12 
REMARK    5  A    between atoms: C_12  and  N_13 
REMARK    6  A    between atoms: C_17  and  C_18 
ROOT
HETATM    1  C   UNL     1      40.517 -15.459   2.759  1.00  0.00     0.271 C 
ENDROOT
BRANCH   1   2
HETATM    2  C   UNL     1      42.042 -15.455   2.464  1.00  0.00     0.177 C 
BRANCH   2   3
HETATM    3  C   UNL     1      42.818 -16.597   3.098  1.00  0.00    -0.027 A 
HETATM    4  C   UNL     1      42.790 -17.883   2.526  1.00  0.00     0.025 A 
HETATM    5  C   UNL     1      43.539 -18.947   3.065  1.00  0.00     0.048 A 
HETATM    6  C   UNL     1      44.293 -18.728   4.221  1.00  0.00     0.016 A 
HETATM    7  C   UNL     1      44.295 -17.475   4.829  1.00  0.00     0.001 A 
HETATM    8  C   UNL     1      43.565 -16.420   4.274  1.00  0.00     0.010 A 
BRANCH   5   9
HETATM    9  C   UNL     1      43.540 -20.290   2.369  1.00  0.00     0.417 C 
HETATM   10  F   UNL     1      44.490 -20.413   1.406  1.00  0.00    -0.166 F 
HETATM   11  F   UNL     1      43.729 -21.320   3.237  1.00  0.00    -0.166 F 
HETATM   12  F   UNL     1      42.345 -20.530   1.759  1.00  0.00    -0.166 F 
ENDBRANCH   5   9
ENDBRANCH   2   3
BRANCH   2  13
HETATM   13  O   UNL     1      42.158 -15.459   1.032  1.00  0.00    -0.389 OA
HETATM   14  H   UNL     1      41.810 -14.598   0.724  1.00  0.00     0.210 HD
ENDBRANCH   2  13
ENDBRANCH   1   2
BRANCH   1  15
HETATM   15  N   UNL     1      40.100 -14.274   3.648  1.00  0.00    -0.068 N 
HETATM   16  H   UNL     1      39.070 -14.371   3.707  1.00  0.00     0.280 HD
HETATM   17  C   UNL     1      40.636 -14.373   5.054  1.00  0.00     0.235 C 
HETATM   18  C   UNL     1      40.230 -13.157   5.875  1.00  0.00     0.037 C 
HETATM   19  C   UNL     1      40.701 -11.847   5.230  1.00  0.00     0.025 C 
HETATM   20  C   UNL     1      40.076 -11.777   3.830  1.00  0.00     0.037 C 
HETATM   21  C   UNL     1      40.445 -12.975   2.966  1.00  0.00     0.235 C 
BRANCH  19  22
HETATM   22  C   UNL     1      42.202 -11.697   5.241  1.00  0.00    -0.018 A 
HETATM   23  C   UNL     1      43.055 -11.224   4.212  1.00  0.00     0.147 A 
HETATM   24  N   UNL     1      44.343 -11.270   4.545  1.00  0.00    -0.187 NA
HETATM   25  N   UNL     1      44.334 -11.660   5.826  1.00  0.00    -0.289 N 
HETATM   26  H   UNL     1      45.218 -11.715   6.323  1.00  0.00     0.188 HD
HETATM   27  C   UNL     1      43.077 -11.944   6.283  1.00  0.00     0.118 A 
ENDBRANCH  19  22
ENDBRANCH   1  15
TORSDOF 6
ENDMDL
MODEL 2
REMARK VINA RESULT:      -7.8      2.869      4.700
REMARK  6 active torsions:
REMARK  status: ('A' for Active; 'I' for Inactive)
REMARK    1  A    between atoms: C_3  and  C_4 
REMARK    2  A    between atoms: C_9  and  C_10 
REMARK    3  A    between atoms: C_10  and  O_11 
REMARK    4  A    between atoms: C_10  and  C_12 
REMARK    5  A    between atoms: C_12  and  N_13 
REMARK    6  A    between atoms: C_17  and  C_18 
ROOT
HETATM    1  C   UNL     1      40.985 -14.365   3.009  1.00  0.00     0.271 C 
ENDROOT
BRANCH   1   2
HETATM    2  C   UNL     1      41.449 -15.550   2.117  1.00  0.00     0.177 C 
BRANCH   2   3
HETATM    3  C   UNL     1      42.374 -16.541   2.803  1.00  0.00    -0.027 A 
HETATM    4  C   UNL     1      42.460 -17.870   2.346  1.00  0.00     0.025 A 
HETATM    5  C   UNL     1      43.345 -18.796   2.931  1.00  0.00     0.048 A 
HETATM    6  C   UNL     1      44.123 -18.394   4.021  1.00  0.00     0.016 A 
HETATM    7  C   UNL     1      44.016 -17.098   4.517  1.00  0.00     0.001 A 
HETATM    8  C   UNL     1      43.150 -16.180   3.916  1.00  0.00     0.010 A 
BRANCH   5   9
HETATM    9  C   UNL     1      43.461 -20.190   2.355  1.00  0.00     0.417 C 
HETATM   10  F   UNL     1      42.352 -20.608   1.691  1.00  0.00    -0.166 F 
HETATM   11  F   UNL     1      44.502 -20.304   1.487  1.00  0.00    -0.166 F 
HETATM   12  F   UNL     1      43.690 -21.110   3.334  1.00  0.00    -0.166 F 
ENDBRANCH   5   9
ENDBRANCH   2   3
BRANCH   2  13
HETATM   13  O   UNL     1      40.243 -16.177   1.651  1.00  0.00    -0.389 OA
HETATM   14  H   UNL     1      39.697 -16.351   2.444  1.00  0.00     0.210 HD
ENDBRANCH   2  13
ENDBRANCH   1   2
BRANCH   1  15
HETATM   15  N   UNL     1      40.652 -13.115   2.175  1.00  0.00    -0.068 N 
HETATM   16  H   UNL     1      41.036 -12.339   2.744  1.00  0.00     0.280 HD
HETATM   17  C   UNL     1      41.364 -13.085   0.846  1.00  0.00     0.235 C 
HETATM   18  C   UNL     1      40.965 -11.852   0.047  1.00  0.00     0.037 C 
HETATM   19  C   UNL     1      39.450 -11.776  -0.173  1.00  0.00     0.025 C 
HETATM   20  C   UNL     1      38.787 -11.750   1.211  1.00  0.00     0.037 C 
HETATM   21  C   UNL     1      39.157 -12.960   2.057  1.00  0.00     0.235 C 
BRANCH  19  22
HETATM   22  C   UNL     1      38.935 -12.867  -1.079  1.00  0.00    -0.018 A 
HETATM   23  C   UNL     1      39.505 -14.136  -1.355  1.00  0.00     0.147 A 
HETATM   24  N   UNL     1      38.807 -14.835  -2.247  1.00  0.00    -0.187 NA
HETATM   25  N   UNL     1      37.722 -14.083  -2.472  1.00  0.00    -0.289 N 
HETATM   26  H   UNL     1      37.001 -14.444  -3.089  1.00  0.00     0.188 HD
HETATM   27  C   UNL     1      37.760 -12.888  -1.809  1.00  0.00     0.118 A 
ENDBRANCH  19  22
ENDBRANCH   1  15
TORSDOF 6
ENDMDL
MODEL 3
REMARK VINA RESULT:      -7.8      1.724      2.383
REMARK  6 active torsions:
REMARK  status: ('A' for Active; 'I' for Inactive)
REMARK    1  A    between atoms: C_3  and  C_4 
REMARK    2  A    between atoms: C_9  and  C_10 
REMARK    3  A    between atoms: C_10  and  O_11 
REMARK    4  A    between atoms: C_10  and  C_12 
REMARK    5  A    between atoms: C_12  and  N_13 
REMARK    6  A    between atoms: C_17  and  C_18 
ROOT
HETATM    1  C   UNL     1      41.162 -14.987   2.611  1.00  0.00     0.271 C 
ENDROOT
BRANCH   1   2
HETATM    2  C   UNL     1      42.667 -15.303   2.398  1.00  0.00     0.177 C 
BRANCH   2   3
HETATM    3  C   UNL     1      43.169 -16.539   3.125  1.00  0.00    -0.027 A 
HETATM    4  C   UNL     1      43.070 -17.809   2.525  1.00  0.00     0.025 A 
HETATM    5  C   UNL     1      43.572 -18.965   3.155  1.00  0.00     0.048 A 
HETATM    6  C   UNL     1      44.142 -18.850   4.427  1.00  0.00     0.016 A 
HETATM    7  C   UNL     1      44.206 -17.609   5.056  1.00  0.00     0.001 A 
HETATM    8  C   UNL     1      43.724 -16.465   4.413  1.00  0.00     0.010 A 
BRANCH   5   9
HETATM    9  C   UNL     1      43.514 -20.295   2.438  1.00  0.00     0.417 C 
HETATM   10  F   UNL     1      42.329 -20.540   1.823  1.00  0.00    -0.166 F 
HETATM   11  F   UNL     1      44.479 -20.410   1.486  1.00  0.00    -0.166 F 
HETATM   12  F   UNL     1      43.718 -21.330   3.301  1.00  0.00    -0.166 F 
ENDBRANCH   5   9
ENDBRANCH   2   3
BRANCH   2  13
HETATM   13  O   UNL     1      42.841 -15.411   0.976  1.00  0.00    -0.389 OA
HETATM   14  H   UNL     1      42.095 -15.951   0.646  1.00  0.00     0.210 HD
ENDBRANCH   2  13
ENDBRANCH   1   2
BRANCH   1  15
HETATM   15  N   UNL     1      40.859 -13.488   2.433  1.00  0.00    -0.068 N 
HETATM   16  H   UNL     1      40.951 -13.345   1.411  1.00  0.00     0.280 HD
HETATM   17  C   UNL     1      39.443 -13.124   2.805  1.00  0.00     0.235 C 
HETATM   18  C   UNL     1      39.212 -11.627   2.653  1.00  0.00     0.037 C 
HETATM   19  C   UNL     1      40.198 -10.806   3.492  1.00  0.00     0.025 C 
HETATM   20  C   UNL     1      41.613 -11.176   3.027  1.00  0.00     0.037 C 
HETATM   21  C   UNL     1      41.898 -12.666   3.153  1.00  0.00     0.235 C 
BRANCH  19  22
HETATM   22  C   UNL     1      39.978 -10.967   4.976  1.00  0.00    -0.018 A 
HETATM   23  C   UNL     1      38.758 -11.121   5.682  1.00  0.00     0.147 A 
HETATM   24  N   UNL     1      38.927 -11.188   7.000  1.00  0.00    -0.187 NA
HETATM   25  N   UNL     1      40.257 -11.195   7.157  1.00  0.00    -0.289 N 
HETATM   26  H   UNL     1      40.634 -11.298   8.095  1.00  0.00     0.188 HD
HETATM   27  C   UNL     1      40.930 -11.048   5.977  1.00  0.00     0.118 A 
ENDBRANCH  19  22
ENDBRANCH   1  15
TORSDOF 6
ENDMDL
MODEL 4
REMARK VINA RESULT:      -7.8      4.159      5.778
REMARK  6 active torsions:
REMARK  status: ('A' for Active; 'I' for Inactive)
REMARK    1  A    between atoms: C_3  and  C_4 
REMARK    2  A    between atoms: C_9  and  C_10 
REMARK    3  A    between atoms: C_10  and  O_11 
REMARK    4  A    between atoms: C_10  and  C_12 
REMARK    5  A    between atoms: C_12  and  N_13 
REMARK    6  A    between atoms: C_17  and  C_18 
ROOT
HETATM    1  C   UNL     1      40.521 -13.618   1.350  1.00  0.00     0.271 C 
ENDROOT
BRANCH   1   2
HETATM    2  C   UNL     1      40.325 -15.085   1.823  1.00  0.00     0.177 C 
BRANCH   2   3
HETATM    3  C   UNL     1      41.439 -15.627   2.702  1.00  0.00    -0.027 A 
HETATM    4  C   UNL     1      41.945 -16.924   2.492  1.00  0.00     0.025 A 
HETATM    5  C   UNL     1      43.011 -17.433   3.260  1.00  0.00     0.048 A 
HETATM    6  C   UNL     1      43.545 -16.646   4.284  1.00  0.00     0.016 A 
HETATM    7  C   UNL     1      43.025 -15.379   4.537  1.00  0.00     0.001 A 
HETATM    8  C   UNL     1      41.982 -14.875   3.756  1.00  0.00     0.010 A 
BRANCH   5   9
HETATM    9  C   UNL     1      43.575 -18.801   2.946  1.00  0.00     0.417 C 
HETATM   10  F   UNL     1      44.823 -18.775   2.411  1.00  0.00    -0.166 F 
HETATM   11  F   UNL     1      43.637 -19.599   4.045  1.00  0.00    -0.166 F 
HETATM   12  F   UNL     1      42.789 -19.464   2.049  1.00  0.00    -0.166 F 
ENDBRANCH   5   9
ENDBRANCH   2   3
BRANCH   2  13
HETATM   13  O   UNL     1      39.054 -15.106   2.494  1.00  0.00    -0.389 OA
HETATM   14  H   UNL     1      39.243 -15.292   3.436  1.00  0.00     0.210 HD
ENDBRANCH   2  13
ENDBRANCH   1   2
BRANCH   1  15
HETATM   15  N   UNL     1      40.837 -13.537  -0.154  1.00  0.00    -0.068 N 
HETATM   16  H   UNL     1      41.760 -14.001  -0.230  1.00  0.00     0.280 HD
HETATM   17  C   UNL     1      39.873 -14.328  -1.003  1.00  0.00     0.235 C 
HETATM   18  C   UNL     1      40.205 -14.178  -2.481  1.00  0.00     0.037 C 
HETATM   19  C   UNL     1      40.203 -12.709  -2.923  1.00  0.00     0.025 C 
HETATM   20  C   UNL     1      41.242 -11.973  -2.066  1.00  0.00     0.037 C 
HETATM   21  C   UNL     1      40.962 -12.095  -0.575  1.00  0.00     0.235 C 
BRANCH  19  22
HETATM   22  C   UNL     1      38.828 -12.089  -2.887  1.00  0.00    -0.018 A 
HETATM   23  C   UNL     1      38.471 -10.717  -2.891  1.00  0.00     0.147 A 
HETATM   24  N   UNL     1      37.157 -10.524  -2.802  1.00  0.00    -0.187 NA
HETATM   25  N   UNL     1      36.642 -11.759  -2.857  1.00  0.00    -0.289 N 
HETATM   26  H   UNL     1      35.632 -11.863  -2.862  1.00  0.00     0.188 HD
HETATM   27  C   UNL     1      37.602 -12.731  -2.892  1.00  0.00     0.118 A 
ENDBRANCH  19  22
ENDBRANCH   1  15
TORSDOF 6
ENDMDL
MODEL 5
REMARK VINA RESULT:      -7.7      2.280      3.847
REMARK  6 active torsions:
REMARK  status: ('A' for Active; 'I' for Inactive)
REMARK    1  A    between atoms: C_3  and  C_4 
REMARK    2  A    between atoms: C_9  and  C_10 
REMARK    3  A    between atoms: C_10  and  O_11 
REMARK    4  A    between atoms: C_10  and  C_12 
REMARK    5  A    between atoms: C_12  and  N_13 
REMARK    6  A    between atoms: C_17  and  C_18 
ROOT
HETATM    1  C   UNL     1      43.252 -14.454   6.481  1.00  0.00     0.271 C 
ENDROOT
BRANCH   1   2
HETATM    2  C   UNL     1      42.565 -15.848   6.484  1.00  0.00     0.177 C 
BRANCH   2   3
HETATM    3  C   UNL     1      43.044 -16.798   5.399  1.00  0.00    -0.027 A 
HETATM    4  C   UNL     1      43.402 -18.121   5.718  1.00  0.00     0.025 A 
HETATM    5  C   UNL     1      43.801 -19.037   4.725  1.00  0.00     0.048 A 
HETATM    6  C   UNL     1      43.885 -18.605   3.398  1.00  0.00     0.016 A 
HETATM    7  C   UNL     1      43.580 -17.286   3.071  1.00  0.00     0.001 A 
HETATM    8  C   UNL     1      43.165 -16.390   4.061  1.00  0.00     0.010 A 
BRANCH   5   9
HETATM    9  C   UNL     1      44.099 -20.471   5.104  1.00  0.00     0.417 C 
HETATM   10  F   UNL     1      43.476 -21.391   4.322  1.00  0.00    -0.166 F 
HETATM   11  F   UNL     1      45.429 -20.752   5.053  1.00  0.00    -0.166 F 
HETATM   12  F   UNL     1      43.712 -20.733   6.384  1.00  0.00    -0.166 F 
ENDBRANCH   5   9
ENDBRANCH   2   3
BRANCH   2  13
HETATM   13  O   UNL     1      42.785 -16.383   7.799  1.00  0.00    -0.389 OA
HETATM   14  H   UNL     1      42.089 -17.055   7.945  1.00  0.00     0.210 HD
ENDBRANCH   2  13
ENDBRANCH   1   2
BRANCH   1  15
HETATM   15  N   UNL     1      42.396 -13.393   5.768  1.00  0.00    -0.068 N 
HETATM   16  H   UNL     1      42.364 -12.614   6.449  1.00  0.00     0.280 HD
HETATM   17  C   UNL     1      43.042 -12.859   4.514  1.00  0.00     0.235 C 
HETATM   18  C   UNL     1      42.135 -11.848   3.827  1.00  0.00     0.037 C 
HETATM   19  C   UNL     1      40.762 -12.443   3.491  1.00  0.00     0.025 C 
HETATM   20  C   UNL     1      40.133 -12.913   4.810  1.00  0.00     0.037 C 
HETATM   21  C   UNL     1      41.002 -13.924   5.544  1.00  0.00     0.235 C 
BRANCH  19  22
HETATM   22  C   UNL     1      40.832 -13.513   2.430  1.00  0.00    -0.018 A 
HETATM   23  C   UNL     1      40.041 -14.681   2.291  1.00  0.00     0.147 A 
HETATM   24  N   UNL     1      40.408 -15.436   1.259  1.00  0.00    -0.187 NA
HETATM   25  N   UNL     1      41.359 -14.715   0.651  1.00  0.00    -0.289 N 
HETATM   26  H   UNL     1      41.760 -15.070  -0.213  1.00  0.00     0.188 HD
HETATM   27  C   UNL     1      41.660 -13.564   1.322  1.00  0.00     0.118 A 
ENDBRANCH  19  22
ENDBRANCH   1  15
TORSDOF 6
ENDMDL
MODEL 6
REMARK VINA RESULT:      -7.6      2.322      4.104
REMARK  6 active torsions:
REMARK  status: ('A' for Active; 'I' for Inactive)
REMARK    1  A    between atoms: C_3  and  C_4 
REMARK    2  A    between atoms: C_9  and  C_10 
REMARK    3  A    between atoms: C_10  and  O_11 
REMARK    4  A    between atoms: C_10  and  C_12 
REMARK    5  A    between atoms: C_12  and  N_13 
REMARK    6  A    between atoms: C_17  and  C_18 
ROOT
HETATM    1  C   UNL     1      43.968 -12.762   5.920  1.00  0.00     0.271 C 
ENDROOT
BRANCH   1   2
HETATM    2  C   UNL     1      43.080 -13.925   6.442  1.00  0.00     0.177 C 
BRANCH   2   3
HETATM    3  C   UNL     1      43.331 -15.269   5.778  1.00  0.00    -0.027 A 
HETATM    4  C   UNL     1      42.875 -15.513   4.469  1.00  0.00     0.025 A 
HETATM    5  C   UNL     1      43.137 -16.731   3.811  1.00  0.00     0.048 A 
HETATM    6  C   UNL     1      43.827 -17.736   4.495  1.00  0.00     0.016 A 
HETATM    7  C   UNL     1      44.244 -17.529   5.808  1.00  0.00     0.001 A 
HETATM    8  C   UNL     1      43.998 -16.309   6.444  1.00  0.00     0.010 A 
BRANCH   5   9
HETATM    9  C   UNL     1      42.697 -16.918   2.376  1.00  0.00     0.417 C 
HETATM   10  F   UNL     1      41.349 -16.965   2.213  1.00  0.00    -0.166 F 
HETATM   11  F   UNL     1      43.154 -15.928   1.563  1.00  0.00    -0.166 F 
HETATM   12  F   UNL     1      43.185 -18.081   1.859  1.00  0.00    -0.166 F 
ENDBRANCH   5   9
ENDBRANCH   2   3
BRANCH   2  13
HETATM   13  O   UNL     1      43.310 -13.978   7.860  1.00  0.00    -0.389 OA
HETATM   14  H   UNL     1      44.230 -14.288   7.980  1.00  0.00     0.210 HD
ENDBRANCH   2  13
ENDBRANCH   1   2
BRANCH   1  15
HETATM   15  N   UNL     1      43.165 -11.770   5.059  1.00  0.00    -0.068 N 
HETATM   16  H   UNL     1      43.580 -10.852   5.305  1.00  0.00     0.280 HD
HETATM   17  C   UNL     1      43.375 -11.968   3.579  1.00  0.00     0.235 C 
HETATM   18  C   UNL     1      42.527 -10.991   2.777  1.00  0.00     0.037 C 
HETATM   19  C   UNL     1      41.035 -11.115   3.113  1.00  0.00     0.025 C 
HETATM   20  C   UNL     1      40.881 -10.845   4.616  1.00  0.00     0.037 C 
HETATM   21  C   UNL     1      41.714 -11.793   5.468  1.00  0.00     0.235 C 
BRANCH  19  22
HETATM   22  C   UNL     1      40.442 -12.427   2.662  1.00  0.00    -0.018 A 
HETATM   23  C   UNL     1      40.778 -13.211   1.529  1.00  0.00     0.147 A 
HETATM   24  N   UNL     1      40.015 -14.295   1.405  1.00  0.00    -0.187 NA
HETATM   25  N   UNL     1      39.258 -14.288   2.509  1.00  0.00    -0.289 N 
HETATM   26  H   UNL     1      38.622 -15.064   2.667  1.00  0.00     0.188 HD
HETATM   27  C   UNL     1      39.465 -13.182   3.285  1.00  0.00     0.118 A 
ENDBRANCH  19  22
ENDBRANCH   1  15
TORSDOF 6
ENDMDL
MODEL 7
REMARK VINA RESULT:      -7.6      2.309      3.142
REMARK  6 active torsions:
REMARK  status: ('A' for Active; 'I' for Inactive)
REMARK    1  A    between atoms: C_3  and  C_4 
REMARK    2  A    between atoms: C_9  and  C_10 
REMARK    3  A    between atoms: C_10  and  O_11 
REMARK    4  A    between atoms: C_10  and  C_12 
REMARK    5  A    between atoms: C_12  and  N_13 
REMARK    6  A    between atoms: C_17  and  C_18 
ROOT
HETATM    1  C   UNL     1      40.372 -14.104   4.131  1.00  0.00     0.271 C 
ENDROOT
BRANCH   1   2
HETATM    2  C   UNL     1      40.611 -15.073   2.940  1.00  0.00     0.177 C 
BRANCH   2   3
HETATM    3  C   UNL     1      41.664 -16.140   3.187  1.00  0.00    -0.027 A 
HETATM    4  C   UNL     1      42.135 -16.390   4.490  1.00  0.00     0.025 A 
HETATM    5  C   UNL     1      43.073 -17.406   4.753  1.00  0.00     0.048 A 
HETATM    6  C   UNL     1      43.580 -18.154   3.686  1.00  0.00     0.016 A 
HETATM    7  C   UNL     1      43.162 -17.889   2.385  1.00  0.00     0.001 A 
HETATM    8  C   UNL     1      42.214 -16.892   2.136  1.00  0.00     0.010 A 
BRANCH   5   9
HETATM    9  C   UNL     1      43.490 -17.691   6.179  1.00  0.00     0.417 C 
HETATM   10  F   UNL     1      44.699 -17.171   6.516  1.00  0.00    -0.166 F 
HETATM   11  F   UNL     1      42.594 -17.213   7.084  1.00  0.00    -0.166 F 
HETATM   12  F   UNL     1      43.574 -19.032   6.410  1.00  0.00    -0.166 F 
ENDBRANCH   5   9
ENDBRANCH   2   3
BRANCH   2  13
HETATM   13  O   UNL     1      39.326 -15.646   2.646  1.00  0.00    -0.389 OA
HETATM   14  H   UNL     1      38.728 -14.897   2.450  1.00  0.00     0.210 HD
ENDBRANCH   2  13
ENDBRANCH   1   2
BRANCH   1  15
HETATM   15  N   UNL     1      41.042 -12.737   3.902  1.00  0.00    -0.068 N 
HETATM   16  H   UNL     1      40.701 -12.458   2.965  1.00  0.00     0.280 HD
HETATM   17  C   UNL     1      40.577 -11.682   4.875  1.00  0.00     0.235 C 
HETATM   18  C   UNL     1      41.301 -10.366   4.632  1.00  0.00     0.037 C 
HETATM   19  C   UNL     1      42.824 -10.523   4.723  1.00  0.00     0.025 C 
HETATM   20  C   UNL     1      43.240 -11.562   3.673  1.00  0.00     0.037 C 
HETATM   21  C   UNL     1      42.540 -12.900   3.866  1.00  0.00     0.235 C 
BRANCH  19  22
HETATM   22  C   UNL     1      43.295 -10.841   6.121  1.00  0.00    -0.018 A 
HETATM   23  C   UNL     1      44.354 -11.691   6.531  1.00  0.00     0.147 A 
HETATM   24  N   UNL     1      44.464 -11.780   7.854  1.00  0.00    -0.187 NA
HETATM   25  N   UNL     1      43.561 -10.906   8.315  1.00  0.00    -0.289 N 
HETATM   26  H   UNL     1      43.499 -10.755   9.318  1.00  0.00     0.188 HD
HETATM   27  C   UNL     1      42.825 -10.330   7.318  1.00  0.00     0.118 A 
ENDBRANCH  19  22
ENDBRANCH   1  15
TORSDOF 6
ENDMDL
MODEL 8
REMARK VINA RESULT:      -7.5      1.917      3.368
REMARK  6 active torsions:
REMARK  status: ('A' for Active; 'I' for Inactive)
REMARK    1  A    between atoms: C_3  and  C_4 
REMARK    2  A    between atoms: C_9  and  C_10 
REMARK    3  A    between atoms: C_10  and  O_11 
REMARK    4  A    between atoms: C_10  and  C_12 
REMARK    5  A    between atoms: C_12  and  N_13 
REMARK    6  A    between atoms: C_17  and  C_18 
ROOT
HETATM    1  C   UNL     1      43.166 -14.832   6.496  1.00  0.00     0.271 C 
ENDROOT
BRANCH   1   2
HETATM    2  C   UNL     1      42.480 -16.132   5.996  1.00  0.00     0.177 C 
BRANCH   2   3
HETATM    3  C   UNL     1      42.814 -16.523   4.567  1.00  0.00    -0.027 A 
HETATM    4  C   UNL     1      43.036 -17.871   4.229  1.00  0.00     0.025 A 
HETATM    5  C   UNL     1      43.299 -18.267   2.903  1.00  0.00     0.048 A 
HETATM    6  C   UNL     1      43.384 -17.288   1.908  1.00  0.00     0.016 A 
HETATM    7  C   UNL     1      43.214 -15.945   2.232  1.00  0.00     0.001 A 
HETATM    8  C   UNL     1      42.933 -15.565   3.547  1.00  0.00     0.010 A 
BRANCH   5   9
HETATM    9  C   UNL     1      43.452 -19.736   2.575  1.00  0.00     0.417 C 
HETATM   10  F   UNL     1      43.599 -20.533   3.664  1.00  0.00    -0.166 F 
HETATM   11  F   UNL     1      42.391 -20.221   1.877  1.00  0.00    -0.166 F 
HETATM   12  F   UNL     1      44.546 -19.954   1.791  1.00  0.00    -0.166 F 
ENDBRANCH   5   9
ENDBRANCH   2   3
BRANCH   2  13
HETATM   13  O   UNL     1      42.861 -17.153   6.933  1.00  0.00    -0.389 OA
HETATM   14  H   UNL     1      43.492 -16.737   7.554  1.00  0.00     0.210 HD
ENDBRANCH   2  13
ENDBRANCH   1   2
BRANCH   1  15
HETATM   15  N   UNL     1      42.244 -13.607   6.361  1.00  0.00    -0.068 N 
HETATM   16  H   UNL     1      42.329 -13.141   7.282  1.00  0.00     0.280 HD
HETATM   17  C   UNL     1      42.719 -12.622   5.322  1.00  0.00     0.235 C 
HETATM   18  C   UNL     1      41.749 -11.455   5.200  1.00  0.00     0.037 C 
HETATM   19  C   UNL     1      40.328 -11.922   4.862  1.00  0.00     0.025 C 
HETATM   20  C   UNL     1      39.881 -12.871   5.982  1.00  0.00     0.037 C 
HETATM   21  C   UNL     1      40.820 -14.057   6.153  1.00  0.00     0.235 C 
BRANCH  19  22
HETATM   22  C   UNL     1      40.221 -12.513   3.478  1.00  0.00    -0.018 A 
HETATM   23  C   UNL     1      41.064 -12.309   2.356  1.00  0.00     0.147 A 
HETATM   24  N   UNL     1      40.646 -12.953   1.270  1.00  0.00    -0.187 NA
HETATM   25  N   UNL     1      39.600 -13.670   1.699  1.00  0.00    -0.289 N 
HETATM   26  H   UNL     1      39.141 -14.298   1.046  1.00  0.00     0.188 HD
HETATM   27  C   UNL     1      39.296 -13.429   3.009  1.00  0.00     0.118 A 
ENDBRANCH  19  22
ENDBRANCH   1  15
TORSDOF 6
ENDMDL
MODEL 9
REMARK VINA RESULT:      -7.5      3.483      5.232
REMARK  6 active torsions:
REMARK  status: ('A' for Active; 'I' for Inactive)
REMARK    1  A    between atoms: C_3  and  C_4 
REMARK    2  A    between atoms: C_9  and  C_10 
REMARK    3  A    between atoms: C_10  and  O_11 
REMARK    4  A    between atoms: C_10  and  C_12 
REMARK    5  A    between atoms: C_12  and  N_13 
REMARK    6  A    between atoms: C_17  and  C_18 
ROOT
HETATM    1  C   UNL     1      40.646 -13.916   3.471  1.00  0.00     0.271 C 
ENDROOT
BRANCH   1   2
HETATM    2  C   UNL     1      40.691 -15.278   2.725  1.00  0.00     0.177 C 
BRANCH   2   3
HETATM    3  C   UNL     1      41.784 -16.226   3.189  1.00  0.00    -0.027 A 
HETATM    4  C   UNL     1      42.098 -16.336   4.557  1.00  0.00     0.025 A 
HETATM    5  C   UNL     1      43.072 -17.242   5.020  1.00  0.00     0.048 A 
HETATM    6  C   UNL     1      43.773 -18.017   4.091  1.00  0.00     0.016 A 
HETATM    7  C   UNL     1      43.509 -17.887   2.731  1.00  0.00     0.001 A 
HETATM    8  C   UNL     1      42.526 -17.000   2.283  1.00  0.00     0.010 A 
BRANCH   5   9
HETATM    9  C   UNL     1      43.318 -17.383   6.506  1.00  0.00     0.417 C 
HETATM   10  F   UNL     1      44.500 -16.858   6.923  1.00  0.00    -0.166 F 
HETATM   11  F   UNL     1      42.345 -16.792   7.249  1.00  0.00    -0.166 F 
HETATM   12  F   UNL     1      43.330 -18.694   6.881  1.00  0.00    -0.166 F 
ENDBRANCH   5   9
ENDBRANCH   2   3
BRANCH   2  13
HETATM   13  O   UNL     1      39.383 -15.849   2.887  1.00  0.00    -0.389 OA
HETATM   14  H   UNL     1      39.247 -15.961   3.849  1.00  0.00     0.210 HD
ENDBRANCH   2  13
ENDBRANCH   1   2
BRANCH   1  15
HETATM   15  N   UNL     1      40.538 -12.730   2.496  1.00  0.00    -0.068 N 
HETATM   16  H   UNL     1      40.997 -11.956   3.009  1.00  0.00     0.280 HD
HETATM   17  C   UNL     1      41.318 -12.940   1.222  1.00  0.00     0.235 C 
HETATM   18  C   UNL     1      41.141 -11.759   0.278  1.00  0.00     0.037 C 
HETATM   19  C   UNL     1      39.665 -11.504  -0.051  1.00  0.00     0.025 C 
HETATM   20  C   UNL     1      38.939 -11.239   1.276  1.00  0.00     0.037 C 
HETATM   21  C   UNL     1      39.088 -12.389   2.262  1.00  0.00     0.235 C 
BRANCH  19  22
HETATM   22  C   UNL     1      39.051 -12.607  -0.877  1.00  0.00    -0.018 A 
HETATM   23  C   UNL     1      39.582 -13.885  -1.187  1.00  0.00     0.147 A 
HETATM   24  N   UNL     1      38.788 -14.595  -1.986  1.00  0.00    -0.187 NA
HETATM   25  N   UNL     1      37.690 -13.839  -2.109  1.00  0.00    -0.289 N 
HETATM   26  H   UNL     1      36.905 -14.206  -2.640  1.00  0.00     0.188 HD
HETATM   27  C   UNL     1      37.805 -12.633  -1.477  1.00  0.00     0.118 A 
ENDBRANCH  19  22
ENDBRANCH   1  15
TORSDOF 6
ENDMDL
MODEL 10
REMARK VINA RESULT:      -7.5      2.417      3.747
REMARK  6 active torsions:
REMARK  status: ('A' for Active; 'I' for Inactive)
REMARK    1  A    between atoms: C_3  and  C_4 
REMARK    2  A    between atoms: C_9  and  C_10 
REMARK    3  A    between atoms: C_10  and  O_11 
REMARK    4  A    between atoms: C_10  and  C_12 
REMARK    5  A    between atoms: C_12  and  N_13 
REMARK    6  A    between atoms: C_17  and  C_18 
ROOT
HETATM    1  C   UNL     1      41.826 -14.504   6.310  1.00  0.00     0.271 C 
ENDROOT
BRANCH   1   2
HETATM    2  C   UNL     1      40.982 -14.935   5.079  1.00  0.00     0.177 C 
BRANCH   2   3
HETATM    3  C   UNL     1      41.788 -15.468   3.907  1.00  0.00    -0.027 A 
HETATM    4  C   UNL     1      42.361 -16.753   3.961  1.00  0.00     0.025 A 
HETATM    5  C   UNL     1      43.071 -17.291   2.870  1.00  0.00     0.048 A 
HETATM    6  C   UNL     1      43.247 -16.509   1.724  1.00  0.00     0.016 A 
HETATM    7  C   UNL     1      42.729 -15.218   1.671  1.00  0.00     0.001 A 
HETATM    8  C   UNL     1      42.008 -14.701   2.752  1.00  0.00     0.010 A 
BRANCH   5   9
HETATM    9  C   UNL     1      43.599 -18.706   2.943  1.00  0.00     0.417 C 
HETATM   10  F   UNL     1      42.894 -19.599   2.202  1.00  0.00    -0.166 F 
HETATM   11  F   UNL     1      44.893 -18.796   2.535  1.00  0.00    -0.166 F 
HETATM   12  F   UNL     1      43.579 -19.173   4.224  1.00  0.00    -0.166 F 
ENDBRANCH   5   9
ENDBRANCH   2   3
BRANCH   2  13
HETATM   13  O   UNL     1      40.049 -15.909   5.574  1.00  0.00    -0.389 OA
HETATM   14  H   UNL     1      39.303 -15.924   4.941  1.00  0.00     0.210 HD
ENDBRANCH   2  13
ENDBRANCH   1   2
BRANCH   1  15
HETATM   15  N   UNL     1      42.714 -13.285   6.000  1.00  0.00    -0.068 N 
HETATM   16  H   UNL     1      43.055 -13.477   5.040  1.00  0.00     0.280 HD
HETATM   17  C   UNL     1      41.942 -11.990   5.945  1.00  0.00     0.235 C 
HETATM   18  C   UNL     1      42.873 -10.816   5.679  1.00  0.00     0.037 C 
HETATM   19  C   UNL     1      43.985 -10.715   6.730  1.00  0.00     0.025 C 
HETATM   20  C   UNL     1      44.768 -12.035   6.696  1.00  0.00     0.037 C 
HETATM   21  C   UNL     1      43.883 -13.246   6.951  1.00  0.00     0.235 C 
BRANCH  19  22
HETATM   22  C   UNL     1      43.464 -10.347   8.098  1.00  0.00    -0.018 A 
HETATM   23  C   UNL     1      44.059 -10.568   9.365  1.00  0.00     0.147 A 
HETATM   24  N   UNL     1      43.297 -10.155  10.375  1.00  0.00    -0.187 NA
HETATM   25  N   UNL     1      42.258  -9.560   9.776  1.00  0.00    -0.289 N 
HETATM   26  H   UNL     1      41.556  -9.110  10.356  1.00  0.00     0.188 HD
HETATM   27  C   UNL     1      42.303  -9.663   8.414  1.00  0.00     0.118 A 
ENDBRANCH  19  22
ENDBRANCH   1  15
TORSDOF 6
ENDMDL
