MODEL 1
REMARK VINA RESULT:      -8.7      0.000      0.000
REMARK  6 active torsions:
REMARK  status: ('A' for Active; 'I' for Inactive)
REMARK    1  A    between atoms: C_2  and  C_3 
REMARK    2  A    between atoms: C_3  and  C_4 
REMARK    3  A    between atoms: C_4  and  C_5 
REMARK    4  A    between atoms: C_4  and  C_21 
REMARK       I    between atoms: C_5  and  N_6 
REMARK    5  A    between atoms: N_6  and  C_7 
REMARK    6  A    between atoms: C_14  and  C_15 
REMARK       I    between atoms: C_15  and  N_16 
ROOT
HETATM    1  C   UNL     1      40.765 -14.939   2.140  1.00  0.00     0.035 A 
HETATM    2  C   UNL     1      40.413 -15.055   0.788  1.00  0.00     0.046 A 
HETATM    3  C   UNL     1      39.665 -14.027   0.176  1.00  0.00     0.030 A 
HETATM    4  C   UNL     1      39.255 -12.946   0.949  1.00  0.00     0.063 A 
HETATM    5  N   UNL     1      38.533 -12.152   0.103  1.00  0.00    -0.277 N 
HETATM    6  H   UNL     1      38.062 -11.283   0.329  1.00  0.00     0.189 HD
HETATM    7  N   UNL     1      38.484 -12.588  -1.166  1.00  0.00    -0.168 NA
HETATM    8  C   UNL     1      39.189 -13.742  -1.139  1.00  0.00     0.156 A 
HETATM    9  C   UNL     1      39.582 -12.804   2.298  1.00  0.00     0.034 A 
HETATM   10  C   UNL     1      40.370 -13.811   2.870  1.00  0.00     0.032 A 
ENDROOT
BRANCH   1  11
HETATM   11  N   UNL     1      41.561 -15.892   2.808  1.00  0.00    -0.327 N 
HETATM   12  C   UNL     1      42.936 -16.040   2.694  1.00  0.00     0.231 C 
HETATM   13  O   UNL     1      43.631 -15.396   1.910  1.00  0.00    -0.272 OA
HETATM   14  H   UNL     1      41.058 -16.625   3.292  1.00  0.00     0.169 HD
BRANCH  12  15
HETATM   15  C   UNL     1      43.569 -17.023   3.710  1.00  0.00     0.115 C 
BRANCH  15  16
HETATM   16  C   UNL     1      43.209 -18.530   3.489  1.00  0.00    -0.001 C 
HETATM   17  C   UNL     1      44.112 -19.446   4.328  1.00  0.00     0.011 C 
BRANCH  16  18
HETATM   18  C   UNL     1      43.185 -18.956   2.002  1.00  0.00     0.001 C 
HETATM   19  C   UNL     1      43.559 -20.415   1.772  1.00  0.00     0.005 C 
ENDBRANCH  16  18
ENDBRANCH  15  16
BRANCH  15  20
HETATM   20  C   UNL     1      43.435 -16.628   5.184  1.00  0.00    -0.045 A 
HETATM   21  C   UNL     1      42.152 -16.460   5.732  1.00  0.00     0.008 A 
HETATM   22  C   UNL     1      41.988 -16.117   7.075  1.00  0.00     0.001 A 
HETATM   23  C   UNL     1      43.103 -15.930   7.887  1.00  0.00     0.000 A 
HETATM   24  C   UNL     1      44.382 -16.082   7.356  1.00  0.00     0.001 A 
HETATM   25  C   UNL     1      44.549 -16.427   6.013  1.00  0.00     0.008 A 
ENDBRANCH  15  20
ENDBRANCH  12  15
ENDBRANCH   1  11
BRANCH   8  26
HETATM   26  C   UNL     1      39.420 -14.522  -2.363  1.00  0.00     0.270 C 
HETATM   27  N   UNL     1      38.606 -15.616  -2.489  1.00  0.00    -0.365 N 
HETATM   28  H   UNL     1      37.908 -15.783  -1.775  1.00  0.00     0.159 HD
HETATM   29  H   UNL     1      38.653 -16.176  -3.325  1.00  0.00     0.159 HD
HETATM   30  O   UNL     1      40.237 -14.237  -3.232  1.00  0.00    -0.266 OA
ENDBRANCH   8  26
TORSDOF 6
ENDMDL
MODEL 2
REMARK VINA RESULT:      -8.6      1.540      3.519
REMARK  6 active torsions:
REMARK  status: ('A' for Active; 'I' for Inactive)
REMARK    1  A    between atoms: C_2  and  C_3 
REMARK    2  A    between atoms: C_3  and  C_4 
REMARK    3  A    between atoms: C_4  and  C_5 
REMARK    4  A    between atoms: C_4  and  C_21 
REMARK       I    between atoms: C_5  and  N_6 
REMARK    5  A    between atoms: N_6  and  C_7 
REMARK    6  A    between atoms: C_14  and  C_15 
REMARK       I    between atoms: C_15  and  N_16 
ROOT
HETATM    1  C   UNL     1      40.651 -14.478   0.830  1.00  0.00     0.035 A 
HETATM    2  C   UNL     1      39.897 -14.811  -0.303  1.00  0.00     0.046 A 
HETATM    3  C   UNL     1      39.688 -13.840  -1.306  1.00  0.00     0.030 A 
HETATM    4  C   UNL     1      40.197 -12.561  -1.116  1.00  0.00     0.063 A 
HETATM    5  N   UNL     1      39.809 -11.851  -2.218  1.00  0.00    -0.277 N 
HETATM    6  H   UNL     1      39.987 -10.872  -2.411  1.00  0.00     0.189 HD
HETATM    7  N   UNL     1      39.142 -12.567  -3.137  1.00  0.00    -0.168 NA
HETATM    8  C   UNL     1      39.068 -13.803  -2.592  1.00  0.00     0.156 A 
HETATM    9  C   UNL     1      40.946 -12.195   0.004  1.00  0.00     0.034 A 
HETATM   10  C   UNL     1      41.185 -13.190   0.960  1.00  0.00     0.032 A 
ENDROOT
BRANCH   1  11
HETATM   11  N   UNL     1      40.955 -15.407   1.846  1.00  0.00    -0.327 N 
HETATM   12  C   UNL     1      42.195 -15.977   2.094  1.00  0.00     0.231 C 
HETATM   13  O   UNL     1      43.183 -15.801   1.384  1.00  0.00    -0.272 OA
HETATM   14  H   UNL     1      40.161 -15.801   2.334  1.00  0.00     0.169 HD
BRANCH  12  15
HETATM   15  C   UNL     1      42.283 -16.792   3.408  1.00  0.00     0.115 C 
BRANCH  15  16
HETATM   16  C   UNL     1      42.823 -16.001   4.646  1.00  0.00    -0.001 C 
HETATM   17  C   UNL     1      41.944 -16.239   5.883  1.00  0.00     0.011 C 
BRANCH  16  18
HETATM   18  C   UNL     1      43.041 -14.494   4.379  1.00  0.00     0.001 C 
HETATM   19  C   UNL     1      43.182 -13.656   5.644  1.00  0.00     0.005 C 
ENDBRANCH  16  18
ENDBRANCH  15  16
BRANCH  15  20
HETATM   20  C   UNL     1      42.949 -18.167   3.290  1.00  0.00    -0.045 A 
HETATM   21  C   UNL     1      43.778 -18.617   4.332  1.00  0.00     0.008 A 
HETATM   22  C   UNL     1      44.388 -19.870   4.269  1.00  0.00     0.001 A 
HETATM   23  C   UNL     1      44.186 -20.689   3.162  1.00  0.00     0.000 A 
HETATM   24  C   UNL     1      43.376 -20.254   2.116  1.00  0.00     0.001 A 
HETATM   25  C   UNL     1      42.762 -19.001   2.177  1.00  0.00     0.008 A 
ENDBRANCH  15  20
ENDBRANCH  12  15
ENDBRANCH   1  11
BRANCH   8  26
HETATM   26  C   UNL     1      38.444 -14.919  -3.318  1.00  0.00     0.270 C 
HETATM   27  N   UNL     1      38.281 -16.052  -2.566  1.00  0.00    -0.365 N 
HETATM   28  H   UNL     1      38.559 -16.028  -1.592  1.00  0.00     0.159 HD
HETATM   29  H   UNL     1      37.808 -16.848  -2.963  1.00  0.00     0.159 HD
HETATM   30  O   UNL     1      38.065 -14.872  -4.483  1.00  0.00    -0.266 OA
ENDBRANCH   8  26
TORSDOF 6
ENDMDL
MODEL 3
REMARK VINA RESULT:      -8.6      2.422      8.265
REMARK  6 active torsions:
REMARK  status: ('A' for Active; 'I' for Inactive)
REMARK    1  A    between atoms: C_2  and  C_3 
REMARK    2  A    between atoms: C_3  and  C_4 
REMARK    3  A    between atoms: C_4  and  C_5 
REMARK    4  A    between atoms: C_4  and  C_21 
REMARK       I    between atoms: C_5  and  N_6 
REMARK    5  A    between atoms: N_6  and  C_7 
REMARK    6  A    between atoms: C_14  and  C_15 
REMARK       I    between atoms: C_15  and  N_16 
ROOT
HETATM    1  C   UNL     1      42.386 -15.915   2.466  1.00  0.00     0.035 A 
HETATM    2  C   UNL     1      42.138 -15.867   3.845  1.00  0.00     0.046 A 
HETATM    3  C   UNL     1      42.707 -16.849   4.685  1.00  0.00     0.030 A 
HETATM    4  C   UNL     1      43.459 -17.867   4.112  1.00  0.00     0.063 A 
HETATM    5  N   UNL     1      43.837 -18.667   5.154  1.00  0.00    -0.277 N 
HETATM    6  H   UNL     1      44.382 -19.521   5.106  1.00  0.00     0.189 HD
HETATM    7  N   UNL     1      43.447 -18.230   6.362  1.00  0.00    -0.168 NA
HETATM    8  C   UNL     1      42.755 -17.100   6.090  1.00  0.00     0.156 A 
HETATM    9  C   UNL     1      43.718 -17.947   2.742  1.00  0.00     0.034 A 
HETATM   10  C   UNL     1      43.188 -16.933   1.936  1.00  0.00     0.032 A 
ENDROOT
BRANCH   1  11
HETATM   11  N   UNL     1      41.906 -14.939   1.569  1.00  0.00    -0.327 N 
HETATM   12  C   UNL     1      40.639 -14.897   1.003  1.00  0.00     0.231 C 
HETATM   13  O   UNL     1      39.792 -15.774   1.154  1.00  0.00    -0.272 OA
HETATM   14  H   UNL     1      42.600 -14.307   1.193  1.00  0.00     0.169 HD
BRANCH  12  15
HETATM   15  C   UNL     1      40.319 -13.593   0.230  1.00  0.00     0.115 C 
BRANCH  15  16
HETATM   16  C   UNL     1      39.901 -12.377   1.121  1.00  0.00    -0.001 C 
HETATM   17  C   UNL     1      41.094 -11.444   1.383  1.00  0.00     0.011 C 
BRANCH  16  18
HETATM   18  C   UNL     1      39.190 -12.778   2.434  1.00  0.00     0.001 C 
HETATM   19  C   UNL     1      40.003 -12.491   3.691  1.00  0.00     0.005 C 
ENDBRANCH  16  18
ENDBRANCH  15  16
BRANCH  15  20
HETATM   20  C   UNL     1      39.384 -13.751  -0.973  1.00  0.00    -0.045 A 
HETATM   21  C   UNL     1      38.381 -12.790  -1.190  1.00  0.00     0.008 A 
HETATM   22  C   UNL     1      37.520 -12.891  -2.284  1.00  0.00     0.001 A 
HETATM   23  C   UNL     1      37.644 -13.954  -3.172  1.00  0.00     0.000 A 
HETATM   24  C   UNL     1      38.626 -14.920  -2.967  1.00  0.00     0.001 A 
HETATM   25  C   UNL     1      39.490 -14.823  -1.873  1.00  0.00     0.008 A 
ENDBRANCH  15  20
ENDBRANCH  12  15
ENDBRANCH   1  11
BRANCH   8  26
HETATM   26  C   UNL     1      42.192 -16.274   7.167  1.00  0.00     0.270 C 
HETATM   27  N   UNL     1      43.090 -15.948   8.148  1.00  0.00    -0.365 N 
HETATM   28  H   UNL     1      44.049 -16.257   8.046  1.00  0.00     0.159 HD
HETATM   29  H   UNL     1      42.808 -15.335   8.896  1.00  0.00     0.159 HD
HETATM   30  O   UNL     1      41.035 -15.870   7.208  1.00  0.00    -0.266 OA
ENDBRANCH   8  26
TORSDOF 6
ENDMDL
MODEL 4
REMARK VINA RESULT:      -8.2      1.719      3.484
REMARK  6 active torsions:
REMARK  status: ('A' for Active; 'I' for Inactive)
REMARK    1  A    between atoms: C_2  and  C_3 
REMARK    2  A    between atoms: C_3  and  C_4 
REMARK    3  A    between atoms: C_4  and  C_5 
REMARK    4  A    between atoms: C_4  and  C_21 
REMARK       I    between atoms: C_5  and  N_6 
REMARK    5  A    between atoms: N_6  and  C_7 
REMARK    6  A    between atoms: C_14  and  C_15 
REMARK       I    between atoms: C_15  and  N_16 
ROOT
HETATM    1  C   UNL     1      39.637 -13.658   1.834  1.00  0.00     0.035 A 
HETATM    2  C   UNL     1      39.841 -13.704   0.448  1.00  0.00     0.046 A 
HETATM    3  C   UNL     1      39.455 -12.603  -0.346  1.00  0.00     0.030 A 
HETATM    4  C   UNL     1      38.836 -11.519   0.267  1.00  0.00     0.063 A 
HETATM    5  N   UNL     1      38.553 -10.646  -0.746  1.00  0.00    -0.277 N 
HETATM    6  H   UNL     1      38.082  -9.752  -0.670  1.00  0.00     0.189 HD
HETATM    7  N   UNL     1      38.985 -11.036  -1.956  1.00  0.00    -0.168 NA
HETATM    8  C   UNL     1      39.554 -12.241  -1.723  1.00  0.00     0.156 A 
HETATM    9  C   UNL     1      38.612 -11.446   1.643  1.00  0.00     0.034 A 
HETATM   10  C   UNL     1      39.051 -12.527   2.416  1.00  0.00     0.032 A 
ENDROOT
BRANCH   1  11
HETATM   11  N   UNL     1      40.049 -14.689   2.703  1.00  0.00    -0.327 N 
HETATM   12  C   UNL     1      41.319 -14.858   3.234  1.00  0.00     0.231 C 
HETATM   13  O   UNL     1      42.285 -14.159   2.934  1.00  0.00    -0.272 OA
HETATM   14  H   UNL     1      39.395 -15.453   2.821  1.00  0.00     0.169 HD
BRANCH  12  15
HETATM   15  C   UNL     1      41.424 -15.949   4.329  1.00  0.00     0.115 C 
BRANCH  15  16
HETATM   16  C   UNL     1      41.483 -15.413   5.798  1.00  0.00    -0.001 C 
HETATM   17  C   UNL     1      40.153 -15.653   6.530  1.00  0.00     0.011 C 
BRANCH  16  18
HETATM   18  C   UNL     1      41.939 -13.940   5.909  1.00  0.00     0.001 C 
HETATM   19  C   UNL     1      43.272 -13.759   6.627  1.00  0.00     0.005 C 
ENDBRANCH  16  18
ENDBRANCH  15  16
BRANCH  15  20
HETATM   20  C   UNL     1      42.483 -17.029   4.086  1.00  0.00    -0.045 A 
HETATM   21  C   UNL     1      42.605 -17.591   2.804  1.00  0.00     0.008 A 
HETATM   22  C   UNL     1      43.569 -18.565   2.540  1.00  0.00     0.001 A 
HETATM   23  C   UNL     1      44.420 -18.996   3.553  1.00  0.00     0.000 A 
HETATM   24  C   UNL     1      44.306 -18.457   4.832  1.00  0.00     0.001 A 
HETATM   25  C   UNL     1      43.343 -17.481   5.100  1.00  0.00     0.008 A 
ENDBRANCH  15  20
ENDBRANCH  12  15
ENDBRANCH   1  11
BRANCH   8  26
HETATM   26  C   UNL     1      40.204 -12.997  -2.803  1.00  0.00     0.270 C 
HETATM   27  N   UNL     1      41.487 -12.598  -3.069  1.00  0.00    -0.365 N 
HETATM   28  H   UNL     1      41.891 -11.864  -2.500  1.00  0.00     0.159 HD
HETATM   29  H   UNL     1      42.031 -13.099  -3.753  1.00  0.00     0.159 HD
HETATM   30  O   UNL     1      39.689 -13.925  -3.417  1.00  0.00    -0.266 OA
ENDBRANCH   8  26
TORSDOF 6
ENDMDL
MODEL 5
REMARK VINA RESULT:      -8.2      5.381      8.346
REMARK  6 active torsions:
REMARK  status: ('A' for Active; 'I' for Inactive)
REMARK    1  A    between atoms: C_2  and  C_3 
REMARK    2  A    between atoms: C_3  and  C_4 
REMARK    3  A    between atoms: C_4  and  C_5 
REMARK    4  A    between atoms: C_4  and  C_21 
REMARK       I    between atoms: C_5  and  N_6 
REMARK    5  A    between atoms: N_6  and  C_7 
REMARK    6  A    between atoms: C_14  and  C_15 
REMARK       I    between atoms: C_15  and  N_16 
ROOT
HETATM    1  C   UNL     1      44.272 -11.956   6.572  1.00  0.00     0.035 A 
HETATM    2  C   UNL     1      43.467 -11.399   7.575  1.00  0.00     0.046 A 
HETATM    3  C   UNL     1      44.034 -10.489   8.493  1.00  0.00     0.030 A 
HETATM    4  C   UNL     1      45.392 -10.207   8.405  1.00  0.00     0.063 A 
HETATM    5  N   UNL     1      45.648  -9.339   9.429  1.00  0.00    -0.277 N 
HETATM    6  H   UNL     1      46.543  -8.936   9.682  1.00  0.00     0.189 HD
HETATM    7  N   UNL     1      44.567  -8.984  10.142  1.00  0.00    -0.168 NA
HETATM    8  C   UNL     1      43.558  -9.679   9.568  1.00  0.00     0.156 A 
HETATM    9  C   UNL     1      46.223 -10.750   7.422  1.00  0.00     0.034 A 
HETATM   10  C   UNL     1      45.626 -11.609   6.491  1.00  0.00     0.032 A 
ENDROOT
BRANCH   1  11
HETATM   11  N   UNL     1      43.769 -12.825   5.582  1.00  0.00    -0.327 N 
HETATM   12  C   UNL     1      43.292 -14.112   5.784  1.00  0.00     0.231 C 
HETATM   13  O   UNL     1      43.333 -14.695   6.866  1.00  0.00    -0.272 OA
HETATM   14  H   UNL     1      43.915 -12.533   4.624  1.00  0.00     0.169 HD
BRANCH  12  15
HETATM   15  C   UNL     1      42.600 -14.748   4.553  1.00  0.00     0.115 C 
BRANCH  15  16
HETATM   16  C   UNL     1      41.036 -14.750   4.597  1.00  0.00    -0.001 C 
HETATM   17  C   UNL     1      40.498 -13.491   5.294  1.00  0.00     0.011 C 
BRANCH  16  18
HETATM   18  C   UNL     1      40.429 -16.040   5.196  1.00  0.00     0.001 C 
HETATM   19  C   UNL     1      40.103 -15.937   6.682  1.00  0.00     0.005 C 
ENDBRANCH  16  18
ENDBRANCH  15  16
BRANCH  15  20
HETATM   20  C   UNL     1      43.148 -16.110   4.117  1.00  0.00    -0.045 A 
HETATM   21  C   UNL     1      42.916 -16.551   2.803  1.00  0.00     0.008 A 
HETATM   22  C   UNL     1      43.414 -17.779   2.363  1.00  0.00     0.001 A 
HETATM   23  C   UNL     1      44.144 -18.586   3.231  1.00  0.00     0.000 A 
HETATM   24  C   UNL     1      44.374 -18.168   4.539  1.00  0.00     0.001 A 
HETATM   25  C   UNL     1      43.879 -16.939   4.982  1.00  0.00     0.008 A 
ENDBRANCH  15  20
ENDBRANCH  12  15
ENDBRANCH   1  11
BRANCH   8  26
HETATM   26  C   UNL     1      42.172  -9.531  10.032  1.00  0.00     0.270 C 
HETATM   27  N   UNL     1      41.905 -10.176  11.210  1.00  0.00    -0.365 N 
HETATM   28  H   UNL     1      42.663 -10.661  11.677  1.00  0.00     0.159 HD
HETATM   29  H   UNL     1      40.996 -10.080  11.634  1.00  0.00     0.159 HD
HETATM   30  O   UNL     1      41.308  -8.875   9.460  1.00  0.00    -0.266 OA
ENDBRANCH   8  26
TORSDOF 6
ENDMDL
MODEL 6
REMARK VINA RESULT:      -8.0      2.581      7.977
REMARK  6 active torsions:
REMARK  status: ('A' for Active; 'I' for Inactive)
REMARK    1  A    between atoms: C_2  and  C_3 
REMARK    2  A    between atoms: C_3  and  C_4 
REMARK    3  A    between atoms: C_4  and  C_5 
REMARK    4  A    between atoms: C_4  and  C_21 
REMARK       I    between atoms: C_5  and  N_6 
REMARK    5  A    between atoms: N_6  and  C_7 
REMARK    6  A    between atoms: C_14  and  C_15 
REMARK       I    between atoms: C_15  and  N_16 
ROOT
HETATM    1  C   UNL     1      42.733 -15.343   2.141  1.00  0.00     0.035 A 
HETATM    2  C   UNL     1      42.941 -16.715   1.942  1.00  0.00     0.046 A 
HETATM    3  C   UNL     1      43.380 -17.512   3.022  1.00  0.00     0.030 A 
HETATM    4  C   UNL     1      43.641 -16.901   4.243  1.00  0.00     0.063 A 
HETATM    5  N   UNL     1      44.075 -17.905   5.062  1.00  0.00    -0.277 N 
HETATM    6  H   UNL     1      44.376 -17.822   6.027  1.00  0.00     0.189 HD
HETATM    7  N   UNL     1      44.065 -19.126   4.503  1.00  0.00    -0.168 NA
HETATM    8  C   UNL     1      43.628 -18.900   3.243  1.00  0.00     0.156 A 
HETATM    9  C   UNL     1      43.451 -15.537   4.471  1.00  0.00     0.034 A 
HETATM   10  C   UNL     1      42.965 -14.776   3.400  1.00  0.00     0.032 A 
ENDROOT
BRANCH   1  11
HETATM   11  N   UNL     1      42.240 -14.491   1.131  1.00  0.00    -0.327 N 
HETATM   12  C   UNL     1      40.905 -14.236   0.851  1.00  0.00     0.231 C 
HETATM   13  O   UNL     1      39.968 -14.805   1.408  1.00  0.00    -0.272 OA
HETATM   14  H   UNL     1      42.922 -14.160   0.462  1.00  0.00     0.169 HD
BRANCH  12  15
HETATM   15  C   UNL     1      40.663 -13.092  -0.164  1.00  0.00     0.115 C 
BRANCH  15  16
HETATM   16  C   UNL     1      40.512 -11.666   0.465  1.00  0.00    -0.001 C 
HETATM   17  C   UNL     1      41.345 -10.629  -0.303  1.00  0.00     0.011 C 
BRANCH  16  18
HETATM   18  C   UNL     1      40.798 -11.619   1.984  1.00  0.00     0.001 C 
HETATM   19  C   UNL     1      42.114 -10.941   2.344  1.00  0.00     0.005 C 
ENDBRANCH  16  18
ENDBRANCH  15  16
BRANCH  15  20
HETATM   20  C   UNL     1      39.578 -13.357  -1.213  1.00  0.00    -0.045 A 
HETATM   21  C   UNL     1      38.411 -12.574  -1.202  1.00  0.00     0.008 A 
HETATM   22  C   UNL     1      37.408 -12.774  -2.152  1.00  0.00     0.001 A 
HETATM   23  C   UNL     1      37.553 -13.762  -3.120  1.00  0.00     0.000 A 
HETATM   24  C   UNL     1      38.698 -14.554  -3.139  1.00  0.00     0.001 A 
HETATM   25  C   UNL     1      39.705 -14.355  -2.191  1.00  0.00     0.008 A 
ENDBRANCH  15  20
ENDBRANCH  12  15
ENDBRANCH   1  11
BRANCH   8  26
HETATM   26  C   UNL     1      43.425 -20.008   2.298  1.00  0.00     0.270 C 
HETATM   27  N   UNL     1      44.572 -20.678   1.969  1.00  0.00    -0.365 N 
HETATM   28  H   UNL     1      45.439 -20.396   2.411  1.00  0.00     0.159 HD
HETATM   29  H   UNL     1      44.520 -21.489   1.374  1.00  0.00     0.159 HD
HETATM   30  O   UNL     1      42.339 -20.350   1.844  1.00  0.00    -0.266 OA
ENDBRANCH   8  26
TORSDOF 6
ENDMDL
MODEL 7
REMARK VINA RESULT:      -7.8      5.570      8.931
REMARK  6 active torsions:
REMARK  status: ('A' for Active; 'I' for Inactive)
REMARK    1  A    between atoms: C_2  and  C_3 
REMARK    2  A    between atoms: C_3  and  C_4 
REMARK    3  A    between atoms: C_4  and  C_5 
REMARK    4  A    between atoms: C_4  and  C_21 
REMARK       I    between atoms: C_5  and  N_6 
REMARK    5  A    between atoms: N_6  and  C_7 
REMARK    6  A    between atoms: C_14  and  C_15 
REMARK       I    between atoms: C_15  and  N_16 
ROOT
HETATM    1  C   UNL     1      44.098 -11.425   6.562  1.00  0.00     0.035 A 
HETATM    2  C   UNL     1      43.386 -11.052   7.711  1.00  0.00     0.046 A 
HETATM    3  C   UNL     1      44.072 -10.437   8.781  1.00  0.00     0.030 A 
HETATM    4  C   UNL     1      45.448 -10.264   8.684  1.00  0.00     0.063 A 
HETATM    5  N   UNL     1      45.823  -9.689   9.866  1.00  0.00    -0.277 N 
HETATM    6  H   UNL     1      46.762  -9.438  10.154  1.00  0.00     0.189 HD
HETATM    7  N   UNL     1      44.808  -9.417  10.701  1.00  0.00    -0.168 NA
HETATM    8  C   UNL     1      43.716  -9.865  10.039  1.00  0.00     0.156 A 
HETATM    9  C   UNL     1      46.186 -10.632   7.557  1.00  0.00     0.034 A 
HETATM   10  C   UNL     1      45.476 -11.191   6.488  1.00  0.00     0.032 A 
ENDROOT
BRANCH   1  11
HETATM   11  N   UNL     1      43.477 -11.988   5.428  1.00  0.00    -0.327 N 
HETATM   12  C   UNL     1      43.013 -13.290   5.307  1.00  0.00     0.231 C 
HETATM   13  O   UNL     1      43.168 -14.154   6.167  1.00  0.00    -0.272 OA
HETATM   14  H   UNL     1      43.518 -11.433   4.583  1.00  0.00     0.169 HD
BRANCH  12  15
HETATM   15  C   UNL     1      42.180 -13.564   4.030  1.00  0.00     0.115 C 
BRANCH  15  16
HETATM   16  C   UNL     1      40.641 -13.321   4.175  1.00  0.00    -0.001 C 
HETATM   17  C   UNL     1      40.203 -12.060   3.414  1.00  0.00     0.011 C 
BRANCH  16  18
HETATM   18  C   UNL     1      40.145 -13.306   5.640  1.00  0.00     0.001 C 
HETATM   19  C   UNL     1      39.639 -11.946   6.107  1.00  0.00     0.005 C 
ENDBRANCH  16  18
ENDBRANCH  15  16
BRANCH  15  20
HETATM   20  C   UNL     1      42.471 -14.892   3.324  1.00  0.00    -0.045 A 
HETATM   21  C   UNL     1      43.270 -14.891   2.168  1.00  0.00     0.008 A 
HETATM   22  C   UNL     1      43.572 -16.083   1.506  1.00  0.00     0.001 A 
HETATM   23  C   UNL     1      43.074 -17.290   1.986  1.00  0.00     0.000 A 
HETATM   24  C   UNL     1      42.272 -17.308   3.124  1.00  0.00     0.001 A 
HETATM   25  C   UNL     1      41.970 -16.118   3.790  1.00  0.00     0.008 A 
ENDBRANCH  15  20
ENDBRANCH  12  15
ENDBRANCH   1  11
BRANCH   8  26
HETATM   26  C   UNL     1      42.367  -9.708  10.602  1.00  0.00     0.270 C 
HETATM   27  N   UNL     1      42.147 -10.443  11.736  1.00  0.00    -0.365 N 
HETATM   28  H   UNL     1      42.910 -10.993  12.110  1.00  0.00     0.159 HD
HETATM   29  H   UNL     1      41.270 -10.352  12.224  1.00  0.00     0.159 HD
HETATM   30  O   UNL     1      41.499  -8.974  10.144  1.00  0.00    -0.266 OA
ENDBRANCH   8  26
TORSDOF 6
ENDMDL
MODEL 8
REMARK VINA RESULT:      -7.6      5.068      7.342
REMARK  6 active torsions:
REMARK  status: ('A' for Active; 'I' for Inactive)
REMARK    1  A    between atoms: C_2  and  C_3 
REMARK    2  A    between atoms: C_3  and  C_4 
REMARK    3  A    between atoms: C_4  and  C_5 
REMARK    4  A    between atoms: C_4  and  C_21 
REMARK       I    between atoms: C_5  and  N_6 
REMARK    5  A    between atoms: N_6  and  C_7 
REMARK    6  A    between atoms: C_14  and  C_15 
REMARK       I    between atoms: C_15  and  N_16 
ROOT
HETATM    1  C   UNL     1      43.180 -12.128   6.086  1.00  0.00     0.035 A 
HETATM    2  C   UNL     1      42.604 -10.873   6.328  1.00  0.00     0.046 A 
HETATM    3  C   UNL     1      43.303  -9.930   7.113  1.00  0.00     0.030 A 
HETATM    4  C   UNL     1      44.525 -10.293   7.666  1.00  0.00     0.063 A 
HETATM    5  N   UNL     1      44.931  -9.206   8.388  1.00  0.00    -0.277 N 
HETATM    6  H   UNL     1      45.774  -9.120   8.944  1.00  0.00     0.189 HD
HETATM    7  N   UNL     1      44.112  -8.145   8.307  1.00  0.00    -0.168 NA
HETATM    8  C   UNL     1      43.104  -8.575   7.514  1.00  0.00     0.156 A 
HETATM    9  C   UNL     1      45.122 -11.537   7.450  1.00  0.00     0.034 A 
HETATM   10  C   UNL     1      44.434 -12.436   6.625  1.00  0.00     0.032 A 
ENDROOT
BRANCH   1  11
HETATM   11  N   UNL     1      42.574 -13.101   5.265  1.00  0.00    -0.327 N 
HETATM   12  C   UNL     1      42.892 -13.372   3.942  1.00  0.00     0.231 C 
HETATM   13  O   UNL     1      43.700 -12.721   3.285  1.00  0.00    -0.272 OA
HETATM   14  H   UNL     1      41.734 -13.528   5.634  1.00  0.00     0.169 HD
BRANCH  12  15
HETATM   15  C   UNL     1      42.217 -14.640   3.360  1.00  0.00     0.115 C 
BRANCH  15  16
HETATM   16  C   UNL     1      40.692 -14.786   3.679  1.00  0.00    -0.001 C 
HETATM   17  C   UNL     1      40.394 -16.128   4.365  1.00  0.00     0.011 C 
BRANCH  16  18
HETATM   18  C   UNL     1      39.771 -14.551   2.459  1.00  0.00     0.001 C 
HETATM   19  C   UNL     1      40.169 -15.348   1.222  1.00  0.00     0.005 C 
ENDBRANCH  16  18
ENDBRANCH  15  16
BRANCH  15  20
HETATM   20  C   UNL     1      42.966 -15.955   3.597  1.00  0.00    -0.045 A 
HETATM   21  C   UNL     1      43.563 -16.186   4.848  1.00  0.00     0.008 A 
HETATM   22  C   UNL     1      44.239 -17.379   5.107  1.00  0.00     0.001 A 
HETATM   23  C   UNL     1      44.334 -18.355   4.120  1.00  0.00     0.000 A 
HETATM   24  C   UNL     1      43.757 -18.138   2.871  1.00  0.00     0.001 A 
HETATM   25  C   UNL     1      43.078 -16.945   2.608  1.00  0.00     0.008 A 
ENDBRANCH  15  20
ENDBRANCH  12  15
ENDBRANCH   1  11
BRANCH   8  26
HETATM   26  C   UNL     1      42.003  -7.679   7.131  1.00  0.00     0.270 C 
HETATM   27  N   UNL     1      40.778  -8.067   7.603  1.00  0.00    -0.365 N 
HETATM   28  H   UNL     1      40.727  -8.892   8.190  1.00  0.00     0.159 HD
HETATM   29  H   UNL     1      39.975  -7.482   7.440  1.00  0.00     0.159 HD
HETATM   30  O   UNL     1      42.132  -6.653   6.472  1.00  0.00    -0.266 OA
ENDBRANCH   8  26
TORSDOF 6
ENDMDL
MODEL 9
REMARK VINA RESULT:      -7.4      5.026      7.544
REMARK  6 active torsions:
REMARK  status: ('A' for Active; 'I' for Inactive)
REMARK    1  A    between atoms: C_2  and  C_3 
REMARK    2  A    between atoms: C_3  and  C_4 
REMARK    3  A    between atoms: C_4  and  C_5 
REMARK    4  A    between atoms: C_4  and  C_21 
REMARK       I    between atoms: C_5  and  N_6 
REMARK    5  A    between atoms: N_6  and  C_7 
REMARK    6  A    between atoms: C_14  and  C_15 
REMARK       I    between atoms: C_15  and  N_16 
ROOT
HETATM    1  C   UNL     1      43.094 -11.819   5.616  1.00  0.00     0.035 A 
HETATM    2  C   UNL     1      43.612 -11.555   6.891  1.00  0.00     0.046 A 
HETATM    3  C   UNL     1      43.232 -10.371   7.561  1.00  0.00     0.030 A 
HETATM    4  C   UNL     1      42.390  -9.475   6.913  1.00  0.00     0.063 A 
HETATM    5  N   UNL     1      42.237  -8.432   7.782  1.00  0.00    -0.277 N 
HETATM    6  H   UNL     1      41.702  -7.584   7.634  1.00  0.00     0.189 HD
HETATM    7  N   UNL     1      42.856  -8.593   8.962  1.00  0.00    -0.168 NA
HETATM    8  C   UNL     1      43.469  -9.794   8.845  1.00  0.00     0.156 A 
HETATM    9  C   UNL     1      41.863  -9.706   5.641  1.00  0.00     0.034 A 
HETATM   10  C   UNL     1      42.212 -10.911   5.018  1.00  0.00     0.032 A 
ENDROOT
BRANCH   1  11
HETATM   11  N   UNL     1      43.376 -13.005   4.907  1.00  0.00    -0.327 N 
HETATM   12  C   UNL     1      42.524 -14.089   4.746  1.00  0.00     0.231 C 
HETATM   13  O   UNL     1      41.425 -14.182   5.290  1.00  0.00    -0.272 OA
HETATM   14  H   UNL     1      44.339 -13.131   4.625  1.00  0.00     0.169 HD
BRANCH  12  15
HETATM   15  C   UNL     1      43.016 -15.156   3.737  1.00  0.00     0.115 C 
BRANCH  15  16
HETATM   16  C   UNL     1      42.177 -15.261   2.420  1.00  0.00    -0.001 C 
HETATM   17  C   UNL     1      42.044 -13.892   1.734  1.00  0.00     0.011 C 
BRANCH  16  18
HETATM   18  C   UNL     1      40.802 -15.944   2.606  1.00  0.00     0.001 C 
HETATM   19  C   UNL     1      39.917 -15.899   1.367  1.00  0.00     0.005 C 
ENDBRANCH  16  18
ENDBRANCH  15  16
BRANCH  15  20
HETATM   20  C   UNL     1      43.306 -16.539   4.326  1.00  0.00    -0.045 A 
HETATM   21  C   UNL     1      43.734 -17.570   3.472  1.00  0.00     0.008 A 
HETATM   22  C   UNL     1      44.024 -18.840   3.974  1.00  0.00     0.001 A 
HETATM   23  C   UNL     1      43.885 -19.100   5.334  1.00  0.00     0.000 A 
HETATM   24  C   UNL     1      43.452 -18.092   6.193  1.00  0.00     0.001 A 
HETATM   25  C   UNL     1      43.162 -16.820   5.694  1.00  0.00     0.008 A 
ENDBRANCH  15  20
ENDBRANCH  12  15
ENDBRANCH   1  11
BRANCH   8  26
HETATM   26  C   UNL     1      44.229 -10.373   9.962  1.00  0.00     0.270 C 
HETATM   27  N   UNL     1      45.425  -9.752  10.204  1.00  0.00    -0.365 N 
HETATM   28  H   UNL     1      45.673  -8.948   9.640  1.00  0.00     0.159 HD
HETATM   29  H   UNL     1      45.986 -10.044  10.988  1.00  0.00     0.159 HD
HETATM   30  O   UNL     1      43.849 -11.309  10.656  1.00  0.00    -0.266 OA
ENDBRANCH   8  26
TORSDOF 6
ENDMDL
MODEL 10
REMARK VINA RESULT:      -7.4     14.406     16.563
REMARK  6 active torsions:
REMARK  status: ('A' for Active; 'I' for Inactive)
REMARK    1  A    between atoms: C_2  and  C_3 
REMARK    2  A    between atoms: C_3  and  C_4 
REMARK    3  A    between atoms: C_4  and  C_5 
REMARK    4  A    between atoms: C_4  and  C_21 
REMARK       I    between atoms: C_5  and  N_6 
REMARK    5  A    between atoms: N_6  and  C_7 
REMARK    6  A    between atoms: C_14  and  C_15 
REMARK       I    between atoms: C_15  and  N_16 
ROOT
HETATM    1  C   UNL     1      42.292 -31.265   2.149  1.00  0.00     0.035 A 
HETATM    2  C   UNL     1      42.419 -31.206   3.544  1.00  0.00     0.046 A 
HETATM    3  C   UNL     1      41.316 -31.551   4.355  1.00  0.00     0.030 A 
HETATM    4  C   UNL     1      40.116 -31.892   3.743  1.00  0.00     0.063 A 
HETATM    5  N   UNL     1      39.245 -32.134   4.768  1.00  0.00    -0.277 N 
HETATM    6  H   UNL     1      38.266 -32.390   4.694  1.00  0.00     0.189 HD
HETATM    7  N   UNL     1      39.785 -32.038   5.993  1.00  0.00    -0.168 NA
HETATM    8  C   UNL     1      41.070 -31.688   5.754  1.00  0.00     0.156 A 
HETATM    9  C   UNL     1      39.955 -31.952   2.357  1.00  0.00     0.034 A 
HETATM   10  C   UNL     1      41.078 -31.657   1.574  1.00  0.00     0.032 A 
ENDROOT
BRANCH   1  11
HETATM   11  N   UNL     1      43.363 -30.994   1.272  1.00  0.00    -0.327 N 
HETATM   12  C   UNL     1      43.595 -29.802   0.602  1.00  0.00     0.231 C 
HETATM   13  O   UNL     1      42.827 -28.842   0.627  1.00  0.00    -0.272 OA
HETATM   14  H   UNL     1      43.918 -31.794   0.995  1.00  0.00     0.169 HD
BRANCH  12  15
HETATM   15  C   UNL     1      44.964 -29.719  -0.118  1.00  0.00     0.115 C 
BRANCH  15  16
HETATM   16  C   UNL     1      46.049 -28.860   0.612  1.00  0.00    -0.001 C 
HETATM   17  C   UNL     1      47.466 -29.328   0.249  1.00  0.00     0.011 C 
BRANCH  16  18
HETATM   18  C   UNL     1      45.850 -28.770   2.143  1.00  0.00     0.001 C 
HETATM   19  C   UNL     1      46.566 -29.865   2.924  1.00  0.00     0.005 C 
ENDBRANCH  16  18
ENDBRANCH  15  16
BRANCH  15  20
HETATM   20  C   UNL     1      44.905 -29.391  -1.614  1.00  0.00    -0.045 A 
HETATM   21  C   UNL     1      44.523 -30.395  -2.519  1.00  0.00     0.008 A 
HETATM   22  C   UNL     1      44.441 -30.130  -3.887  1.00  0.00     0.001 A 
HETATM   23  C   UNL     1      44.746 -28.861  -4.370  1.00  0.00     0.000 A 
HETATM   24  C   UNL     1      45.136 -27.857  -3.487  1.00  0.00     0.001 A 
HETATM   25  C   UNL     1      45.218 -28.119  -2.117  1.00  0.00     0.008 A 
ENDBRANCH  15  20
ENDBRANCH  12  15
ENDBRANCH   1  11
BRANCH   8  26
HETATM   26  C   UNL     1      42.032 -31.528   6.853  1.00  0.00     0.270 C 
HETATM   27  N   UNL     1      43.316 -31.870   6.525  1.00  0.00    -0.365 N 
HETATM   28  H   UNL     1      43.509 -32.165   5.574  1.00  0.00     0.159 HD
HETATM   29  H   UNL     1      44.054 -31.737   7.198  1.00  0.00     0.159 HD
HETATM   30  O   UNL     1      41.756 -31.102   7.970  1.00  0.00    -0.266 OA
ENDBRANCH   8  26
TORSDOF 6
ENDMDL
