MODEL 1
REMARK VINA RESULT:      -8.7      0.000      0.000
REMARK  5 active torsions:
REMARK  status: ('A' for Active; 'I' for Inactive)
REMARK    1  A    between atoms: C_3  and  C_4 
REMARK    2  A    between atoms: C_4  and  N_5 
REMARK    3  A    between atoms: C_9  and  C_10 
REMARK    4  A    between atoms: C_13  and  C_14 
REMARK    5  A    between atoms: C_14  and  N_15 
ROOT
HETATM    1  N   UNL     1      42.342 -16.188   2.011  1.00  0.00    -0.067 N 
HETATM    2  H   UNL     1      41.992 -16.639   1.156  1.00  0.00     0.280 HD
HETATM    3  C   UNL     1      41.398 -16.554   3.132  1.00  0.00     0.236 C 
HETATM    4  C   UNL     1      40.032 -15.907   2.926  1.00  0.00     0.040 C 
HETATM    5  C   UNL     1      40.105 -14.389   2.741  1.00  0.00     0.060 C 
HETATM    6  C   UNL     1      41.079 -14.064   1.601  1.00  0.00     0.040 C 
HETATM    7  C   UNL     1      42.452 -14.706   1.764  1.00  0.00     0.236 C 
ENDROOT
BRANCH   5   8
HETATM    8  C   UNL     1      40.496 -13.704   4.022  1.00  0.00     0.134 A 
HETATM    9  N   UNL     1      40.762 -12.363   4.192  1.00  0.00    -0.323 N 
HETATM   10  C   UNL     1      40.717 -11.338   3.177  1.00  0.00     0.159 C 
HETATM   11  C   UNL     1      41.070 -12.207   5.522  1.00  0.00     0.155 A 
HETATM   12  N   UNL     1      40.964 -13.375   6.122  1.00  0.00    -0.133 NA
HETATM   13  N   UNL     1      40.615 -14.302   5.189  1.00  0.00    -0.134 NA
BRANCH  11  14
HETATM   14  C   UNL     1      41.460 -10.944   6.216  1.00  0.00     0.315 C 
BRANCH  14  15
HETATM   15  N   UNL     1      42.766 -11.121   6.972  1.00  0.00    -0.064 N 
HETATM   16  H   UNL     1      42.641 -12.006   7.491  1.00  0.00     0.280 HD
HETATM   17  C   UNL     1      43.945 -11.338   6.051  1.00  0.00     0.235 C 
HETATM   18  C   UNL     1      45.168 -11.708   6.876  1.00  0.00     0.028 C 
HETATM   19  C   UNL     1      45.469 -10.655   7.937  1.00  0.00     0.003 C 
HETATM   20  C   UNL     1      44.249 -10.387   8.810  1.00  0.00     0.028 C 
HETATM   21  C   UNL     1      43.022 -10.032   7.981  1.00  0.00     0.235 C 
ENDBRANCH  14  15
ENDBRANCH  11  14
ENDBRANCH   5   8
BRANCH   1  22
HETATM   22  C   UNL     1      43.737 -16.766   2.241  1.00  0.00     0.273 C 
BRANCH  22  23
HETATM   23  C   UNL     1      43.739 -18.148   2.841  1.00  0.00    -0.027 A 
HETATM   24  C   UNL     1      44.062 -18.400   4.191  1.00  0.00    -0.054 A 
HETATM   25  C   UNL     1      44.406 -17.329   5.192  1.00  0.00     0.049 C 
HETATM   26  C   UNL     1      44.086 -19.730   4.647  1.00  0.00     0.007 A 
HETATM   27  C   UNL     1      43.779 -20.791   3.798  1.00  0.00     0.001 A 
HETATM   28  C   UNL     1      43.441 -20.545   2.474  1.00  0.00     0.001 A 
HETATM   29  C   UNL     1      43.421 -19.235   1.999  1.00  0.00     0.009 A 
ENDBRANCH  22  23
ENDBRANCH   1  22
TORSDOF 5
ENDMDL
MODEL 2
REMARK VINA RESULT:      -8.7      2.644      6.033
REMARK  5 active torsions:
REMARK  status: ('A' for Active; 'I' for Inactive)
REMARK    1  A    between atoms: C_3  and  C_4 
REMARK    2  A    between atoms: C_4  and  N_5 
REMARK    3  A    between atoms: C_9  and  C_10 
REMARK    4  A    between atoms: C_13  and  C_14 
REMARK    5  A    between atoms: C_14  and  N_15 
ROOT
HETATM    1  N   UNL     1      43.132 -16.313   5.694  1.00  0.00    -0.067 N 
HETATM    2  H   UNL     1      43.199 -16.396   6.716  1.00  0.00     0.280 HD
HETATM    3  C   UNL     1      43.115 -14.839   5.361  1.00  0.00     0.236 C 
HETATM    4  C   UNL     1      41.828 -14.186   5.853  1.00  0.00     0.040 C 
HETATM    5  C   UNL     1      40.563 -14.881   5.339  1.00  0.00     0.060 C 
HETATM    6  C   UNL     1      40.627 -16.373   5.691  1.00  0.00     0.040 C 
HETATM    7  C   UNL     1      41.908 -17.059   5.228  1.00  0.00     0.236 C 
ENDROOT
BRANCH   5   8
HETATM    8  C   UNL     1      40.386 -14.662   3.861  1.00  0.00     0.134 A 
HETATM    9  N   UNL     1      40.310 -13.449   3.212  1.00  0.00    -0.323 N 
HETATM   10  C   UNL     1      40.389 -12.140   3.814  1.00  0.00     0.159 C 
HETATM   11  C   UNL     1      40.150 -13.747   1.879  1.00  0.00     0.155 A 
HETATM   12  N   UNL     1      40.163 -15.057   1.732  1.00  0.00    -0.133 NA
HETATM   13  N   UNL     1      40.302 -15.621   2.963  1.00  0.00    -0.134 NA
BRANCH  11  14
HETATM   14  C   UNL     1      39.991 -12.783   0.752  1.00  0.00     0.315 C 
BRANCH  14  15
HETATM   15  N   UNL     1      39.175 -13.393  -0.375  1.00  0.00    -0.064 N 
HETATM   16  H   UNL     1      38.511 -14.023   0.105  1.00  0.00     0.280 HD
HETATM   17  C   UNL     1      38.333 -12.370  -1.102  1.00  0.00     0.235 C 
HETATM   18  C   UNL     1      37.399 -13.080  -2.070  1.00  0.00     0.028 C 
HETATM   19  C   UNL     1      38.169 -13.968  -3.041  1.00  0.00     0.003 C 
HETATM   20  C   UNL     1      39.075 -14.944  -2.299  1.00  0.00     0.028 C 
HETATM   21  C   UNL     1      39.997 -14.231  -1.319  1.00  0.00     0.235 C 
ENDBRANCH  14  15
ENDBRANCH  11  14
ENDBRANCH   5   8
BRANCH   1  22
HETATM   22  C   UNL     1      44.380 -16.998   5.142  1.00  0.00     0.273 C 
BRANCH  22  23
HETATM   23  C   UNL     1      44.093 -18.215   4.302  1.00  0.00    -0.027 A 
HETATM   24  C   UNL     1      43.672 -18.139   2.958  1.00  0.00    -0.054 A 
HETATM   25  C   UNL     1      43.495 -16.851   2.199  1.00  0.00     0.049 C 
HETATM   26  C   UNL     1      43.378 -19.330   2.269  1.00  0.00     0.007 A 
HETATM   27  C   UNL     1      43.515 -20.573   2.884  1.00  0.00     0.001 A 
HETATM   28  C   UNL     1      43.948 -20.651   4.200  1.00  0.00     0.001 A 
HETATM   29  C   UNL     1      44.235 -19.483   4.904  1.00  0.00     0.009 A 
ENDBRANCH  22  23
ENDBRANCH   1  22
TORSDOF 5
ENDMDL
MODEL 3
REMARK VINA RESULT:      -8.6      1.137      1.999
REMARK  5 active torsions:
REMARK  status: ('A' for Active; 'I' for Inactive)
REMARK    1  A    between atoms: C_3  and  C_4 
REMARK    2  A    between atoms: C_4  and  N_5 
REMARK    3  A    between atoms: C_9  and  C_10 
REMARK    4  A    between atoms: C_13  and  C_14 
REMARK    5  A    between atoms: C_14  and  N_15 
ROOT
HETATM    1  N   UNL     1      42.211 -16.934   2.610  1.00  0.00    -0.067 N 
HETATM    2  H   UNL     1      41.611 -17.749   2.433  1.00  0.00     0.280 HD
HETATM    3  C   UNL     1      41.766 -16.322   3.918  1.00  0.00     0.236 C 
HETATM    4  C   UNL     1      40.374 -15.713   3.788  1.00  0.00     0.040 C 
HETATM    5  C   UNL     1      40.261 -14.705   2.641  1.00  0.00     0.060 C 
HETATM    6  C   UNL     1      40.730 -15.364   1.338  1.00  0.00     0.040 C 
HETATM    7  C   UNL     1      42.113 -15.998   1.433  1.00  0.00     0.236 C 
ENDROOT
BRANCH   5   8
HETATM    8  C   UNL     1      41.036 -13.450   2.943  1.00  0.00     0.134 A 
HETATM    9  N   UNL     1      40.927 -12.666   4.071  1.00  0.00    -0.323 N 
HETATM   10  C   UNL     1      40.050 -12.888   5.196  1.00  0.00     0.159 C 
HETATM   11  C   UNL     1      41.826 -11.640   3.902  1.00  0.00     0.155 A 
HETATM   12  N   UNL     1      42.459 -11.814   2.760  1.00  0.00    -0.133 NA
HETATM   13  N   UNL     1      41.963 -12.933   2.165  1.00  0.00    -0.134 NA
BRANCH  11  14
HETATM   14  C   UNL     1      42.079 -10.501   4.833  1.00  0.00     0.315 C 
BRANCH  14  15
HETATM   15  N   UNL     1      42.968 -10.931   5.988  1.00  0.00    -0.064 N 
HETATM   16  H   UNL     1      42.520 -11.790   6.347  1.00  0.00     0.280 HD
HETATM   17  C   UNL     1      44.352 -11.337   5.534  1.00  0.00     0.235 C 
HETATM   18  C   UNL     1      45.109 -11.944   6.706  1.00  0.00     0.028 C 
HETATM   19  C   UNL     1      45.163 -10.989   7.893  1.00  0.00     0.003 C 
HETATM   20  C   UNL     1      43.767 -10.523   8.292  1.00  0.00     0.028 C 
HETATM   21  C   UNL     1      43.006  -9.931   7.113  1.00  0.00     0.235 C 
ENDBRANCH  14  15
ENDBRANCH  11  14
ENDBRANCH   5   8
BRANCH   1  22
HETATM   22  C   UNL     1      43.634 -17.481   2.702  1.00  0.00     0.273 C 
BRANCH  22  23
HETATM   23  C   UNL     1      43.760 -18.728   3.537  1.00  0.00    -0.027 A 
HETATM   24  C   UNL     1      43.714 -20.028   2.991  1.00  0.00    -0.054 A 
HETATM   25  C   UNL     1      43.569 -20.322   1.521  1.00  0.00     0.049 C 
HETATM   26  C   UNL     1      43.789 -21.133   3.858  1.00  0.00     0.007 A 
HETATM   27  C   UNL     1      43.927 -20.964   5.233  1.00  0.00     0.001 A 
HETATM   28  C   UNL     1      43.993 -19.687   5.772  1.00  0.00     0.001 A 
HETATM   29  C   UNL     1      43.910 -18.578   4.932  1.00  0.00     0.009 A 
ENDBRANCH  22  23
ENDBRANCH   1  22
TORSDOF 5
ENDMDL
MODEL 4
REMARK VINA RESULT:      -8.4      3.714      6.726
REMARK  5 active torsions:
REMARK  status: ('A' for Active; 'I' for Inactive)
REMARK    1  A    between atoms: C_3  and  C_4 
REMARK    2  A    between atoms: C_4  and  N_5 
REMARK    3  A    between atoms: C_9  and  C_10 
REMARK    4  A    between atoms: C_13  and  C_14 
REMARK    5  A    between atoms: C_14  and  N_15 
ROOT
HETATM    1  N   UNL     1      42.693 -16.251   2.699  1.00  0.00    -0.067 N 
HETATM    2  H   UNL     1      42.936 -16.187   3.695  1.00  0.00     0.280 HD
HETATM    3  C   UNL     1      43.209 -15.000   2.027  1.00  0.00     0.236 C 
HETATM    4  C   UNL     1      42.437 -13.772   2.498  1.00  0.00     0.040 C 
HETATM    5  C   UNL     1      40.922 -13.908   2.322  1.00  0.00     0.060 C 
HETATM    6  C   UNL     1      40.444 -15.192   3.011  1.00  0.00     0.040 C 
HETATM    7  C   UNL     1      41.203 -16.441   2.576  1.00  0.00     0.236 C 
ENDROOT
BRANCH   5   8
HETATM    8  C   UNL     1      40.540 -13.878   0.867  1.00  0.00     0.134 A 
HETATM    9  N   UNL     1      40.704 -12.825  -0.006  1.00  0.00    -0.323 N 
HETATM   10  C   UNL     1      41.279 -11.536   0.293  1.00  0.00     0.159 C 
HETATM   11  C   UNL     1      40.213 -13.260  -1.215  1.00  0.00     0.155 A 
HETATM   12  N   UNL     1      39.810 -14.508  -1.084  1.00  0.00    -0.133 NA
HETATM   13  N   UNL     1      40.008 -14.886   0.208  1.00  0.00    -0.134 NA
BRANCH  11  14
HETATM   14  C   UNL     1      40.136 -12.486  -2.488  1.00  0.00     0.315 C 
BRANCH  14  15
HETATM   15  N   UNL     1      39.024 -11.452  -2.429  1.00  0.00    -0.064 N 
HETATM   16  H   UNL     1      39.071 -11.085  -1.463  1.00  0.00     0.280 HD
HETATM   17  C   UNL     1      39.281 -10.272  -3.339  1.00  0.00     0.235 C 
HETATM   18  C   UNL     1      38.240  -9.195  -3.073  1.00  0.00     0.028 C 
HETATM   19  C   UNL     1      36.823  -9.733  -3.234  1.00  0.00     0.003 C 
HETATM   20  C   UNL     1      36.600 -10.970  -2.371  1.00  0.00     0.028 C 
HETATM   21  C   UNL     1      37.652 -12.040  -2.627  1.00  0.00     0.235 C 
ENDBRANCH  14  15
ENDBRANCH  11  14
ENDBRANCH   5   8
BRANCH   1  22
HETATM   22  C   UNL     1      43.405 -17.500   2.182  1.00  0.00     0.273 C 
BRANCH  22  23
HETATM   23  C   UNL     1      43.633 -18.556   3.230  1.00  0.00    -0.027 A 
HETATM   24  C   UNL     1      43.711 -19.933   2.933  1.00  0.00    -0.054 A 
HETATM   25  C   UNL     1      43.611 -20.503   1.543  1.00  0.00     0.049 C 
HETATM   26  C   UNL     1      43.875 -20.849   3.987  1.00  0.00     0.007 A 
HETATM   27  C   UNL     1      43.982 -20.418   5.308  1.00  0.00     0.001 A 
HETATM   28  C   UNL     1      43.925 -19.064   5.603  1.00  0.00     0.001 A 
HETATM   29  C   UNL     1      43.753 -18.140   4.574  1.00  0.00     0.009 A 
ENDBRANCH  22  23
ENDBRANCH   1  22
TORSDOF 5
ENDMDL
MODEL 5
REMARK VINA RESULT:      -8.4      1.728      2.740
REMARK  5 active torsions:
REMARK  status: ('A' for Active; 'I' for Inactive)
REMARK    1  A    between atoms: C_3  and  C_4 
REMARK    2  A    between atoms: C_4  and  N_5 
REMARK    3  A    between atoms: C_9  and  C_10 
REMARK    4  A    between atoms: C_13  and  C_14 
REMARK    5  A    between atoms: C_14  and  N_15 
ROOT
HETATM    1  N   UNL     1      42.406 -16.169   4.797  1.00  0.00    -0.067 N 
HETATM    2  H   UNL     1      41.771 -16.902   4.458  1.00  0.00     0.280 HD
HETATM    3  C   UNL     1      41.928 -15.757   6.170  1.00  0.00     0.236 C 
HETATM    4  C   UNL     1      40.582 -15.046   6.087  1.00  0.00     0.040 C 
HETATM    5  C   UNL     1      40.587 -13.854   5.125  1.00  0.00     0.060 C 
HETATM    6  C   UNL     1      41.086 -14.315   3.750  1.00  0.00     0.040 C 
HETATM    7  C   UNL     1      42.424 -15.044   3.794  1.00  0.00     0.236 C 
ENDROOT
BRANCH   5   8
HETATM    8  C   UNL     1      41.415 -12.721   5.670  1.00  0.00     0.134 A 
HETATM    9  N   UNL     1      40.951 -11.614   6.346  1.00  0.00    -0.323 N 
HETATM   10  C   UNL     1      39.579 -11.313   6.675  1.00  0.00     0.159 C 
HETATM   11  C   UNL     1      42.065 -10.864   6.644  1.00  0.00     0.155 A 
HETATM   12  N   UNL     1      43.133 -11.497   6.204  1.00  0.00    -0.133 NA
HETATM   13  N   UNL     1      42.727 -12.645   5.595  1.00  0.00    -0.134 NA
BRANCH  11  14
HETATM   14  C   UNL     1      42.105  -9.551   7.351  1.00  0.00     0.315 C 
BRANCH  14  15
HETATM   15  N   UNL     1      42.697  -9.700   8.742  1.00  0.00    -0.064 N 
HETATM   16  H   UNL     1      42.819 -10.720   8.858  1.00  0.00     0.280 HD
HETATM   17  C   UNL     1      44.079  -9.097   8.852  1.00  0.00     0.235 C 
HETATM   18  C   UNL     1      44.683  -9.464  10.199  1.00  0.00     0.028 C 
HETATM   19  C   UNL     1      43.786  -9.029  11.353  1.00  0.00     0.003 C 
HETATM   20  C   UNL     1      42.373  -9.578  11.191  1.00  0.00     0.028 C 
HETATM   21  C   UNL     1      41.777  -9.224   9.835  1.00  0.00     0.235 C 
ENDBRANCH  14  15
ENDBRANCH  11  14
ENDBRANCH   5   8
BRANCH   1  22
HETATM   22  C   UNL     1      43.789 -16.815   4.855  1.00  0.00     0.273 C 
BRANCH  22  23
HETATM   23  C   UNL     1      43.818 -18.247   4.390  1.00  0.00    -0.027 A 
HETATM   24  C   UNL     1      43.651 -18.621   3.040  1.00  0.00    -0.054 A 
HETATM   25  C   UNL     1      43.462 -17.644   1.909  1.00  0.00     0.049 C 
HETATM   26  C   UNL     1      43.642 -19.988   2.709  1.00  0.00     0.007 A 
HETATM   27  C   UNL     1      43.814 -20.969   3.684  1.00  0.00     0.001 A 
HETATM   28  C   UNL     1      43.997 -20.603   5.010  1.00  0.00     0.001 A 
HETATM   29  C   UNL     1      43.999 -19.255   5.361  1.00  0.00     0.009 A 
ENDBRANCH  22  23
ENDBRANCH   1  22
TORSDOF 5
ENDMDL
MODEL 6
REMARK VINA RESULT:      -8.4      2.617      4.607
REMARK  5 active torsions:
REMARK  status: ('A' for Active; 'I' for Inactive)
REMARK    1  A    between atoms: C_3  and  C_4 
REMARK    2  A    between atoms: C_4  and  N_5 
REMARK    3  A    between atoms: C_9  and  C_10 
REMARK    4  A    between atoms: C_13  and  C_14 
REMARK    5  A    between atoms: C_14  and  N_15 
ROOT
HETATM    1  N   UNL     1      43.311 -14.109   5.069  1.00  0.00    -0.067 N 
HETATM    2  H   UNL     1      44.147 -14.437   4.569  1.00  0.00     0.280 HD
HETATM    3  C   UNL     1      42.752 -12.939   4.293  1.00  0.00     0.236 C 
HETATM    4  C   UNL     1      43.693 -11.742   4.359  1.00  0.00     0.040 C 
HETATM    5  C   UNL     1      44.050 -11.333   5.792  1.00  0.00     0.060 C 
HETATM    6  C   UNL     1      44.605 -12.550   6.543  1.00  0.00     0.040 C 
HETATM    7  C   UNL     1      43.697 -13.773   6.486  1.00  0.00     0.236 C 
ENDROOT
BRANCH   5   8
HETATM    8  C   UNL     1      42.863 -10.734   6.496  1.00  0.00     0.134 A 
HETATM    9  N   UNL     1      42.892  -9.858   7.559  1.00  0.00    -0.323 N 
HETATM   10  C   UNL     1      44.065  -9.332   8.214  1.00  0.00     0.159 C 
HETATM   11  C   UNL     1      41.577  -9.589   7.859  1.00  0.00     0.155 A 
HETATM   12  N   UNL     1      40.807 -10.237   7.008  1.00  0.00    -0.133 NA
HETATM   13  N   UNL     1      41.606 -10.951   6.169  1.00  0.00    -0.134 NA
BRANCH  11  14
HETATM   14  C   UNL     1      41.062  -8.713   8.952  1.00  0.00     0.315 C 
BRANCH  14  15
HETATM   15  N   UNL     1      40.983  -9.472  10.265  1.00  0.00    -0.064 N 
HETATM   16  H   UNL     1      41.201 -10.449  10.007  1.00  0.00     0.280 HD
HETATM   17  C   UNL     1      42.052  -9.048  11.246  1.00  0.00     0.235 C 
HETATM   18  C   UNL     1      42.038  -9.985  12.444  1.00  0.00     0.028 C 
HETATM   19  C   UNL     1      40.662 -10.037  13.099  1.00  0.00     0.003 C 
HETATM   20  C   UNL     1      39.580 -10.389  12.084  1.00  0.00     0.028 C 
HETATM   21  C   UNL     1      39.607  -9.459  10.878  1.00  0.00     0.235 C 
ENDBRANCH  14  15
ENDBRANCH  11  14
ENDBRANCH   5   8
BRANCH   1  22
HETATM   22  C   UNL     1      42.345 -15.292   5.075  1.00  0.00     0.273 C 
BRANCH  22  23
HETATM   23  C   UNL     1      42.823 -16.481   4.284  1.00  0.00    -0.027 A 
HETATM   24  C   UNL     1      42.296 -16.828   3.023  1.00  0.00    -0.054 A 
HETATM   25  C   UNL     1      41.230 -16.042   2.307  1.00  0.00     0.049 C 
HETATM   26  C   UNL     1      42.771 -17.988   2.384  1.00  0.00     0.007 A 
HETATM   27  C   UNL     1      43.760 -18.779   2.964  1.00  0.00     0.001 A 
HETATM   28  C   UNL     1      44.294 -18.429   4.196  1.00  0.00     0.001 A 
HETATM   29  C   UNL     1      43.831 -17.290   4.852  1.00  0.00     0.009 A 
ENDBRANCH  22  23
ENDBRANCH   1  22
TORSDOF 5
ENDMDL
MODEL 7
REMARK VINA RESULT:      -8.2      3.504      5.879
REMARK  5 active torsions:
REMARK  status: ('A' for Active; 'I' for Inactive)
REMARK    1  A    between atoms: C_3  and  C_4 
REMARK    2  A    between atoms: C_4  and  N_5 
REMARK    3  A    between atoms: C_9  and  C_10 
REMARK    4  A    between atoms: C_13  and  C_14 
REMARK    5  A    between atoms: C_14  and  N_15 
ROOT
HETATM    1  N   UNL     1      42.320 -15.896   2.932  1.00  0.00    -0.067 N 
HETATM    2  H   UNL     1      42.326 -16.103   3.938  1.00  0.00     0.280 HD
HETATM    3  C   UNL     1      42.547 -14.411   2.776  1.00  0.00     0.236 C 
HETATM    4  C   UNL     1      41.356 -13.620   3.305  1.00  0.00     0.040 C 
HETATM    5  C   UNL     1      40.024 -14.042   2.678  1.00  0.00     0.060 C 
HETATM    6  C   UNL     1      39.839 -15.555   2.851  1.00  0.00     0.040 C 
HETATM    7  C   UNL     1      41.018 -16.380   2.347  1.00  0.00     0.236 C 
ENDROOT
BRANCH   5   8
HETATM    8  C   UNL     1      39.951 -13.632   1.232  1.00  0.00     0.134 A 
HETATM    9  N   UNL     1      39.295 -12.534   0.719  1.00  0.00    -0.323 N 
HETATM   10  C   UNL     1      38.547 -11.549   1.463  1.00  0.00     0.159 C 
HETATM   11  C   UNL     1      39.508 -12.571  -0.639  1.00  0.00     0.155 A 
HETATM   12  N   UNL     1      40.271 -13.607  -0.921  1.00  0.00    -0.133 NA
HETATM   13  N   UNL     1      40.538 -14.267   0.239  1.00  0.00    -0.134 NA
BRANCH  11  14
HETATM   14  C   UNL     1      38.986 -11.616  -1.659  1.00  0.00     0.315 C 
BRANCH  14  15
HETATM   15  N   UNL     1      40.103 -10.746  -2.211  1.00  0.00    -0.064 N 
HETATM   16  H   UNL     1      40.829 -11.421  -2.506  1.00  0.00     0.280 HD
HETATM   17  C   UNL     1      39.694  -9.999  -3.460  1.00  0.00     0.235 C 
HETATM   18  C   UNL     1      40.914  -9.319  -4.064  1.00  0.00     0.028 C 
HETATM   19  C   UNL     1      41.599  -8.401  -3.057  1.00  0.00     0.003 C 
HETATM   20  C   UNL     1      41.937  -9.146  -1.771  1.00  0.00     0.028 C 
HETATM   21  C   UNL     1      40.717  -9.839  -1.177  1.00  0.00     0.235 C 
ENDBRANCH  14  15
ENDBRANCH  11  14
ENDBRANCH   5   8
BRANCH   1  22
HETATM   22  C   UNL     1      43.471 -16.705   2.337  1.00  0.00     0.273 C 
BRANCH  22  23
HETATM   23  C   UNL     1      43.627 -18.080   2.931  1.00  0.00    -0.027 A 
HETATM   24  C   UNL     1      44.063 -18.303   4.254  1.00  0.00    -0.054 A 
HETATM   25  C   UNL     1      44.388 -17.205   5.232  1.00  0.00     0.049 C 
HETATM   26  C   UNL     1      44.227 -19.626   4.702  1.00  0.00     0.007 A 
HETATM   27  C   UNL     1      43.948 -20.710   3.873  1.00  0.00     0.001 A 
HETATM   28  C   UNL     1      43.501 -20.494   2.577  1.00  0.00     0.001 A 
HETATM   29  C   UNL     1      43.341 -19.192   2.109  1.00  0.00     0.009 A 
ENDBRANCH  22  23
ENDBRANCH   1  22
TORSDOF 5
ENDMDL
MODEL 8
REMARK VINA RESULT:      -8.1      3.243      4.968
REMARK  5 active torsions:
REMARK  status: ('A' for Active; 'I' for Inactive)
REMARK    1  A    between atoms: C_3  and  C_4 
REMARK    2  A    between atoms: C_4  and  N_5 
REMARK    3  A    between atoms: C_9  and  C_10 
REMARK    4  A    between atoms: C_13  and  C_14 
REMARK    5  A    between atoms: C_14  and  N_15 
ROOT
HETATM    1  N   UNL     1      42.035 -15.919   2.928  1.00  0.00    -0.067 N 
HETATM    2  H   UNL     1      41.531 -16.629   3.474  1.00  0.00     0.280 HD
HETATM    3  C   UNL     1      42.156 -14.687   3.793  1.00  0.00     0.236 C 
HETATM    4  C   UNL     1      40.791 -14.048   4.025  1.00  0.00     0.040 C 
HETATM    5  C   UNL     1      40.041 -13.738   2.726  1.00  0.00     0.060 C 
HETATM    6  C   UNL     1      39.949 -15.012   1.877  1.00  0.00     0.040 C 
HETATM    7  C   UNL     1      41.294 -15.688   1.636  1.00  0.00     0.236 C 
ENDROOT
BRANCH   5   8
HETATM    8  C   UNL     1      40.700 -12.612   1.975  1.00  0.00     0.134 A 
HETATM    9  N   UNL     1      40.365 -12.152   0.720  1.00  0.00    -0.323 N 
HETATM   10  C   UNL     1      39.313 -12.652  -0.131  1.00  0.00     0.159 C 
HETATM   11  C   UNL     1      41.235 -11.121   0.455  1.00  0.00     0.155 A 
HETATM   12  N   UNL     1      42.021 -10.950   1.498  1.00  0.00    -0.133 NA
HETATM   13  N   UNL     1      41.692 -11.879   2.436  1.00  0.00    -0.134 NA
BRANCH  11  14
HETATM   14  C   UNL     1      41.309 -10.301  -0.790  1.00  0.00     0.315 C 
BRANCH  14  15
HETATM   15  N   UNL     1      41.757  -8.882  -0.480  1.00  0.00    -0.064 N 
HETATM   16  H   UNL     1      42.356  -8.983   0.356  1.00  0.00     0.280 HD
HETATM   17  C   UNL     1      42.642  -8.305  -1.562  1.00  0.00     0.235 C 
HETATM   18  C   UNL     1      43.213  -6.976  -1.091  1.00  0.00     0.028 C 
HETATM   19  C   UNL     1      42.110  -6.004  -0.686  1.00  0.00     0.003 C 
HETATM   20  C   UNL     1      41.177  -6.626   0.347  1.00  0.00     0.028 C 
HETATM   21  C   UNL     1      40.620  -7.964  -0.120  1.00  0.00     0.235 C 
ENDBRANCH  14  15
ENDBRANCH  11  14
ENDBRANCH   5   8
BRANCH   1  22
HETATM   22  C   UNL     1      43.402 -16.528   2.624  1.00  0.00     0.273 C 
BRANCH  22  23
HETATM   23  C   UNL     1      43.546 -17.964   3.055  1.00  0.00    -0.027 A 
HETATM   24  C   UNL     1      44.023 -18.341   4.328  1.00  0.00    -0.054 A 
HETATM   25  C   UNL     1      44.408 -17.366   5.409  1.00  0.00     0.049 C 
HETATM   26  C   UNL     1      44.171 -19.708   4.621  1.00  0.00     0.007 A 
HETATM   27  C   UNL     1      43.837 -20.688   3.688  1.00  0.00     0.001 A 
HETATM   28  C   UNL     1      43.349 -20.320   2.442  1.00  0.00     0.001 A 
HETATM   29  C   UNL     1      43.204 -18.971   2.127  1.00  0.00     0.009 A 
ENDBRANCH  22  23
ENDBRANCH   1  22
TORSDOF 5
ENDMDL
MODEL 9
REMARK VINA RESULT:      -8.0      2.625      3.828
REMARK  5 active torsions:
REMARK  status: ('A' for Active; 'I' for Inactive)
REMARK    1  A    between atoms: C_3  and  C_4 
REMARK    2  A    between atoms: C_4  and  N_5 
REMARK    3  A    between atoms: C_9  and  C_10 
REMARK    4  A    between atoms: C_13  and  C_14 
REMARK    5  A    between atoms: C_14  and  N_15 
ROOT
HETATM    1  N   UNL     1      41.642 -14.185   4.695  1.00  0.00    -0.067 N 
HETATM    2  H   UNL     1      42.082 -14.313   3.775  1.00  0.00     0.280 HD
HETATM    3  C   UNL     1      40.222 -13.726   4.455  1.00  0.00     0.236 C 
HETATM    4  C   UNL     1      40.198 -12.324   3.855  1.00  0.00     0.040 C 
HETATM    5  C   UNL     1      40.976 -11.298   4.684  1.00  0.00     0.060 C 
HETATM    6  C   UNL     1      42.405 -11.808   4.910  1.00  0.00     0.040 C 
HETATM    7  C   UNL     1      42.470 -13.214   5.496  1.00  0.00     0.236 C 
ENDROOT
BRANCH   5   8
HETATM    8  C   UNL     1      40.274 -11.007   5.983  1.00  0.00     0.134 A 
HETATM    9  N   UNL     1      40.505  -9.938   6.822  1.00  0.00    -0.323 N 
HETATM   10  C   UNL     1      41.462  -8.877   6.626  1.00  0.00     0.159 C 
HETATM   11  C   UNL     1      39.632 -10.092   7.873  1.00  0.00     0.155 A 
HETATM   12  N   UNL     1      38.900 -11.167   7.664  1.00  0.00    -0.133 NA
HETATM   13  N   UNL     1      39.305 -11.736   6.495  1.00  0.00    -0.134 NA
BRANCH  11  14
HETATM   14  C   UNL     1      39.497  -9.211   9.070  1.00  0.00     0.315 C 
BRANCH  14  15
HETATM   15  N   UNL     1      40.305  -9.752  10.237  1.00  0.00    -0.064 N 
HETATM   16  H   UNL     1      40.355 -10.769  10.061  1.00  0.00     0.280 HD
HETATM   17  C   UNL     1      41.733  -9.256  10.234  1.00  0.00     0.235 C 
HETATM   18  C   UNL     1      42.527  -9.994  11.301  1.00  0.00     0.028 C 
HETATM   19  C   UNL     1      41.884  -9.852  12.676  1.00  0.00     0.003 C 
HETATM   20  C   UNL     1      40.422 -10.281  12.650  1.00  0.00     0.028 C 
HETATM   21  C   UNL     1      39.634  -9.552  11.570  1.00  0.00     0.235 C 
ENDBRANCH  14  15
ENDBRANCH  11  14
ENDBRANCH   5   8
BRANCH   1  22
HETATM   22  C   UNL     1      41.682 -15.556   5.366  1.00  0.00     0.273 C 
BRANCH  22  23
HETATM   23  C   UNL     1      42.431 -16.602   4.583  1.00  0.00    -0.027 A 
HETATM   24  C   UNL     1      43.253 -17.575   5.188  1.00  0.00    -0.054 A 
HETATM   25  C   UNL     1      43.451 -17.707   6.675  1.00  0.00     0.049 C 
HETATM   26  C   UNL     1      43.954 -18.478   4.369  1.00  0.00     0.007 A 
HETATM   27  C   UNL     1      43.833 -18.439   2.982  1.00  0.00     0.001 A 
HETATM   28  C   UNL     1      43.010 -17.496   2.384  1.00  0.00     0.001 A 
HETATM   29  C   UNL     1      42.315 -16.584   3.176  1.00  0.00     0.009 A 
ENDBRANCH  22  23
ENDBRANCH   1  22
TORSDOF 5
ENDMDL
MODEL 10
REMARK VINA RESULT:      -7.9      2.248      4.053
REMARK  5 active torsions:
REMARK  status: ('A' for Active; 'I' for Inactive)
REMARK    1  A    between atoms: C_3  and  C_4 
REMARK    2  A    between atoms: C_4  and  N_5 
REMARK    3  A    between atoms: C_9  and  C_10 
REMARK    4  A    between atoms: C_13  and  C_14 
REMARK    5  A    between atoms: C_14  and  N_15 
ROOT
HETATM    1  N   UNL     1      41.641 -14.218   4.803  1.00  0.00    -0.067 N 
HETATM    2  H   UNL     1      41.124 -14.248   3.915  1.00  0.00     0.280 HD
HETATM    3  C   UNL     1      40.909 -13.264   5.718  1.00  0.00     0.236 C 
HETATM    4  C   UNL     1      41.008 -11.832   5.204  1.00  0.00     0.040 C 
HETATM    5  C   UNL     1      42.450 -11.373   4.970  1.00  0.00     0.060 C 
HETATM    6  C   UNL     1      43.156 -12.372   4.045  1.00  0.00     0.040 C 
HETATM    7  C   UNL     1      43.066 -13.818   4.518  1.00  0.00     0.236 C 
ENDROOT
BRANCH   5   8
HETATM    8  C   UNL     1      43.184 -11.203   6.273  1.00  0.00     0.134 A 
HETATM    9  N   UNL     1      43.140 -10.106   7.106  1.00  0.00    -0.323 N 
HETATM   10  C   UNL     1      42.381  -8.897   6.902  1.00  0.00     0.159 C 
HETATM   11  C   UNL     1      43.962 -10.408   8.166  1.00  0.00     0.155 A 
HETATM   12  N   UNL     1      44.444 -11.623   7.997  1.00  0.00    -0.133 NA
HETATM   13  N   UNL     1      43.965 -12.111   6.821  1.00  0.00    -0.134 NA
BRANCH  11  14
HETATM   14  C   UNL     1      44.281  -9.538   9.335  1.00  0.00     0.315 C 
BRANCH  14  15
HETATM   15  N   UNL     1      43.152  -9.559  10.352  1.00  0.00    -0.064 N 
HETATM   16  H   UNL     1      42.461 -10.214   9.950  1.00  0.00     0.280 HD
HETATM   17  C   UNL     1      43.575 -10.155  11.675  1.00  0.00     0.235 C 
HETATM   18  C   UNL     1      42.352 -10.331  12.563  1.00  0.00     0.028 C 
HETATM   19  C   UNL     1      41.603  -9.016  12.751  1.00  0.00     0.003 C 
HETATM   20  C   UNL     1      41.251  -8.383  11.409  1.00  0.00     0.028 C 
HETATM   21  C   UNL     1      42.474  -8.224  10.517  1.00  0.00     0.235 C 
ENDBRANCH  14  15
ENDBRANCH  11  14
ENDBRANCH   5   8
BRANCH   1  22
HETATM   22  C   UNL     1      41.616 -15.646   5.344  1.00  0.00     0.273 C 
BRANCH  22  23
HETATM   23  C   UNL     1      42.406 -16.629   4.520  1.00  0.00    -0.027 A 
HETATM   24  C   UNL     1      43.513 -17.341   5.025  1.00  0.00    -0.054 A 
HETATM   25  C   UNL     1      44.013 -17.233   6.442  1.00  0.00     0.049 C 
HETATM   26  C   UNL     1      44.220 -18.199   4.164  1.00  0.00     0.007 A 
HETATM   27  C   UNL     1      43.833 -18.371   2.837  1.00  0.00     0.001 A 
HETATM   28  C   UNL     1      42.732 -17.686   2.342  1.00  0.00     0.001 A 
HETATM   29  C   UNL     1      42.024 -16.823   3.175  1.00  0.00     0.009 A 
ENDBRANCH  22  23
ENDBRANCH   1  22
TORSDOF 5
ENDMDL
