MODEL 1
REMARK VINA RESULT:      -8.4      0.000      0.000
REMARK  7 active torsions:
REMARK  status: ('A' for Active; 'I' for Inactive)
REMARK    1  A    between atoms: N_2  and  C_4 
REMARK    2  A    between atoms: C_4  and  C_5 
REMARK    3  A    between atoms: C_5  and  O_6 
REMARK    4  A    between atoms: O_6  and  C_7 
REMARK    5  A    between atoms: C_10  and  N_11 
REMARK       I    between atoms: N_11  and  C_12 
REMARK    6  A    between atoms: C_12  and  C_13 
REMARK    7  A    between atoms: C_14  and  C_15 
ROOT
HETATM    1  N   UNL     1      43.522 -14.245   5.805  1.00  0.00    -0.323 N 
HETATM    2  C   UNL     1      42.520 -15.194   5.712  1.00  0.00     0.258 C 
HETATM    3  O   UNL     1      41.329 -15.044   5.952  1.00  0.00    -0.267 OA
HETATM    4  H   UNL     1      44.464 -14.514   5.541  1.00  0.00     0.169 HD
ENDROOT
BRANCH   2   5
HETATM    5  C   UNL     1      42.947 -16.515   5.199  1.00  0.00     0.065 A 
HETATM    6  C   UNL     1      42.940 -16.904   3.849  1.00  0.00     0.077 A 
HETATM    7  C   UNL     1      43.281 -18.254   3.528  1.00  0.00     0.009 A 
HETATM    8  C   UNL     1      43.698 -19.092   4.595  1.00  0.00     0.067 A 
HETATM    9  C   UNL     1      43.229 -18.830   2.231  1.00  0.00     0.014 A 
HETATM   10  N   UNL     1      43.762 -18.679   5.867  1.00  0.00    -0.259 NA
HETATM   11  C   UNL     1      44.058 -20.406   4.340  1.00  0.00     0.032 A 
HETATM   12  C   UNL     1      43.392 -17.414   6.151  1.00  0.00     0.135 A 
HETATM   13  C   UNL     1      44.012 -20.948   3.057  1.00  0.00     0.002 A 
HETATM   14  C   UNL     1      43.592 -20.158   2.001  1.00  0.00     0.001 A 
BRANCH   6  15
HETATM   15  C   UNL     1      42.562 -15.886   2.808  1.00  0.00     0.419 C 
HETATM   16  F   UNL     1      43.282 -14.733   2.898  1.00  0.00    -0.166 F 
HETATM   17  F   UNL     1      42.708 -16.280   1.516  1.00  0.00    -0.166 F 
HETATM   18  F   UNL     1      41.255 -15.516   2.940  1.00  0.00    -0.166 F 
ENDBRANCH   6  15
ENDBRANCH   2   5
BRANCH   1  19
HETATM   19  C   UNL     1      43.378 -12.906   6.229  1.00  0.00     0.035 A 
HETATM   20  C   UNL     1      42.412 -12.030   5.731  1.00  0.00     0.032 A 
HETATM   21  C   UNL     1      42.330 -10.710   6.193  1.00  0.00     0.039 A 
HETATM   22  C   UNL     1      43.211 -10.249   7.168  1.00  0.00     0.069 A 
HETATM   23  C   UNL     1      44.182 -11.118   7.666  1.00  0.00     0.039 A 
HETATM   24  C   UNL     1      44.266 -12.435   7.202  1.00  0.00     0.032 A 
BRANCH  22  25
HETATM   25  O   UNL     1      43.229  -8.990   7.704  1.00  0.00    -0.349 OA
BRANCH  25  26
HETATM   26  C   UNL     1      43.397  -8.901   9.117  1.00  0.00     0.203 C 
BRANCH  26  27
HETATM   27  C   UNL     1      42.024  -9.112   9.763  1.00  0.00     0.260 C 
BRANCH  27  28
HETATM   28  N   UNL     1      42.051 -10.166  10.858  1.00  0.00    -0.077 N 
HETATM   29  C   UNL     1      41.196  -9.818  12.046  1.00  0.00     0.269 C 
HETATM   30  H   UNL     1      41.681 -11.039  10.458  1.00  0.00     0.279 HD
HETATM   31  C   UNL     1      43.466 -10.469  11.281  1.00  0.00     0.269 C 
ENDBRANCH  27  28
ENDBRANCH  26  27
ENDBRANCH  25  26
ENDBRANCH  22  25
ENDBRANCH   1  19
TORSDOF 7
ENDMDL
MODEL 2
REMARK VINA RESULT:      -8.4      1.901      2.415
REMARK  7 active torsions:
REMARK  status: ('A' for Active; 'I' for Inactive)
REMARK    1  A    between atoms: N_2  and  C_4 
REMARK    2  A    between atoms: C_4  and  C_5 
REMARK    3  A    between atoms: C_5  and  O_6 
REMARK    4  A    between atoms: O_6  and  C_7 
REMARK    5  A    between atoms: C_10  and  N_11 
REMARK       I    between atoms: N_11  and  C_12 
REMARK    6  A    between atoms: C_12  and  C_13 
REMARK    7  A    between atoms: C_14  and  C_15 
ROOT
HETATM    1  N   UNL     1      43.330 -13.729   5.564  1.00  0.00    -0.323 N 
HETATM    2  C   UNL     1      42.250 -14.589   5.494  1.00  0.00     0.258 C 
HETATM    3  O   UNL     1      41.122 -14.404   5.933  1.00  0.00    -0.267 OA
HETATM    4  H   UNL     1      44.199 -14.012   5.123  1.00  0.00     0.169 HD
ENDROOT
BRANCH   2   5
HETATM    5  C   UNL     1      42.488 -15.843   4.743  1.00  0.00     0.065 A 
HETATM    6  C   UNL     1      43.037 -17.020   5.279  1.00  0.00     0.077 A 
HETATM    7  C   UNL     1      43.302 -18.111   4.395  1.00  0.00     0.009 A 
HETATM    8  C   UNL     1      42.904 -17.963   3.041  1.00  0.00     0.067 A 
HETATM    9  C   UNL     1      43.941 -19.326   4.758  1.00  0.00     0.014 A 
HETATM   10  N   UNL     1      42.320 -16.856   2.567  1.00  0.00    -0.259 NA
HETATM   11  C   UNL     1      43.121 -18.996   2.142  1.00  0.00     0.032 A 
HETATM   12  C   UNL     1      42.121 -15.824   3.410  1.00  0.00     0.135 A 
HETATM   13  C   UNL     1      43.738 -20.187   2.521  1.00  0.00     0.002 A 
HETATM   14  C   UNL     1      44.152 -20.349   3.832  1.00  0.00     0.001 A 
BRANCH   6  15
HETATM   15  C   UNL     1      43.329 -17.072   6.754  1.00  0.00     0.419 C 
HETATM   16  F   UNL     1      42.390 -16.439   7.511  1.00  0.00    -0.166 F 
HETATM   17  F   UNL     1      43.423 -18.314   7.294  1.00  0.00    -0.166 F 
HETATM   18  F   UNL     1      44.511 -16.450   7.038  1.00  0.00    -0.166 F 
ENDBRANCH   6  15
ENDBRANCH   2   5
BRANCH   1  19
HETATM   19  C   UNL     1      43.360 -12.462   6.188  1.00  0.00     0.035 A 
HETATM   20  C   UNL     1      42.479 -11.423   5.885  1.00  0.00     0.032 A 
HETATM   21  C   UNL     1      42.570 -10.188   6.540  1.00  0.00     0.039 A 
HETATM   22  C   UNL     1      43.542  -9.977   7.514  1.00  0.00     0.069 A 
HETATM   23  C   UNL     1      44.429 -11.011   7.818  1.00  0.00     0.039 A 
HETATM   24  C   UNL     1      44.340 -12.243   7.161  1.00  0.00     0.032 A 
BRANCH  22  25
HETATM   25  O   UNL     1      43.729  -8.824   8.227  1.00  0.00    -0.349 OA
BRANCH  25  26
HETATM   26  C   UNL     1      43.847  -8.960   9.641  1.00  0.00     0.203 C 
BRANCH  26  27
HETATM   27  C   UNL     1      42.434  -9.115  10.213  1.00  0.00     0.260 C 
BRANCH  27  28
HETATM   28  N   UNL     1      42.319 -10.288  11.173  1.00  0.00    -0.077 N 
HETATM   29  C   UNL     1      41.535  -9.970  12.417  1.00  0.00     0.269 C 
HETATM   30  H   UNL     1      41.823 -11.044  10.680  1.00  0.00     0.279 HD
HETATM   31  C   UNL     1      43.680 -10.838  11.517  1.00  0.00     0.269 C 
ENDBRANCH  27  28
ENDBRANCH  26  27
ENDBRANCH  25  26
ENDBRANCH  22  25
ENDBRANCH   1  19
TORSDOF 7
ENDMDL
MODEL 3
REMARK VINA RESULT:      -7.9      2.734      3.536
REMARK  7 active torsions:
REMARK  status: ('A' for Active; 'I' for Inactive)
REMARK    1  A    between atoms: N_2  and  C_4 
REMARK    2  A    between atoms: C_4  and  C_5 
REMARK    3  A    between atoms: C_5  and  O_6 
REMARK    4  A    between atoms: O_6  and  C_7 
REMARK    5  A    between atoms: C_10  and  N_11 
REMARK       I    between atoms: N_11  and  C_12 
REMARK    6  A    between atoms: C_12  and  C_13 
REMARK    7  A    between atoms: C_14  and  C_15 
ROOT
HETATM    1  N   UNL     1      40.993 -14.307   4.631  1.00  0.00    -0.323 N 
HETATM    2  C   UNL     1      42.368 -14.452   4.585  1.00  0.00     0.258 C 
HETATM    3  O   UNL     1      43.212 -13.575   4.711  1.00  0.00    -0.267 OA
HETATM    4  H   UNL     1      40.419 -15.139   4.540  1.00  0.00     0.169 HD
ENDROOT
BRANCH   2   5
HETATM    5  C   UNL     1      42.852 -15.843   4.430  1.00  0.00     0.065 A 
HETATM    6  C   UNL     1      42.888 -16.561   3.223  1.00  0.00     0.077 A 
HETATM    7  C   UNL     1      43.283 -17.934   3.260  1.00  0.00     0.009 A 
HETATM    8  C   UNL     1      43.705 -18.456   4.510  1.00  0.00     0.067 A 
HETATM    9  C   UNL     1      43.279 -18.820   2.151  1.00  0.00     0.014 A 
HETATM   10  N   UNL     1      43.727 -17.732   5.635  1.00  0.00    -0.259 NA
HETATM   11  C   UNL     1      44.118 -19.777   4.601  1.00  0.00     0.032 A 
HETATM   12  C   UNL     1      43.307 -16.453   5.584  1.00  0.00     0.135 A 
HETATM   13  C   UNL     1      44.118 -20.628   3.497  1.00  0.00     0.002 A 
HETATM   14  C   UNL     1      43.694 -20.148   2.271  1.00  0.00     0.001 A 
BRANCH   6  15
HETATM   15  C   UNL     1      42.497 -15.855   1.953  1.00  0.00     0.419 C 
HETATM   16  F   UNL     1      41.174 -15.981   1.654  1.00  0.00    -0.166 F 
HETATM   17  F   UNL     1      42.729 -14.518   1.926  1.00  0.00    -0.166 F 
HETATM   18  F   UNL     1      43.167 -16.373   0.882  1.00  0.00    -0.166 F 
ENDBRANCH   6  15
ENDBRANCH   2   5
BRANCH   1  19
HETATM   19  C   UNL     1      40.278 -13.102   4.805  1.00  0.00     0.035 A 
HETATM   20  C   UNL     1      39.881 -12.272   3.757  1.00  0.00     0.032 A 
HETATM   21  C   UNL     1      39.178 -11.086   4.003  1.00  0.00     0.039 A 
HETATM   22  C   UNL     1      38.854 -10.716   5.306  1.00  0.00     0.069 A 
HETATM   23  C   UNL     1      39.251 -11.541   6.360  1.00  0.00     0.039 A 
HETATM   24  C   UNL     1      39.957 -12.723   6.113  1.00  0.00     0.032 A 
BRANCH  22  25
HETATM   25  O   UNL     1      38.168  -9.592   5.676  1.00  0.00    -0.349 OA
BRANCH  25  26
HETATM   26  C   UNL     1      38.630  -8.356   5.137  1.00  0.00     0.203 C 
BRANCH  26  27
HETATM   27  C   UNL     1      39.540  -7.704   6.184  1.00  0.00     0.260 C 
BRANCH  27  28
HETATM   28  N   UNL     1      41.004  -7.721   5.775  1.00  0.00    -0.077 N 
HETATM   29  C   UNL     1      41.212  -7.902   4.296  1.00  0.00     0.269 C 
HETATM   30  H   UNL     1      41.409  -6.811   6.035  1.00  0.00     0.279 HD
HETATM   31  C   UNL     1      41.771  -8.756   6.559  1.00  0.00     0.269 C 
ENDBRANCH  27  28
ENDBRANCH  26  27
ENDBRANCH  25  26
ENDBRANCH  22  25
ENDBRANCH   1  19
TORSDOF 7
ENDMDL
MODEL 4
REMARK VINA RESULT:      -7.9      1.720      2.210
REMARK  7 active torsions:
REMARK  status: ('A' for Active; 'I' for Inactive)
REMARK    1  A    between atoms: N_2  and  C_4 
REMARK    2  A    between atoms: C_4  and  C_5 
REMARK    3  A    between atoms: C_5  and  O_6 
REMARK    4  A    between atoms: O_6  and  C_7 
REMARK    5  A    between atoms: C_10  and  N_11 
REMARK       I    between atoms: N_11  and  C_12 
REMARK    6  A    between atoms: C_12  and  C_13 
REMARK    7  A    between atoms: C_14  and  C_15 
ROOT
HETATM    1  N   UNL     1      41.684 -14.431   5.324  1.00  0.00    -0.323 N 
HETATM    2  C   UNL     1      43.015 -14.804   5.377  1.00  0.00     0.258 C 
HETATM    3  O   UNL     1      43.961 -14.128   5.759  1.00  0.00    -0.267 OA
HETATM    4  H   UNL     1      41.005 -15.116   5.010  1.00  0.00     0.169 HD
ENDROOT
BRANCH   2   5
HETATM    5  C   UNL     1      43.295 -16.203   4.985  1.00  0.00     0.065 A 
HETATM    6  C   UNL     1      43.271 -16.699   3.670  1.00  0.00     0.077 A 
HETATM    7  C   UNL     1      43.459 -18.101   3.468  1.00  0.00     0.009 A 
HETATM    8  C   UNL     1      43.751 -18.890   4.611  1.00  0.00     0.067 A 
HETATM    9  C   UNL     1      43.367 -18.772   2.220  1.00  0.00     0.014 A 
HETATM   10  N   UNL     1      43.836 -18.383   5.847  1.00  0.00    -0.259 NA
HETATM   11  C   UNL     1      43.961 -20.254   4.472  1.00  0.00     0.032 A 
HETATM   12  C   UNL     1      43.611 -17.066   6.018  1.00  0.00     0.135 A 
HETATM   13  C   UNL     1      43.879 -20.891   3.236  1.00  0.00     0.002 A 
HETATM   14  C   UNL     1      43.577 -20.147   2.108  1.00  0.00     0.001 A 
BRANCH   6  15
HETATM   15  C   UNL     1      43.037 -15.733   2.540  1.00  0.00     0.419 C 
HETATM   16  F   UNL     1      43.583 -14.505   2.761  1.00  0.00    -0.166 F 
HETATM   17  F   UNL     1      43.524 -16.112   1.330  1.00  0.00    -0.166 F 
HETATM   18  F   UNL     1      41.702 -15.515   2.354  1.00  0.00    -0.166 F 
ENDBRANCH   6  15
ENDBRANCH   2   5
BRANCH   1  19
HETATM   19  C   UNL     1      41.146 -13.173   5.675  1.00  0.00     0.035 A 
HETATM   20  C   UNL     1      41.919 -12.047   5.963  1.00  0.00     0.032 A 
HETATM   21  C   UNL     1      41.318 -10.831   6.311  1.00  0.00     0.039 A 
HETATM   22  C   UNL     1      39.931 -10.721   6.369  1.00  0.00     0.069 A 
HETATM   23  C   UNL     1      39.153 -11.845   6.086  1.00  0.00     0.039 A 
HETATM   24  C   UNL     1      39.754 -13.060   5.743  1.00  0.00     0.032 A 
BRANCH  22  25
HETATM   25  O   UNL     1      39.226  -9.593   6.688  1.00  0.00    -0.349 OA
BRANCH  25  26
HETATM   26  C   UNL     1      39.670  -8.864   7.830  1.00  0.00     0.203 C 
BRANCH  26  27
HETATM   27  C   UNL     1      39.235  -9.643   9.076  1.00  0.00     0.260 C 
BRANCH  27  28
HETATM   28  N   UNL     1      40.337  -9.738  10.119  1.00  0.00    -0.077 N 
HETATM   29  C   UNL     1      39.824  -9.943  11.518  1.00  0.00     0.269 C 
HETATM   30  H   UNL     1      40.919 -10.553   9.881  1.00  0.00     0.279 HD
HETATM   31  C   UNL     1      41.251  -8.540  10.048  1.00  0.00     0.269 C 
ENDBRANCH  27  28
ENDBRANCH  26  27
ENDBRANCH  25  26
ENDBRANCH  22  25
ENDBRANCH   1  19
TORSDOF 7
ENDMDL
MODEL 5
REMARK VINA RESULT:      -7.8      3.481      4.268
REMARK  7 active torsions:
REMARK  status: ('A' for Active; 'I' for Inactive)
REMARK    1  A    between atoms: N_2  and  C_4 
REMARK    2  A    between atoms: C_4  and  C_5 
REMARK    3  A    between atoms: C_5  and  O_6 
REMARK    4  A    between atoms: O_6  and  C_7 
REMARK    5  A    between atoms: C_10  and  N_11 
REMARK       I    between atoms: N_11  and  C_12 
REMARK    6  A    between atoms: C_12  and  C_13 
REMARK    7  A    between atoms: C_14  and  C_15 
ROOT
HETATM    1  N   UNL     1      40.985 -14.322   4.611  1.00  0.00    -0.323 N 
HETATM    2  C   UNL     1      42.359 -14.473   4.608  1.00  0.00     0.258 C 
HETATM    3  O   UNL     1      43.203 -13.600   4.768  1.00  0.00    -0.267 OA
HETATM    4  H   UNL     1      40.410 -15.150   4.496  1.00  0.00     0.169 HD
ENDROOT
BRANCH   2   5
HETATM    5  C   UNL     1      42.842 -15.864   4.458  1.00  0.00     0.065 A 
HETATM    6  C   UNL     1      42.927 -16.569   3.245  1.00  0.00     0.077 A 
HETATM    7  C   UNL     1      43.313 -17.944   3.283  1.00  0.00     0.009 A 
HETATM    8  C   UNL     1      43.677 -18.483   4.544  1.00  0.00     0.067 A 
HETATM    9  C   UNL     1      43.353 -18.817   2.165  1.00  0.00     0.014 A 
HETATM   10  N   UNL     1      43.653 -17.773   5.678  1.00  0.00    -0.259 NA
HETATM   11  C   UNL     1      44.078 -19.808   4.638  1.00  0.00     0.032 A 
HETATM   12  C   UNL     1      43.243 -16.490   5.624  1.00  0.00     0.135 A 
HETATM   13  C   UNL     1      44.122 -20.645   3.525  1.00  0.00     0.002 A 
HETATM   14  C   UNL     1      43.755 -20.149   2.287  1.00  0.00     0.001 A 
BRANCH   6  15
HETATM   15  C   UNL     1      42.596 -15.846   1.967  1.00  0.00     0.419 C 
HETATM   16  F   UNL     1      42.971 -14.536   1.979  1.00  0.00    -0.166 F 
HETATM   17  F   UNL     1      43.159 -16.353   0.840  1.00  0.00    -0.166 F 
HETATM   18  F   UNL     1      41.250 -15.842   1.745  1.00  0.00    -0.166 F 
ENDBRANCH   6  15
ENDBRANCH   2   5
BRANCH   1  19
HETATM   19  C   UNL     1      40.269 -13.115   4.772  1.00  0.00     0.035 A 
HETATM   20  C   UNL     1      39.911 -12.274   3.717  1.00  0.00     0.032 A 
HETATM   21  C   UNL     1      39.205 -11.087   3.950  1.00  0.00     0.039 A 
HETATM   22  C   UNL     1      38.840 -10.727   5.245  1.00  0.00     0.069 A 
HETATM   23  C   UNL     1      39.198 -11.561   6.304  1.00  0.00     0.039 A 
HETATM   24  C   UNL     1      39.907 -12.745   6.071  1.00  0.00     0.032 A 
BRANCH  22  25
HETATM   25  O   UNL     1      38.147  -9.602   5.601  1.00  0.00    -0.349 OA
BRANCH  25  26
HETATM   26  C   UNL     1      38.899  -8.396   5.711  1.00  0.00     0.203 C 
BRANCH  26  27
HETATM   27  C   UNL     1      37.976  -7.235   5.327  1.00  0.00     0.260 C 
BRANCH  27  28
HETATM   28  N   UNL     1      36.772  -7.691   4.518  1.00  0.00    -0.077 N 
HETATM   29  C   UNL     1      36.922  -7.463   3.039  1.00  0.00     0.269 C 
HETATM   30  H   UNL     1      36.666  -8.705   4.665  1.00  0.00     0.279 HD
HETATM   31  C   UNL     1      35.504  -7.061   5.036  1.00  0.00     0.269 C 
ENDBRANCH  27  28
ENDBRANCH  26  27
ENDBRANCH  25  26
ENDBRANCH  22  25
ENDBRANCH   1  19
TORSDOF 7
ENDMDL
MODEL 6
REMARK VINA RESULT:      -7.4      2.483      3.183
REMARK  7 active torsions:
REMARK  status: ('A' for Active; 'I' for Inactive)
REMARK    1  A    between atoms: N_2  and  C_4 
REMARK    2  A    between atoms: C_4  and  C_5 
REMARK    3  A    between atoms: C_5  and  O_6 
REMARK    4  A    between atoms: O_6  and  C_7 
REMARK    5  A    between atoms: C_10  and  N_11 
REMARK       I    between atoms: N_11  and  C_12 
REMARK    6  A    between atoms: C_12  and  C_13 
REMARK    7  A    between atoms: C_14  and  C_15 
ROOT
HETATM    1  N   UNL     1      41.745 -14.122   4.890  1.00  0.00    -0.323 N 
HETATM    2  C   UNL     1      42.962 -14.728   5.142  1.00  0.00     0.258 C 
HETATM    3  O   UNL     1      43.883 -14.292   5.820  1.00  0.00    -0.267 OA
HETATM    4  H   UNL     1      41.064 -14.624   4.329  1.00  0.00     0.169 HD
ENDROOT
BRANCH   2   5
HETATM    5  C   UNL     1      43.123 -16.084   4.570  1.00  0.00     0.065 A 
HETATM    6  C   UNL     1      43.340 -17.258   5.312  1.00  0.00     0.077 A 
HETATM    7  C   UNL     1      43.583 -18.475   4.603  1.00  0.00     0.009 A 
HETATM    8  C   UNL     1      43.495 -18.432   3.188  1.00  0.00     0.067 A 
HETATM    9  C   UNL     1      43.915 -19.720   5.198  1.00  0.00     0.014 A 
HETATM   10  N   UNL     1      43.219 -17.315   2.505  1.00  0.00    -0.259 NA
HETATM   11  C   UNL     1      43.703 -19.588   2.449  1.00  0.00     0.032 A 
HETATM   12  C   UNL     1      43.038 -16.170   3.193  1.00  0.00     0.135 A 
HETATM   13  C   UNL     1      44.015 -20.804   3.054  1.00  0.00     0.002 A 
HETATM   14  C   UNL     1      44.125 -20.868   4.432  1.00  0.00     0.001 A 
BRANCH   6  15
HETATM   15  C   UNL     1      43.320 -17.175   6.814  1.00  0.00     0.419 C 
HETATM   16  F   UNL     1      44.447 -16.619   7.337  1.00  0.00    -0.166 F 
HETATM   17  F   UNL     1      42.302 -16.455   7.351  1.00  0.00    -0.166 F 
HETATM   18  F   UNL     1      43.231 -18.419   7.369  1.00  0.00    -0.166 F 
ENDBRANCH   6  15
ENDBRANCH   2   5
BRANCH   1  19
HETATM   19  C   UNL     1      41.325 -12.852   5.345  1.00  0.00     0.035 A 
HETATM   20  C   UNL     1      42.051 -11.677   5.156  1.00  0.00     0.032 A 
HETATM   21  C   UNL     1      41.577 -10.451   5.640  1.00  0.00     0.039 A 
HETATM   22  C   UNL     1      40.361 -10.383   6.316  1.00  0.00     0.069 A 
HETATM   23  C   UNL     1      39.632 -11.557   6.512  1.00  0.00     0.039 A 
HETATM   24  C   UNL     1      40.108 -12.781   6.032  1.00  0.00     0.032 A 
BRANCH  22  25
HETATM   25  O   UNL     1      39.788  -9.251   6.829  1.00  0.00    -0.349 OA
BRANCH  25  26
HETATM   26  C   UNL     1      39.436  -9.283   8.210  1.00  0.00     0.203 C 
BRANCH  26  27
HETATM   27  C   UNL     1      40.696  -8.954   9.019  1.00  0.00     0.260 C 
BRANCH  27  28
HETATM   28  N   UNL     1      40.382  -8.564  10.454  1.00  0.00    -0.077 N 
HETATM   29  C   UNL     1      40.595  -9.680  11.440  1.00  0.00     0.269 C 
HETATM   30  H   UNL     1      41.018  -7.797  10.713  1.00  0.00     0.279 HD
HETATM   31  C   UNL     1      38.987  -8.002  10.567  1.00  0.00     0.269 C 
ENDBRANCH  27  28
ENDBRANCH  26  27
ENDBRANCH  25  26
ENDBRANCH  22  25
ENDBRANCH   1  19
TORSDOF 7
ENDMDL
MODEL 7
REMARK VINA RESULT:      -7.3      5.819      8.524
REMARK  7 active torsions:
REMARK  status: ('A' for Active; 'I' for Inactive)
REMARK    1  A    between atoms: N_2  and  C_4 
REMARK    2  A    between atoms: C_4  and  C_5 
REMARK    3  A    between atoms: C_5  and  O_6 
REMARK    4  A    between atoms: O_6  and  C_7 
REMARK    5  A    between atoms: C_10  and  N_11 
REMARK       I    between atoms: N_11  and  C_12 
REMARK    6  A    between atoms: C_12  and  C_13 
REMARK    7  A    between atoms: C_14  and  C_15 
ROOT
HETATM    1  N   UNL     1      40.601 -14.351   1.793  1.00  0.00    -0.323 N 
HETATM    2  C   UNL     1      41.924 -14.112   2.118  1.00  0.00     0.258 C 
HETATM    3  O   UNL     1      42.734 -13.444   1.489  1.00  0.00    -0.267 OA
HETATM    4  H   UNL     1      40.041 -14.903   2.435  1.00  0.00     0.169 HD
ENDROOT
BRANCH   2   5
HETATM    5  C   UNL     1      42.371 -14.683   3.408  1.00  0.00     0.065 A 
HETATM    6  C   UNL     1      42.767 -16.016   3.614  1.00  0.00     0.077 A 
HETATM    7  C   UNL     1      43.069 -16.438   4.945  1.00  0.00     0.009 A 
HETATM    8  C   UNL     1      43.038 -15.451   5.964  1.00  0.00     0.067 A 
HETATM    9  C   UNL     1      43.388 -17.766   5.334  1.00  0.00     0.014 A 
HETATM   10  N   UNL     1      42.723 -14.171   5.733  1.00  0.00    -0.259 NA
HETATM   11  C   UNL     1      43.340 -15.800   7.272  1.00  0.00     0.032 A 
HETATM   12  C   UNL     1      42.398 -13.806   4.477  1.00  0.00     0.135 A 
HETATM   13  C   UNL     1      43.663 -17.107   7.630  1.00  0.00     0.002 A 
HETATM   14  C   UNL     1      43.683 -18.092   6.659  1.00  0.00     0.001 A 
BRANCH   6  15
HETATM   15  C   UNL     1      42.843 -16.936   2.426  1.00  0.00     0.419 C 
HETATM   16  F   UNL     1      43.347 -16.335   1.312  1.00  0.00    -0.166 F 
HETATM   17  F   UNL     1      43.604 -18.048   2.589  1.00  0.00    -0.166 F 
HETATM   18  F   UNL     1      41.601 -17.380   2.074  1.00  0.00    -0.166 F 
ENDBRANCH   6  15
ENDBRANCH   2   5
BRANCH   1  19
HETATM   19  C   UNL     1      39.919 -13.893   0.645  1.00  0.00     0.035 A 
HETATM   20  C   UNL     1      39.789 -14.632  -0.532  1.00  0.00     0.032 A 
HETATM   21  C   UNL     1      39.102 -14.113  -1.637  1.00  0.00     0.039 A 
HETATM   22  C   UNL     1      38.528 -12.845  -1.578  1.00  0.00     0.069 A 
HETATM   23  C   UNL     1      38.658 -12.100  -0.405  1.00  0.00     0.039 A 
HETATM   24  C   UNL     1      39.347 -12.618   0.697  1.00  0.00     0.032 A 
BRANCH  22  25
HETATM   25  O   UNL     1      37.829 -12.232  -2.581  1.00  0.00    -0.349 OA
BRANCH  25  26
HETATM   26  C   UNL     1      38.300 -10.951  -2.996  1.00  0.00     0.203 C 
BRANCH  26  27
HETATM   27  C   UNL     1      37.088 -10.019  -3.089  1.00  0.00     0.260 C 
BRANCH  27  28
HETATM   28  N   UNL     1      36.265 -10.255  -4.346  1.00  0.00    -0.077 N 
HETATM   29  C   UNL     1      36.179  -9.050  -5.242  1.00  0.00     0.269 C 
HETATM   30  H   UNL     1      36.725 -11.006  -4.880  1.00  0.00     0.279 HD
HETATM   31  C   UNL     1      34.891 -10.772  -4.001  1.00  0.00     0.269 C 
ENDBRANCH  27  28
ENDBRANCH  26  27
ENDBRANCH  25  26
ENDBRANCH  22  25
ENDBRANCH   1  19
TORSDOF 7
ENDMDL
MODEL 8
REMARK VINA RESULT:      -7.3      2.886      3.770
REMARK  7 active torsions:
REMARK  status: ('A' for Active; 'I' for Inactive)
REMARK    1  A    between atoms: N_2  and  C_4 
REMARK    2  A    between atoms: C_4  and  C_5 
REMARK    3  A    between atoms: C_5  and  O_6 
REMARK    4  A    between atoms: O_6  and  C_7 
REMARK    5  A    between atoms: C_10  and  N_11 
REMARK       I    between atoms: N_11  and  C_12 
REMARK    6  A    between atoms: C_12  and  C_13 
REMARK    7  A    between atoms: C_14  and  C_15 
ROOT
HETATM    1  N   UNL     1      40.975 -12.710   5.230  1.00  0.00    -0.323 N 
HETATM    2  C   UNL     1      40.637 -13.974   5.679  1.00  0.00     0.258 C 
HETATM    3  O   UNL     1      39.833 -14.260   6.557  1.00  0.00    -0.267 OA
HETATM    4  H   UNL     1      41.641 -12.633   4.468  1.00  0.00     0.169 HD
ENDROOT
BRANCH   2   5
HETATM    5  C   UNL     1      41.282 -15.094   4.958  1.00  0.00     0.065 A 
HETATM    6  C   UNL     1      42.373 -15.843   5.429  1.00  0.00     0.077 A 
HETATM    7  C   UNL     1      42.950 -16.824   4.564  1.00  0.00     0.009 A 
HETATM    8  C   UNL     1      42.317 -17.041   3.313  1.00  0.00     0.067 A 
HETATM    9  C   UNL     1      44.109 -17.592   4.850  1.00  0.00     0.014 A 
HETATM   10  N   UNL     1      41.236 -16.362   2.913  1.00  0.00    -0.259 NA
HETATM   11  C   UNL     1      42.823 -17.993   2.441  1.00  0.00     0.032 A 
HETATM   12  C   UNL     1      40.737 -15.410   3.727  1.00  0.00     0.135 A 
HETATM   13  C   UNL     1      43.955 -18.746   2.746  1.00  0.00     0.002 A 
HETATM   14  C   UNL     1      44.601 -18.541   3.952  1.00  0.00     0.001 A 
BRANCH   6  15
HETATM   15  C   UNL     1      42.890 -15.569   6.816  1.00  0.00     0.419 C 
HETATM   16  F   UNL     1      44.108 -16.130   7.056  1.00  0.00    -0.166 F 
HETATM   17  F   UNL     1      43.046 -14.259   7.139  1.00  0.00    -0.166 F 
HETATM   18  F   UNL     1      42.052 -16.090   7.759  1.00  0.00    -0.166 F 
ENDBRANCH   6  15
ENDBRANCH   2   5
BRANCH   1  19
HETATM   19  C   UNL     1      40.480 -11.481   5.719  1.00  0.00     0.035 A 
HETATM   20  C   UNL     1      41.188 -10.642   6.580  1.00  0.00     0.032 A 
HETATM   21  C   UNL     1      40.632  -9.438   7.031  1.00  0.00     0.039 A 
HETATM   22  C   UNL     1      39.358  -9.052   6.619  1.00  0.00     0.069 A 
HETATM   23  C   UNL     1      38.644  -9.889   5.761  1.00  0.00     0.039 A 
HETATM   24  C   UNL     1      39.198 -11.094   5.314  1.00  0.00     0.032 A 
BRANCH  22  25
HETATM   25  O   UNL     1      38.710  -7.903   6.981  1.00  0.00    -0.349 OA
BRANCH  25  26
HETATM   26  C   UNL     1      39.378  -7.062   7.920  1.00  0.00     0.203 C 
BRANCH  26  27
HETATM   27  C   UNL     1      38.678  -7.228   9.273  1.00  0.00     0.260 C 
BRANCH  27  28
HETATM   28  N   UNL     1      39.637  -7.637  10.379  1.00  0.00    -0.077 N 
HETATM   29  C   UNL     1      39.749  -9.127  10.554  1.00  0.00     0.269 C 
HETATM   30  H   UNL     1      40.570  -7.285  10.126  1.00  0.00     0.279 HD
HETATM   31  C   UNL     1      39.277  -6.966  11.680  1.00  0.00     0.269 C 
ENDBRANCH  27  28
ENDBRANCH  26  27
ENDBRANCH  25  26
ENDBRANCH  22  25
ENDBRANCH   1  19
TORSDOF 7
ENDMDL
MODEL 9
REMARK VINA RESULT:      -7.3     16.524     18.426
REMARK  7 active torsions:
REMARK  status: ('A' for Active; 'I' for Inactive)
REMARK    1  A    between atoms: N_2  and  C_4 
REMARK    2  A    between atoms: C_4  and  C_5 
REMARK    3  A    between atoms: C_5  and  O_6 
REMARK    4  A    between atoms: O_6  and  C_7 
REMARK    5  A    between atoms: C_10  and  N_11 
REMARK       I    between atoms: N_11  and  C_12 
REMARK    6  A    between atoms: C_12  and  C_13 
REMARK    7  A    between atoms: C_14  and  C_15 
ROOT
HETATM    1  N   UNL     1      48.462 -30.486   0.829  1.00  0.00    -0.323 N 
HETATM    2  C   UNL     1      48.849 -29.972  -0.395  1.00  0.00     0.258 C 
HETATM    3  O   UNL     1      49.929 -29.472  -0.683  1.00  0.00    -0.267 OA
HETATM    4  H   UNL     1      47.538 -30.898   0.907  1.00  0.00     0.169 HD
ENDROOT
BRANCH   2   5
HETATM    5  C   UNL     1      47.854 -30.111  -1.482  1.00  0.00     0.065 A 
HETATM    6  C   UNL     1      46.724 -29.294  -1.659  1.00  0.00     0.077 A 
HETATM    7  C   UNL     1      45.801 -29.626  -2.697  1.00  0.00     0.009 A 
HETATM    8  C   UNL     1      46.139 -30.712  -3.546  1.00  0.00     0.067 A 
HETATM    9  C   UNL     1      44.569 -28.965  -2.944  1.00  0.00     0.014 A 
HETATM   10  N   UNL     1      47.256 -31.434  -3.400  1.00  0.00    -0.259 NA
HETATM   11  C   UNL     1      45.288 -31.067  -4.582  1.00  0.00     0.032 A 
HETATM   12  C   UNL     1      48.089 -31.130  -2.386  1.00  0.00     0.135 A 
HETATM   13  C   UNL     1      44.089 -30.397  -4.815  1.00  0.00     0.002 A 
HETATM   14  C   UNL     1      43.727 -29.346  -3.991  1.00  0.00     0.001 A 
BRANCH   6  15
HETATM   15  C   UNL     1      46.535 -28.118  -0.739  1.00  0.00     0.419 C 
HETATM   16  F   UNL     1      45.479 -27.330  -1.086  1.00  0.00    -0.166 F 
HETATM   17  F   UNL     1      46.323 -28.418   0.568  1.00  0.00    -0.166 F 
HETATM   18  F   UNL     1      47.628 -27.301  -0.763  1.00  0.00    -0.166 F 
ENDBRANCH   6  15
ENDBRANCH   2   5
BRANCH   1  19
HETATM   19  C   UNL     1      49.231 -30.513   2.014  1.00  0.00     0.035 A 
HETATM   20  C   UNL     1      49.138 -29.556   3.025  1.00  0.00     0.032 A 
HETATM   21  C   UNL     1      49.936 -29.642   4.173  1.00  0.00     0.039 A 
HETATM   22  C   UNL     1      50.836 -30.693   4.328  1.00  0.00     0.069 A 
HETATM   23  C   UNL     1      50.937 -31.651   3.318  1.00  0.00     0.039 A 
HETATM   24  C   UNL     1      50.141 -31.563   2.171  1.00  0.00     0.032 A 
BRANCH  22  25
HETATM   25  O   UNL     1      51.663 -30.892   5.400  1.00  0.00    -0.349 OA
BRANCH  25  26
HETATM   26  C   UNL     1      51.836 -32.240   5.832  1.00  0.00     0.203 C 
BRANCH  26  27
HETATM   27  C   UNL     1      52.747 -32.220   7.064  1.00  0.00     0.260 C 
BRANCH  27  28
HETATM   28  N   UNL     1      53.932 -31.283   6.898  1.00  0.00    -0.077 N 
HETATM   29  C   UNL     1      55.184 -31.975   6.434  1.00  0.00     0.269 C 
HETATM   30  H   UNL     1      53.679 -30.588   6.182  1.00  0.00     0.279 HD
HETATM   31  C   UNL     1      54.183 -30.503   8.164  1.00  0.00     0.269 C 
ENDBRANCH  27  28
ENDBRANCH  26  27
ENDBRANCH  25  26
ENDBRANCH  22  25
ENDBRANCH   1  19
TORSDOF 7
ENDMDL
MODEL 10
REMARK VINA RESULT:      -7.2      3.427      4.525
REMARK  7 active torsions:
REMARK  status: ('A' for Active; 'I' for Inactive)
REMARK    1  A    between atoms: N_2  and  C_4 
REMARK    2  A    between atoms: C_4  and  C_5 
REMARK    3  A    between atoms: C_5  and  O_6 
REMARK    4  A    between atoms: O_6  and  C_7 
REMARK    5  A    between atoms: C_10  and  N_11 
REMARK       I    between atoms: N_11  and  C_12 
REMARK    6  A    between atoms: C_12  and  C_13 
REMARK    7  A    between atoms: C_14  and  C_15 
ROOT
HETATM    1  N   UNL     1      41.529 -14.256   4.744  1.00  0.00    -0.323 N 
HETATM    2  C   UNL     1      42.792 -14.774   4.968  1.00  0.00     0.258 C 
HETATM    3  O   UNL     1      43.712 -14.250   5.582  1.00  0.00    -0.267 OA
HETATM    4  H   UNL     1      40.859 -14.826   4.239  1.00  0.00     0.169 HD
ENDROOT
BRANCH   2   5
HETATM    5  C   UNL     1      43.013 -16.144   4.454  1.00  0.00     0.065 A 
HETATM    6  C   UNL     1      43.276 -17.276   5.245  1.00  0.00     0.077 A 
HETATM    7  C   UNL     1      43.574 -18.510   4.589  1.00  0.00     0.009 A 
HETATM    8  C   UNL     1      43.492 -18.530   3.173  1.00  0.00     0.067 A 
HETATM    9  C   UNL     1      43.954 -19.714   5.237  1.00  0.00     0.014 A 
HETATM   10  N   UNL     1      43.173 -17.455   2.443  1.00  0.00    -0.259 NA
HETATM   11  C   UNL     1      43.753 -19.706   2.484  1.00  0.00     0.032 A 
HETATM   12  C   UNL     1      42.940 -16.291   3.082  1.00  0.00     0.135 A 
HETATM   13  C   UNL     1      44.113 -20.881   3.140  1.00  0.00     0.002 A 
HETATM   14  C   UNL     1      44.218 -20.883   4.520  1.00  0.00     0.001 A 
BRANCH   6  15
HETATM   15  C   UNL     1      43.243 -17.132   6.743  1.00  0.00     0.419 C 
HETATM   16  F   UNL     1      42.166 -16.429   7.191  1.00  0.00    -0.166 F 
HETATM   17  F   UNL     1      43.211 -18.293   7.447  1.00  0.00    -0.166 F 
HETATM   18  F   UNL     1      44.339 -16.453   7.191  1.00  0.00    -0.166 F 
ENDBRANCH   6  15
ENDBRANCH   2   5
BRANCH   1  19
HETATM   19  C   UNL     1      41.050 -12.993   5.157  1.00  0.00     0.035 A 
HETATM   20  C   UNL     1      39.993 -12.814   6.050  1.00  0.00     0.032 A 
HETATM   21  C   UNL     1      39.565 -11.530   6.412  1.00  0.00     0.039 A 
HETATM   22  C   UNL     1      40.197 -10.404   5.890  1.00  0.00     0.069 A 
HETATM   23  C   UNL     1      41.252 -10.577   4.994  1.00  0.00     0.039 A 
HETATM   24  C   UNL     1      41.676 -11.859   4.630  1.00  0.00     0.032 A 
BRANCH  22  25
HETATM   25  O   UNL     1      39.879  -9.103   6.170  1.00  0.00    -0.349 OA
BRANCH  25  26
HETATM   26  C   UNL     1      39.608  -8.258   5.054  1.00  0.00     0.203 C 
BRANCH  26  27
HETATM   27  C   UNL     1      38.270  -8.698   4.452  1.00  0.00     0.260 C 
BRANCH  27  28
HETATM   28  N   UNL     1      38.380  -9.043   2.975  1.00  0.00    -0.077 N 
HETATM   29  C   UNL     1      38.338 -10.521   2.700  1.00  0.00     0.269 C 
HETATM   30  H   UNL     1      37.574  -8.617   2.497  1.00  0.00     0.279 HD
HETATM   31  C   UNL     1      39.606  -8.414   2.364  1.00  0.00     0.269 C 
ENDBRANCH  27  28
ENDBRANCH  26  27
ENDBRANCH  25  26
ENDBRANCH  22  25
ENDBRANCH   1  19
TORSDOF 7
ENDMDL
