MODEL 1
REMARK VINA RESULT:      -9.5      0.000      0.000
REMARK  4 active torsions:
REMARK  status: ('A' for Active; 'I' for Inactive)
REMARK    1  A    between atoms: C_9  and  C_10 
REMARK    2  A    between atoms: C_20  and  C_21 
REMARK       I    between atoms: C_21  and  N_22 
REMARK    3  A    between atoms: N_22  and  C_23 
REMARK    4  A    between atoms: C_26  and  O_27 
ROOT
HETATM    1  C   UNL     1      39.168 -10.201   4.820  1.00  0.00     0.070 C 
HETATM    2  C   UNL     1      40.463 -10.935   5.074  1.00  0.00     0.037 C 
HETATM    3  N   UNL     1      41.254 -10.413   6.095  1.00  0.00    -0.192 N 
HETATM    4  C   UNL     1      42.538 -10.776   6.288  1.00  0.00     0.725 A 
HETATM    5  N   UNL     1      43.060 -11.822   5.572  1.00  0.00    -0.084 N 
HETATM    6  N   UNL     1      44.375 -11.980   5.829  1.00  0.00    -0.149 NA
HETATM    7  C   UNL     1      44.559 -11.043   6.765  1.00  0.00     0.275 A 
HETATM    8  N   UNL     1      43.461 -10.282   7.075  1.00  0.00    -0.054 NA
HETATM    9  C   UNL     1      42.310 -12.565   4.552  1.00  0.00     0.203 C 
HETATM   10  C   UNL     1      40.922 -11.975   4.333  1.00  0.00     0.062 C 
HETATM   11  H   UNL     1      40.928  -9.569   6.559  1.00  0.00     0.184 HD
ENDROOT
BRANCH  10  12
HETATM   12  C   UNL     1      40.234 -12.481   3.116  1.00  0.00     0.256 C 
HETATM   13  N   UNL     1      40.948 -12.309   1.951  1.00  0.00    -0.323 N 
HETATM   14  H   UNL     1      41.817 -11.796   2.014  1.00  0.00     0.169 HD
HETATM   15  O   UNL     1      39.116 -12.968   3.242  1.00  0.00    -0.267 OA
BRANCH  13  16
HETATM   16  C   UNL     1      40.612 -12.806   0.673  1.00  0.00     0.035 A 
HETATM   17  C   UNL     1      40.139 -14.097   0.438  1.00  0.00     0.032 A 
HETATM   18  C   UNL     1      39.852 -14.523  -0.864  1.00  0.00     0.039 A 
HETATM   19  C   UNL     1      40.021 -13.665  -1.947  1.00  0.00     0.068 A 
HETATM   20  C   UNL     1      40.510 -12.380  -1.727  1.00  0.00     0.039 A 
HETATM   21  C   UNL     1      40.799 -11.953  -0.422  1.00  0.00     0.032 A 
BRANCH  19  22
HETATM   22  O   UNL     1      39.709 -14.199  -3.167  1.00  0.00    -0.356 OA
HETATM   23  C   UNL     1      38.339 -14.528  -3.365  1.00  0.00     0.210 C 
ENDBRANCH  19  22
ENDBRANCH  13  16
ENDBRANCH  10  12
BRANCH   9  24
HETATM   24  C   UNL     1      42.315 -14.076   4.820  1.00  0.00    -0.017 A 
HETATM   25  C   UNL     1      42.683 -15.083   3.870  1.00  0.00    -0.017 A 
HETATM   26  C   UNL     1      42.568 -16.448   4.252  1.00  0.00    -0.025 A 
HETATM   27  C   UNL     1      43.151 -14.838   2.555  1.00  0.00     0.013 A 
HETATM   28  C   UNL     1      42.873 -17.476   3.343  1.00  0.00     0.012 A 
HETATM   29  C   UNL     1      42.145 -16.790   5.543  1.00  0.00     0.012 A 
HETATM   30  C   UNL     1      43.304 -17.190   2.052  1.00  0.00     0.001 A 
HETATM   31  C   UNL     1      43.450 -15.871   1.660  1.00  0.00     0.001 A 
HETATM   32  C   UNL     1      41.829 -15.810   6.474  1.00  0.00     0.002 A 
HETATM   33  C   UNL     1      41.912 -14.470   6.117  1.00  0.00     0.010 A 
ENDBRANCH   9  24
TORSDOF 4
ENDMDL
MODEL 2
REMARK VINA RESULT:      -8.8      2.748      6.479
REMARK  4 active torsions:
REMARK  status: ('A' for Active; 'I' for Inactive)
REMARK    1  A    between atoms: C_9  and  C_10 
REMARK    2  A    between atoms: C_20  and  C_21 
REMARK       I    between atoms: C_21  and  N_22 
REMARK    3  A    between atoms: N_22  and  C_23 
REMARK    4  A    between atoms: C_26  and  O_27 
ROOT
HETATM    1  C   UNL     1      39.441 -14.590  -1.343  1.00  0.00     0.070 C 
HETATM    2  C   UNL     1      40.038 -13.351  -0.720  1.00  0.00     0.037 C 
HETATM    3  N   UNL     1      39.998 -12.207  -1.513  1.00  0.00    -0.192 N 
HETATM    4  C   UNL     1      40.700 -11.090  -1.229  1.00  0.00     0.725 A 
HETATM    5  N   UNL     1      41.354 -10.992  -0.029  1.00  0.00    -0.084 N 
HETATM    6  N   UNL     1      42.074  -9.853   0.042  1.00  0.00    -0.149 NA
HETATM    7  C   UNL     1      41.746  -9.281  -1.122  1.00  0.00     0.275 A 
HETATM    8  N   UNL     1      40.907 -10.005  -1.930  1.00  0.00    -0.054 NA
HETATM    9  C   UNL     1      41.380 -12.062   0.976  1.00  0.00     0.203 C 
HETATM   10  C   UNL     1      40.666 -13.315   0.482  1.00  0.00     0.062 C 
HETATM   11  H   UNL     1      39.614 -12.296  -2.450  1.00  0.00     0.184 HD
ENDROOT
BRANCH  10  12
HETATM   12  C   UNL     1      40.915 -14.522   1.314  1.00  0.00     0.256 C 
HETATM   13  N   UNL     1      42.248 -14.830   1.476  1.00  0.00    -0.323 N 
HETATM   14  H   UNL     1      42.917 -14.271   0.963  1.00  0.00     0.169 HD
HETATM   15  O   UNL     1      39.948 -15.137   1.748  1.00  0.00    -0.267 OA
BRANCH  13  16
HETATM   16  C   UNL     1      42.787 -15.829   2.314  1.00  0.00     0.035 A 
HETATM   17  C   UNL     1      43.064 -17.132   1.896  1.00  0.00     0.032 A 
HETATM   18  C   UNL     1      43.574 -18.074   2.796  1.00  0.00     0.039 A 
HETATM   19  C   UNL     1      43.828 -17.729   4.121  1.00  0.00     0.068 A 
HETATM   20  C   UNL     1      43.539 -16.437   4.554  1.00  0.00     0.039 A 
HETATM   21  C   UNL     1      43.026 -15.492   3.653  1.00  0.00     0.032 A 
BRANCH  19  22
HETATM   22  O   UNL     1      44.323 -18.737   4.900  1.00  0.00    -0.356 OA
HETATM   23  C   UNL     1      43.996 -20.057   4.484  1.00  0.00     0.210 C 
ENDBRANCH  19  22
ENDBRANCH  13  16
ENDBRANCH  10  12
BRANCH   9  24
HETATM   24  C   UNL     1      40.908 -11.572   2.352  1.00  0.00    -0.017 A 
HETATM   25  C   UNL     1      41.739 -11.439   3.512  1.00  0.00    -0.017 A 
HETATM   26  C   UNL     1      41.134 -11.036   4.734  1.00  0.00    -0.025 A 
HETATM   27  C   UNL     1      43.134 -11.686   3.554  1.00  0.00     0.013 A 
HETATM   28  C   UNL     1      41.895 -10.933   5.912  1.00  0.00     0.012 A 
HETATM   29  C   UNL     1      39.766 -10.738   4.785  1.00  0.00     0.012 A 
HETATM   30  C   UNL     1      43.258 -11.211   5.914  1.00  0.00     0.001 A 
HETATM   31  C   UNL     1      43.878 -11.580   4.733  1.00  0.00     0.001 A 
HETATM   32  C   UNL     1      38.973 -10.828   3.649  1.00  0.00     0.002 A 
HETATM   33  C   UNL     1      39.536 -11.242   2.448  1.00  0.00     0.010 A 
ENDBRANCH   9  24
TORSDOF 4
ENDMDL
MODEL 3
REMARK VINA RESULT:      -8.7      2.425      5.612
REMARK  4 active torsions:
REMARK  status: ('A' for Active; 'I' for Inactive)
REMARK    1  A    between atoms: C_9  and  C_10 
REMARK    2  A    between atoms: C_20  and  C_21 
REMARK       I    between atoms: C_21  and  N_22 
REMARK    3  A    between atoms: N_22  and  C_23 
REMARK    4  A    between atoms: C_26  and  O_27 
ROOT
HETATM    1  C   UNL     1      44.223 -12.380   6.396  1.00  0.00     0.070 C 
HETATM    2  C   UNL     1      42.826 -12.141   5.878  1.00  0.00     0.037 C 
HETATM    3  N   UNL     1      42.078 -11.206   6.589  1.00  0.00    -0.192 N 
HETATM    4  C   UNL     1      40.747 -11.053   6.430  1.00  0.00     0.725 A 
HETATM    5  N   UNL     1      40.109 -11.715   5.414  1.00  0.00    -0.084 N 
HETATM    6  N   UNL     1      38.776 -11.517   5.466  1.00  0.00    -0.149 NA
HETATM    7  C   UNL     1      38.692 -10.666   6.494  1.00  0.00     0.275 A 
HETATM    8  N   UNL     1      39.875 -10.356   7.113  1.00  0.00    -0.054 NA
HETATM    9  C   UNL     1      40.783 -12.636   4.491  1.00  0.00     0.203 C 
HETATM   10  C   UNL     1      42.251 -12.825   4.857  1.00  0.00     0.062 C 
HETATM   11  H   UNL     1      42.505 -10.790   7.413  1.00  0.00     0.184 HD
ENDROOT
BRANCH  10  12
HETATM   12  C   UNL     1      42.907 -13.963   4.159  1.00  0.00     0.256 C 
HETATM   13  N   UNL     1      42.704 -15.185   4.759  1.00  0.00    -0.323 N 
HETATM   14  H   UNL     1      42.208 -15.190   5.641  1.00  0.00     0.169 HD
HETATM   15  O   UNL     1      43.573 -13.723   3.159  1.00  0.00    -0.267 OA
BRANCH  13  16
HETATM   16  C   UNL     1      43.088 -16.447   4.256  1.00  0.00     0.035 A 
HETATM   17  C   UNL     1      42.666 -16.958   3.028  1.00  0.00     0.032 A 
HETATM   18  C   UNL     1      43.070 -18.231   2.611  1.00  0.00     0.039 A 
HETATM   19  C   UNL     1      43.910 -19.007   3.405  1.00  0.00     0.068 A 
HETATM   20  C   UNL     1      44.322 -18.515   4.641  1.00  0.00     0.039 A 
HETATM   21  C   UNL     1      43.917 -17.240   5.061  1.00  0.00     0.032 A 
BRANCH  19  22
HETATM   22  O   UNL     1      44.231 -20.232   2.889  1.00  0.00    -0.356 OA
HETATM   23  C   UNL     1      43.580 -20.580   1.673  1.00  0.00     0.210 C 
ENDBRANCH  19  22
ENDBRANCH  13  16
ENDBRANCH  10  12
BRANCH   9  24
HETATM   24  C   UNL     1      40.547 -12.256   3.023  1.00  0.00    -0.017 A 
HETATM   25  C   UNL     1      40.277 -13.181   1.962  1.00  0.00    -0.017 A 
HETATM   26  C   UNL     1      40.149 -12.674   0.639  1.00  0.00    -0.025 A 
HETATM   27  C   UNL     1      40.135 -14.583   2.113  1.00  0.00     0.013 A 
HETATM   28  C   UNL     1      39.930 -13.543  -0.444  1.00  0.00     0.012 A 
HETATM   29  C   UNL     1      40.243 -11.298   0.394  1.00  0.00     0.012 A 
HETATM   30  C   UNL     1      39.823 -14.917  -0.254  1.00  0.00     0.001 A 
HETATM   31  C   UNL     1      39.918 -15.436   1.026  1.00  0.00     0.001 A 
HETATM   32  C   UNL     1      40.461 -10.402   1.430  1.00  0.00     0.002 A 
HETATM   33  C   UNL     1      40.613 -10.874   2.728  1.00  0.00     0.010 A 
ENDBRANCH   9  24
TORSDOF 4
ENDMDL
MODEL 4
REMARK VINA RESULT:      -8.6      2.310      6.821
REMARK  4 active torsions:
REMARK  status: ('A' for Active; 'I' for Inactive)
REMARK    1  A    between atoms: C_9  and  C_10 
REMARK    2  A    between atoms: C_20  and  C_21 
REMARK       I    between atoms: C_21  and  N_22 
REMARK    3  A    between atoms: N_22  and  C_23 
REMARK    4  A    between atoms: C_26  and  O_27 
ROOT
HETATM    1  C   UNL     1      41.553 -10.062   1.225  1.00  0.00     0.070 C 
HETATM    2  C   UNL     1      41.213 -11.517   1.009  1.00  0.00     0.037 C 
HETATM    3  N   UNL     1      40.900 -11.869  -0.302  1.00  0.00    -0.192 N 
HETATM    4  C   UNL     1      40.333 -13.047  -0.632  1.00  0.00     0.725 A 
HETATM    5  N   UNL     1      40.204 -14.024   0.320  1.00  0.00    -0.084 N 
HETATM    6  N   UNL     1      39.535 -15.091  -0.164  1.00  0.00    -0.149 NA
HETATM    7  C   UNL     1      39.358 -14.716  -1.436  1.00  0.00     0.275 A 
HETATM    8  N   UNL     1      39.831 -13.471  -1.764  1.00  0.00    -0.054 NA
HETATM    9  C   UNL     1      40.611 -13.857   1.721  1.00  0.00     0.203 C 
HETATM   10  C   UNL     1      41.110 -12.443   1.996  1.00  0.00     0.062 C 
HETATM   11  H   UNL     1      40.884 -11.127  -0.997  1.00  0.00     0.184 HD
ENDROOT
BRANCH  10  12
HETATM   12  C   UNL     1      41.249 -12.120   3.441  1.00  0.00     0.256 C 
HETATM   13  N   UNL     1      42.520 -12.297   3.939  1.00  0.00    -0.323 N 
HETATM   14  H   UNL     1      43.209 -12.696   3.316  1.00  0.00     0.169 HD
HETATM   15  O   UNL     1      40.250 -11.763   4.054  1.00  0.00    -0.267 OA
BRANCH  13  16
HETATM   16  C   UNL     1      42.979 -11.947   5.228  1.00  0.00     0.035 A 
HETATM   17  C   UNL     1      42.985 -10.644   5.725  1.00  0.00     0.032 A 
HETATM   18  C   UNL     1      43.482 -10.375   7.006  1.00  0.00     0.039 A 
HETATM   19  C   UNL     1      43.966 -11.401   7.813  1.00  0.00     0.068 A 
HETATM   20  C   UNL     1      43.981 -12.703   7.319  1.00  0.00     0.039 A 
HETATM   21  C   UNL     1      43.485 -12.974   6.035  1.00  0.00     0.032 A 
BRANCH  19  22
HETATM   22  O   UNL     1      44.424 -11.010   9.040  1.00  0.00    -0.356 OA
HETATM   23  C   UNL     1      43.936  -9.760   9.513  1.00  0.00     0.210 C 
ENDBRANCH  19  22
ENDBRANCH  13  16
ENDBRANCH  10  12
BRANCH   9  24
HETATM   24  C   UNL     1      41.573 -14.962   2.177  1.00  0.00    -0.017 A 
HETATM   25  C   UNL     1      41.585 -15.563   3.478  1.00  0.00    -0.017 A 
HETATM   26  C   UNL     1      42.588 -16.529   3.768  1.00  0.00    -0.025 A 
HETATM   27  C   UNL     1      40.677 -15.268   4.526  1.00  0.00     0.013 A 
HETATM   28  C   UNL     1      42.672 -17.115   5.043  1.00  0.00     0.012 A 
HETATM   29  C   UNL     1      43.511 -16.910   2.786  1.00  0.00     0.012 A 
HETATM   30  C   UNL     1      41.775 -16.777   6.051  1.00  0.00     0.001 A 
HETATM   31  C   UNL     1      40.773 -15.858   5.790  1.00  0.00     0.001 A 
HETATM   32  C   UNL     1      43.469 -16.356   1.514  1.00  0.00     0.002 A 
HETATM   33  C   UNL     1      42.514 -15.394   1.214  1.00  0.00     0.010 A 
ENDBRANCH   9  24
TORSDOF 4
ENDMDL
MODEL 5
REMARK VINA RESULT:      -8.4     16.476     19.205
REMARK  4 active torsions:
REMARK  status: ('A' for Active; 'I' for Inactive)
REMARK    1  A    between atoms: C_9  and  C_10 
REMARK    2  A    between atoms: C_20  and  C_21 
REMARK       I    between atoms: C_21  and  N_22 
REMARK    3  A    between atoms: N_22  and  C_23 
REMARK    4  A    between atoms: C_26  and  O_27 
ROOT
HETATM    1  C   UNL     1      47.475 -30.185   3.259  1.00  0.00     0.070 C 
HETATM    2  C   UNL     1      46.233 -30.144   2.402  1.00  0.00     0.037 C 
HETATM    3  N   UNL     1      45.078 -29.707   3.046  1.00  0.00    -0.192 N 
HETATM    4  C   UNL     1      43.845 -29.846   2.519  1.00  0.00     0.725 A 
HETATM    5  N   UNL     1      43.708 -30.276   1.225  1.00  0.00    -0.084 N 
HETATM    6  N   UNL     1      42.410 -30.443   0.901  1.00  0.00    -0.149 NA
HETATM    7  C   UNL     1      41.819 -30.022   2.025  1.00  0.00     0.275 A 
HETATM    8  N   UNL     1      42.661 -29.649   3.041  1.00  0.00    -0.054 NA
HETATM    9  C   UNL     1      44.840 -30.648   0.366  1.00  0.00     0.203 C 
HETATM   10  C   UNL     1      46.164 -30.576   1.118  1.00  0.00     0.062 C 
HETATM   11  H   UNL     1      45.145 -29.491   4.038  1.00  0.00     0.184 HD
ENDROOT
BRANCH  10  12
HETATM   12  C   UNL     1      47.299 -31.223   0.408  1.00  0.00     0.256 C 
HETATM   13  N   UNL     1      48.312 -30.359   0.057  1.00  0.00    -0.323 N 
HETATM   14  H   UNL     1      48.162 -29.375   0.237  1.00  0.00     0.169 HD
HETATM   15  O   UNL     1      47.229 -32.425   0.177  1.00  0.00    -0.267 OA
BRANCH  13  16
HETATM   16  C   UNL     1      49.562 -30.704  -0.500  1.00  0.00     0.035 A 
HETATM   17  C   UNL     1      49.966 -30.347  -1.788  1.00  0.00     0.032 A 
HETATM   18  C   UNL     1      51.213 -30.752  -2.278  1.00  0.00     0.039 A 
HETATM   19  C   UNL     1      52.078 -31.506  -1.490  1.00  0.00     0.068 A 
HETATM   20  C   UNL     1      51.677 -31.883  -0.211  1.00  0.00     0.039 A 
HETATM   21  C   UNL     1      50.427 -31.479   0.281  1.00  0.00     0.032 A 
BRANCH  19  22
HETATM   22  O   UNL     1      53.264 -31.839  -2.083  1.00  0.00    -0.356 OA
HETATM   23  C   UNL     1      54.061 -32.787  -1.382  1.00  0.00     0.210 C 
ENDBRANCH  19  22
ENDBRANCH  13  16
ENDBRANCH  10  12
BRANCH   9  24
HETATM   24  C   UNL     1      44.830 -29.880  -0.963  1.00  0.00    -0.017 A 
HETATM   25  C   UNL     1      44.596 -30.461  -2.252  1.00  0.00    -0.017 A 
HETATM   26  C   UNL     1      44.690 -29.623  -3.398  1.00  0.00    -0.025 A 
HETATM   27  C   UNL     1      44.284 -31.822  -2.493  1.00  0.00     0.013 A 
HETATM   28  C   UNL     1      44.514 -30.152  -4.689  1.00  0.00     0.012 A 
HETATM   29  C   UNL     1      44.962 -28.257  -3.258  1.00  0.00     0.012 A 
HETATM   30  C   UNL     1      44.235 -31.501  -4.882  1.00  0.00     0.001 A 
HETATM   31  C   UNL     1      44.113 -32.334  -3.784  1.00  0.00     0.001 A 
HETATM   32  C   UNL     1      45.146 -27.690  -2.005  1.00  0.00     0.002 A 
HETATM   33  C   UNL     1      45.083 -28.491  -0.872  1.00  0.00     0.010 A 
ENDBRANCH   9  24
TORSDOF 4
ENDMDL
MODEL 6
REMARK VINA RESULT:      -8.2      1.656      2.121
REMARK  4 active torsions:
REMARK  status: ('A' for Active; 'I' for Inactive)
REMARK    1  A    between atoms: C_9  and  C_10 
REMARK    2  A    between atoms: C_20  and  C_21 
REMARK       I    between atoms: C_21  and  N_22 
REMARK    3  A    between atoms: N_22  and  C_23 
REMARK    4  A    between atoms: C_26  and  O_27 
ROOT
HETATM    1  C   UNL     1      40.560  -8.638   5.396  1.00  0.00     0.070 C 
HETATM    2  C   UNL     1      41.555  -9.757   5.590  1.00  0.00     0.037 C 
HETATM    3  N   UNL     1      42.350  -9.656   6.729  1.00  0.00    -0.192 N 
HETATM    4  C   UNL     1      43.449 -10.414   6.928  1.00  0.00     0.725 A 
HETATM    5  N   UNL     1      43.720 -11.448   6.071  1.00  0.00    -0.084 N 
HETATM    6  N   UNL     1      44.898 -12.032   6.369  1.00  0.00    -0.149 NA
HETATM    7  C   UNL     1      45.245 -11.344   7.463  1.00  0.00     0.275 A 
HETATM    8  N   UNL     1      44.386 -10.344   7.839  1.00  0.00    -0.054 NA
HETATM    9  C   UNL     1      42.900 -11.770   4.897  1.00  0.00     0.203 C 
HETATM   10  C   UNL     1      41.770 -10.764   4.707  1.00  0.00     0.062 C 
HETATM   11  H   UNL     1      42.234  -8.832   7.314  1.00  0.00     0.184 HD
ENDROOT
BRANCH  10  12
HETATM   12  C   UNL     1      41.098 -10.852   3.383  1.00  0.00     0.256 C 
HETATM   13  N   UNL     1      41.916 -10.560   2.314  1.00  0.00    -0.323 N 
HETATM   14  H   UNL     1      42.853 -10.242   2.523  1.00  0.00     0.169 HD
HETATM   15  O   UNL     1      39.907 -11.139   3.356  1.00  0.00    -0.267 OA
BRANCH  13  16
HETATM   16  C   UNL     1      41.595 -10.690   0.945  1.00  0.00     0.035 A 
HETATM   17  C   UNL     1      41.665  -9.642   0.026  1.00  0.00     0.032 A 
HETATM   18  C   UNL     1      41.303  -9.844  -1.310  1.00  0.00     0.039 A 
HETATM   19  C   UNL     1      40.880 -11.095  -1.753  1.00  0.00     0.068 A 
HETATM   20  C   UNL     1      40.788 -12.143  -0.840  1.00  0.00     0.039 A 
HETATM   21  C   UNL     1      41.149 -11.941   0.500  1.00  0.00     0.032 A 
BRANCH  19  22
HETATM   22  O   UNL     1      40.554 -11.164  -3.079  1.00  0.00    -0.356 OA
HETATM   23  C   UNL     1      40.861 -10.009  -3.852  1.00  0.00     0.210 C 
ENDBRANCH  19  22
ENDBRANCH  13  16
ENDBRANCH  10  12
BRANCH   9  24
HETATM   24  C   UNL     1      42.441 -13.235   4.898  1.00  0.00    -0.017 A 
HETATM   25  C   UNL     1      42.682 -14.177   3.845  1.00  0.00    -0.017 A 
HETATM   26  C   UNL     1      42.130 -15.483   3.967  1.00  0.00    -0.025 A 
HETATM   27  C   UNL     1      43.426 -13.918   2.667  1.00  0.00     0.013 A 
HETATM   28  C   UNL     1      42.298 -16.431   2.944  1.00  0.00     0.012 A 
HETATM   29  C   UNL     1      41.406 -15.843   5.111  1.00  0.00     0.012 A 
HETATM   30  C   UNL     1      43.013 -16.126   1.790  1.00  0.00     0.001 A 
HETATM   31  C   UNL     1      43.584 -14.872   1.656  1.00  0.00     0.001 A 
HETATM   32  C   UNL     1      41.211 -14.940   6.147  1.00  0.00     0.002 A 
HETATM   33  C   UNL     1      41.721 -13.652   6.041  1.00  0.00     0.010 A 
ENDBRANCH   9  24
TORSDOF 4
ENDMDL
MODEL 7
REMARK VINA RESULT:      -8.1      2.702      6.905
REMARK  4 active torsions:
REMARK  status: ('A' for Active; 'I' for Inactive)
REMARK    1  A    between atoms: C_9  and  C_10 
REMARK    2  A    between atoms: C_20  and  C_21 
REMARK       I    between atoms: C_21  and  N_22 
REMARK    3  A    between atoms: N_22  and  C_23 
REMARK    4  A    between atoms: C_26  and  O_27 
ROOT
HETATM    1  C   UNL     1      42.519 -11.086   2.627  1.00  0.00     0.070 C 
HETATM    2  C   UNL     1      41.963 -12.480   2.787  1.00  0.00     0.037 C 
HETATM    3  N   UNL     1      41.619 -13.124   1.601  1.00  0.00    -0.192 N 
HETATM    4  C   UNL     1      40.884 -14.255   1.565  1.00  0.00     0.725 A 
HETATM    5  N   UNL     1      40.594 -14.909   2.733  1.00  0.00    -0.084 N 
HETATM    6  N   UNL     1      39.777 -15.960   2.513  1.00  0.00    -0.149 NA
HETATM    7  C   UNL     1      39.678 -15.921   1.180  1.00  0.00     0.275 A 
HETATM    8  N   UNL     1      40.339 -14.892   0.560  1.00  0.00    -0.054 NA
HETATM    9  C   UNL     1      41.002 -14.429   4.059  1.00  0.00     0.203 C 
HETATM   10  C   UNL     1      41.707 -13.081   3.976  1.00  0.00     0.062 C 
HETATM   11  H   UNL     1      41.726 -12.604   0.734  1.00  0.00     0.184 HD
ENDROOT
BRANCH  10  12
HETATM   12  C   UNL     1      41.873 -12.402   5.290  1.00  0.00     0.256 C 
HETATM   13  N   UNL     1      43.181 -12.128   5.621  1.00  0.00    -0.323 N 
HETATM   14  H   UNL     1      43.898 -12.474   4.998  1.00  0.00     0.169 HD
HETATM   15  O   UNL     1      40.870 -12.177   5.956  1.00  0.00    -0.267 OA
BRANCH  13  16
HETATM   16  C   UNL     1      43.632 -11.380   6.731  1.00  0.00     0.035 A 
HETATM   17  C   UNL     1      42.875 -10.393   7.364  1.00  0.00     0.032 A 
HETATM   18  C   UNL     1      43.404  -9.676   8.444  1.00  0.00     0.039 A 
HETATM   19  C   UNL     1      44.687  -9.941   8.915  1.00  0.00     0.068 A 
HETATM   20  C   UNL     1      45.458 -10.911   8.278  1.00  0.00     0.039 A 
HETATM   21  C   UNL     1      44.929 -11.629   7.195  1.00  0.00     0.032 A 
BRANCH  19  22
HETATM   22  O   UNL     1      45.089  -9.173   9.972  1.00  0.00    -0.356 OA
HETATM   23  C   UNL     1      44.105  -8.930  10.970  1.00  0.00     0.210 C 
ENDBRANCH  19  22
ENDBRANCH  13  16
ENDBRANCH  10  12
BRANCH   9  24
HETATM   24  C   UNL     1      41.778 -15.496   4.844  1.00  0.00    -0.017 A 
HETATM   25  C   UNL     1      42.630 -16.492   4.265  1.00  0.00    -0.017 A 
HETATM   26  C   UNL     1      43.226 -17.455   5.125  1.00  0.00    -0.025 A 
HETATM   27  C   UNL     1      42.930 -16.612   2.885  1.00  0.00     0.013 A 
HETATM   28  C   UNL     1      44.034 -18.481   4.603  1.00  0.00     0.012 A 
HETATM   29  C   UNL     1      43.015 -17.399   6.508  1.00  0.00     0.012 A 
HETATM   30  C   UNL     1      44.281 -18.578   3.237  1.00  0.00     0.001 A 
HETATM   31  C   UNL     1      43.735 -17.639   2.380  1.00  0.00     0.001 A 
HETATM   32  C   UNL     1      42.223 -16.407   7.070  1.00  0.00     0.002 A 
HETATM   33  C   UNL     1      41.611 -15.468   6.248  1.00  0.00     0.010 A 
ENDBRANCH   9  24
TORSDOF 4
ENDMDL
MODEL 8
REMARK VINA RESULT:      -7.8      2.551      6.281
REMARK  4 active torsions:
REMARK  status: ('A' for Active; 'I' for Inactive)
REMARK    1  A    between atoms: C_9  and  C_10 
REMARK    2  A    between atoms: C_20  and  C_21 
REMARK       I    between atoms: C_21  and  N_22 
REMARK    3  A    between atoms: N_22  and  C_23 
REMARK    4  A    between atoms: C_26  and  O_27 
ROOT
HETATM    1  C   UNL     1      42.133  -9.687   4.859  1.00  0.00     0.070 C 
HETATM    2  C   UNL     1      41.153  -9.811   3.717  1.00  0.00     0.037 C 
HETATM    3  N   UNL     1      40.124  -8.873   3.711  1.00  0.00    -0.192 N 
HETATM    4  C   UNL     1      39.032  -8.985   2.926  1.00  0.00     0.725 A 
HETATM    5  N   UNL     1      38.988  -9.962   1.966  1.00  0.00    -0.084 N 
HETATM    6  N   UNL     1      37.790  -9.982   1.346  1.00  0.00    -0.149 NA
HETATM    7  C   UNL     1      37.190  -8.940   1.933  1.00  0.00     0.275 A 
HETATM    8  N   UNL     1      37.915  -8.303   2.907  1.00  0.00    -0.054 NA
HETATM    9  C   UNL     1      40.056 -10.947   1.756  1.00  0.00     0.203 C 
HETATM   10  C   UNL     1      41.168 -10.799   2.787  1.00  0.00     0.062 C 
HETATM   11  H   UNL     1      40.084  -8.212   4.482  1.00  0.00     0.184 HD
ENDROOT
BRANCH  10  12
HETATM   12  C   UNL     1      42.119 -11.942   2.821  1.00  0.00     0.256 C 
HETATM   13  N   UNL     1      41.516 -13.173   2.962  1.00  0.00    -0.323 N 
HETATM   14  H   UNL     1      40.516 -13.183   3.107  1.00  0.00     0.169 HD
HETATM   15  O   UNL     1      43.318 -11.702   2.751  1.00  0.00    -0.267 OA
BRANCH  13  16
HETATM   16  C   UNL     1      42.146 -14.434   2.892  1.00  0.00     0.035 A 
HETATM   17  C   UNL     1      42.449 -15.089   1.697  1.00  0.00     0.032 A 
HETATM   18  C   UNL     1      43.051 -16.352   1.712  1.00  0.00     0.039 A 
HETATM   19  C   UNL     1      43.371 -16.975   2.916  1.00  0.00     0.068 A 
HETATM   20  C   UNL     1      43.056 -16.339   4.114  1.00  0.00     0.039 A 
HETATM   21  C   UNL     1      42.451 -15.073   4.100  1.00  0.00     0.032 A 
BRANCH  19  22
HETATM   22  O   UNL     1      43.953 -18.206   2.798  1.00  0.00    -0.356 OA
HETATM   23  C   UNL     1      44.302 -18.845   4.020  1.00  0.00     0.210 C 
ENDBRANCH  19  22
ENDBRANCH  13  16
ENDBRANCH  10  12
BRANCH   9  24
HETATM   24  C   UNL     1      40.547 -10.963   0.302  1.00  0.00    -0.017 A 
HETATM   25  C   UNL     1      40.333 -12.030  -0.631  1.00  0.00    -0.017 A 
HETATM   26  C   UNL     1      40.912 -11.922  -1.926  1.00  0.00    -0.025 A 
HETATM   27  C   UNL     1      39.590 -13.209  -0.373  1.00  0.00     0.013 A 
HETATM   28  C   UNL     1      40.771 -12.960  -2.863  1.00  0.00     0.012 A 
HETATM   29  C   UNL     1      41.637 -10.779  -2.286  1.00  0.00     0.012 A 
HETATM   30  C   UNL     1      40.056 -14.113  -2.558  1.00  0.00     0.001 A 
HETATM   31  C   UNL     1      39.459 -14.234  -1.315  1.00  0.00     0.001 A 
HETATM   32  C   UNL     1      41.806  -9.730  -1.393  1.00  0.00     0.002 A 
HETATM   33  C   UNL     1      41.269  -9.821  -0.115  1.00  0.00     0.010 A 
ENDBRANCH   9  24
TORSDOF 4
ENDMDL
MODEL 9
REMARK VINA RESULT:      -7.8      2.632      6.632
REMARK  4 active torsions:
REMARK  status: ('A' for Active; 'I' for Inactive)
REMARK    1  A    between atoms: C_9  and  C_10 
REMARK    2  A    between atoms: C_20  and  C_21 
REMARK       I    between atoms: C_21  and  N_22 
REMARK    3  A    between atoms: N_22  and  C_23 
REMARK    4  A    between atoms: C_26  and  O_27 
ROOT
HETATM    1  C   UNL     1      41.656  -9.985   0.564  1.00  0.00     0.070 C 
HETATM    2  C   UNL     1      41.279 -11.447   0.561  1.00  0.00     0.037 C 
HETATM    3  N   UNL     1      40.998 -11.988  -0.691  1.00  0.00    -0.192 N 
HETATM    4  C   UNL     1      40.407 -13.190  -0.857  1.00  0.00     0.725 A 
HETATM    5  N   UNL     1      40.220 -14.005   0.228  1.00  0.00    -0.084 N 
HETATM    6  N   UNL     1      39.535 -15.117  -0.111  1.00  0.00    -0.149 NA
HETATM    7  C   UNL     1      39.410 -14.938  -1.430  1.00  0.00     0.275 A 
HETATM    8  N   UNL     1      39.929 -13.770  -1.928  1.00  0.00    -0.054 NA
HETATM    9  C   UNL     1      40.587 -13.634   1.600  1.00  0.00     0.203 C 
HETATM   10  C   UNL     1      41.119 -12.208   1.673  1.00  0.00     0.062 C 
HETATM   11  H   UNL     1      41.026 -11.362  -1.492  1.00  0.00     0.184 HD
ENDROOT
BRANCH  10  12
HETATM   12  C   UNL     1      41.221 -11.670   3.056  1.00  0.00     0.256 C 
HETATM   13  N   UNL     1      40.044 -11.151   3.548  1.00  0.00    -0.323 N 
HETATM   14  H   UNL     1      39.258 -11.108   2.914  1.00  0.00     0.169 HD
HETATM   15  O   UNL     1      42.312 -11.707   3.614  1.00  0.00    -0.267 OA
BRANCH  13  16
HETATM   16  C   UNL     1      39.806 -10.697   4.863  1.00  0.00     0.035 A 
HETATM   17  C   UNL     1      39.185 -11.462   5.851  1.00  0.00     0.032 A 
HETATM   18  C   UNL     1      38.960 -10.929   7.126  1.00  0.00     0.039 A 
HETATM   19  C   UNL     1      39.363  -9.633   7.438  1.00  0.00     0.068 A 
HETATM   20  C   UNL     1      39.967  -8.854   6.454  1.00  0.00     0.039 A 
HETATM   21  C   UNL     1      40.191  -9.386   5.175  1.00  0.00     0.032 A 
BRANCH  19  22
HETATM   22  O   UNL     1      39.085  -9.229   8.714  1.00  0.00    -0.356 OA
HETATM   23  C   UNL     1      38.918 -10.270   9.670  1.00  0.00     0.210 C 
ENDBRANCH  19  22
ENDBRANCH  13  16
ENDBRANCH  10  12
BRANCH   9  24
HETATM   24  C   UNL     1      41.502 -14.679   2.254  1.00  0.00    -0.017 A 
HETATM   25  C   UNL     1      41.411 -15.122   3.614  1.00  0.00    -0.017 A 
HETATM   26  C   UNL     1      42.379 -16.049   4.090  1.00  0.00    -0.025 A 
HETATM   27  C   UNL     1      40.430 -14.705   4.548  1.00  0.00     0.013 A 
HETATM   28  C   UNL     1      42.363 -16.481   5.427  1.00  0.00     0.012 A 
HETATM   29  C   UNL     1      43.369 -16.544   3.231  1.00  0.00     0.012 A 
HETATM   30  C   UNL     1      41.397 -16.025   6.319  1.00  0.00     0.001 A 
HETATM   31  C   UNL     1      40.426 -15.143   5.877  1.00  0.00     0.001 A 
HETATM   32  C   UNL     1      43.428 -16.144   1.903  1.00  0.00     0.002 A 
HETATM   33  C   UNL     1      42.508 -15.222   1.421  1.00  0.00     0.010 A 
ENDBRANCH   9  24
TORSDOF 4
ENDMDL
MODEL 10
REMARK VINA RESULT:      -7.5      2.971      8.028
REMARK  4 active torsions:
REMARK  status: ('A' for Active; 'I' for Inactive)
REMARK    1  A    between atoms: C_9  and  C_10 
REMARK    2  A    between atoms: C_20  and  C_21 
REMARK       I    between atoms: C_21  and  N_22 
REMARK    3  A    between atoms: N_22  and  C_23 
REMARK    4  A    between atoms: C_26  and  O_27 
ROOT
HETATM    1  C   UNL     1      40.538 -16.075   2.076  1.00  0.00     0.070 C 
HETATM    2  C   UNL     1      40.355 -14.958   1.076  1.00  0.00     0.037 C 
HETATM    3  N   UNL     1      39.513 -15.250   0.005  1.00  0.00    -0.192 N 
HETATM    4  C   UNL     1      39.434 -14.479  -1.099  1.00  0.00     0.725 A 
HETATM    5  N   UNL     1      40.071 -13.265  -1.122  1.00  0.00    -0.084 N 
HETATM    6  N   UNL     1      39.960 -12.680  -2.332  1.00  0.00    -0.149 NA
HETATM    7  C   UNL     1      39.180 -13.564  -2.964  1.00  0.00     0.275 A 
HETATM    8  N   UNL     1      38.836 -14.680  -2.246  1.00  0.00    -0.054 NA
HETATM    9  C   UNL     1      40.889 -12.753  -0.016  1.00  0.00     0.203 C 
HETATM   10  C   UNL     1      41.008 -13.770   1.113  1.00  0.00     0.062 C 
HETATM   11  H   UNL     1      39.123 -16.187  -0.046  1.00  0.00     0.184 HD
ENDROOT
BRANCH  10  12
HETATM   12  C   UNL     1      42.058 -13.442   2.115  1.00  0.00     0.256 C 
HETATM   13  N   UNL     1      41.572 -12.901   3.284  1.00  0.00    -0.323 N 
HETATM   14  H   UNL     1      40.580 -12.705   3.326  1.00  0.00     0.169 HD
HETATM   15  O   UNL     1      43.228 -13.648   1.817  1.00  0.00    -0.267 OA
BRANCH  13  16
HETATM   16  C   UNL     1      42.309 -12.618   4.454  1.00  0.00     0.035 A 
HETATM   17  C   UNL     1      42.841 -11.363   4.756  1.00  0.00     0.032 A 
HETATM   18  C   UNL     1      43.585 -11.170   5.925  1.00  0.00     0.039 A 
HETATM   19  C   UNL     1      43.798 -12.218   6.816  1.00  0.00     0.068 A 
HETATM   20  C   UNL     1      43.288 -13.479   6.516  1.00  0.00     0.039 A 
HETATM   21  C   UNL     1      42.543 -13.675   5.343  1.00  0.00     0.032 A 
BRANCH  19  22
HETATM   22  O   UNL     1      44.541 -11.903   7.920  1.00  0.00    -0.356 OA
HETATM   23  C   UNL     1      44.281 -10.628   8.496  1.00  0.00     0.210 C 
ENDBRANCH  19  22
ENDBRANCH  13  16
ENDBRANCH  10  12
BRANCH   9  24
HETATM   24  C   UNL     1      40.434 -11.360   0.441  1.00  0.00    -0.017 A 
HETATM   25  C   UNL     1      40.974 -10.118  -0.030  1.00  0.00    -0.017 A 
HETATM   26  C   UNL     1      40.490  -8.910   0.544  1.00  0.00    -0.025 A 
HETATM   27  C   UNL     1      41.972  -9.984  -1.027  1.00  0.00     0.013 A 
HETATM   28  C   UNL     1      41.018  -7.668   0.151  1.00  0.00     0.012 A 
HETATM   29  C   UNL     1      39.480  -8.940   1.514  1.00  0.00     0.012 A 
HETATM   30  C   UNL     1      42.017  -7.583  -0.813  1.00  0.00     0.001 A 
HETATM   31  C   UNL     1      42.489  -8.741  -1.407  1.00  0.00     0.001 A 
HETATM   32  C   UNL     1      38.930 -10.142   1.936  1.00  0.00     0.002 A 
HETATM   33  C   UNL     1      39.402 -11.337   1.407  1.00  0.00     0.010 A 
ENDBRANCH   9  24
TORSDOF 4
ENDMDL
