MODEL 1
REMARK VINA RESULT:      -8.2      0.000      0.000
REMARK  3 active torsions:
REMARK  status: ('A' for Active; 'I' for Inactive)
REMARK    1  A    between atoms: C_2  and  N_3 
REMARK       I    between atoms: N_3  and  C_4 
REMARK    2  A    between atoms: C_4  and  C_5 
REMARK    3  A    between atoms: C_5  and  C_6 
ROOT
HETATM    1  C   UNL     1      42.055 -16.757   2.951  1.00  0.00     0.286 C 
HETATM    2  N   UNL     1      42.468 -18.197   2.652  1.00  0.00    -0.056 N 
HETATM    3  H   UNL     1      41.912 -18.817   3.253  1.00  0.00     0.278 HD
HETATM    4  H   UNL     1      42.154 -18.419   1.682  1.00  0.00     0.278 HD
HETATM    5  C   UNL     1      43.938 -18.473   2.809  1.00  0.00     0.209 C 
HETATM    6  C   UNL     1      44.353 -18.098   4.252  1.00  0.00     0.115 C 
HETATM    7  N   UNL     1      43.930 -16.744   4.598  1.00  0.00    -0.353 N 
HETATM    8  C   UNL     1      42.772 -16.149   4.168  1.00  0.00     0.249 C 
HETATM    9  O   UNL     1      42.383 -15.109   4.690  1.00  0.00    -0.271 OA
HETATM   10  C   UNL     1      44.213 -19.939   2.478  1.00  0.00     0.035 C 
HETATM   11  C   UNL     1      43.676 -20.907   3.530  1.00  0.00     0.002 C 
HETATM   12  C   UNL     1      44.155 -20.537   4.929  1.00  0.00     0.002 C 
HETATM   13  C   UNL     1      43.809 -19.096   5.287  1.00  0.00     0.027 C 
HETATM   14  H   UNL     1      44.352 -16.292   5.409  1.00  0.00     0.163 HD
ENDROOT
BRANCH   1  15
HETATM   15  C   UNL     1      42.261 -15.835   1.741  1.00  0.00     0.146 C 
BRANCH  15  16
HETATM   16  C   UNL     1      40.930 -15.333   1.234  1.00  0.00     0.224 C 
HETATM   17  N   UNL     1      41.015 -14.485   0.155  1.00  0.00    -0.327 N 
HETATM   18  H   UNL     1      41.939 -14.200  -0.160  1.00  0.00     0.169 HD
HETATM   19  O   UNL     1      39.907 -15.728   1.795  1.00  0.00    -0.273 OA
BRANCH  17  20
HETATM   20  C   UNL     1      39.941 -13.888  -0.543  1.00  0.00     0.034 A 
HETATM   21  C   UNL     1      39.452 -14.568  -1.668  1.00  0.00     0.031 A 
HETATM   22  C   UNL     1      38.398 -14.037  -2.420  1.00  0.00     0.026 A 
HETATM   23  C   UNL     1      37.818 -12.831  -2.043  1.00  0.00     0.034 A 
HETATM   24  C   UNL     1      38.286 -12.151  -0.922  1.00  0.00     0.026 A 
HETATM   25 CL   UNL     1      36.522 -12.176  -2.963  1.00  0.00    -0.084 Cl
HETATM   26  C   UNL     1      39.346 -12.679  -0.175  1.00  0.00     0.031 A 
ENDBRANCH  17  20
ENDBRANCH  15  16
ENDBRANCH   1  15
TORSDOF 3
ENDMDL
MODEL 2
REMARK VINA RESULT:      -8.2      3.655      8.035
REMARK  3 active torsions:
REMARK  status: ('A' for Active; 'I' for Inactive)
REMARK    1  A    between atoms: C_2  and  N_3 
REMARK       I    between atoms: N_3  and  C_4 
REMARK    2  A    between atoms: C_4  and  C_5 
REMARK    3  A    between atoms: C_5  and  C_6 
ROOT
HETATM    1  C   UNL     1      41.855 -13.125   1.532  1.00  0.00     0.286 C 
HETATM    2  N   UNL     1      41.223 -13.902   0.378  1.00  0.00    -0.056 N 
HETATM    3  H   UNL     1      41.913 -13.960  -0.380  1.00  0.00     0.278 HD
HETATM    4  H   UNL     1      41.096 -14.888   0.696  1.00  0.00     0.278 HD
HETATM    5  C   UNL     1      39.922 -13.335  -0.122  1.00  0.00     0.209 C 
HETATM    6  C   UNL     1      40.162 -11.867  -0.549  1.00  0.00     0.115 C 
HETATM    7  N   UNL     1      40.814 -11.099   0.509  1.00  0.00    -0.353 N 
HETATM    8  C   UNL     1      41.750 -11.598   1.378  1.00  0.00     0.249 C 
HETATM    9  O   UNL     1      42.413 -10.835   2.074  1.00  0.00    -0.271 OA
HETATM   10  C   UNL     1      39.401 -14.205  -1.264  1.00  0.00     0.035 C 
HETATM   11  C   UNL     1      40.222 -14.077  -2.545  1.00  0.00     0.002 C 
HETATM   12  C   UNL     1      40.386 -12.621  -2.963  1.00  0.00     0.002 C 
HETATM   13  C   UNL     1      40.981 -11.770  -1.846  1.00  0.00     0.027 C 
HETATM   14  H   UNL     1      40.800 -10.082   0.454  1.00  0.00     0.163 HD
ENDROOT
BRANCH   1  15
HETATM   15  C   UNL     1      41.266 -13.529   2.890  1.00  0.00     0.146 C 
BRANCH  15  16
HETATM   16  C   UNL     1      41.446 -15.011   3.118  1.00  0.00     0.224 C 
HETATM   17  N   UNL     1      42.706 -15.373   3.535  1.00  0.00    -0.327 N 
HETATM   18  H   UNL     1      43.423 -14.655   3.576  1.00  0.00     0.169 HD
HETATM   19  O   UNL     1      40.476 -15.749   2.941  1.00  0.00    -0.273 OA
BRANCH  17  20
HETATM   20  C   UNL     1      43.153 -16.676   3.852  1.00  0.00     0.034 A 
HETATM   21  C   UNL     1      43.288 -16.993   5.211  1.00  0.00     0.031 A 
HETATM   22  C   UNL     1      43.737 -18.258   5.607  1.00  0.00     0.026 A 
HETATM   23  C   UNL     1      44.040 -19.217   4.646  1.00  0.00     0.034 A 
HETATM   24  C   UNL     1      43.899 -18.919   3.294  1.00  0.00     0.026 A 
HETATM   25 CL   UNL     1      44.590 -20.772   5.128  1.00  0.00    -0.084 Cl
HETATM   26  C   UNL     1      43.458 -17.651   2.898  1.00  0.00     0.031 A 
ENDBRANCH  17  20
ENDBRANCH  15  16
ENDBRANCH   1  15
TORSDOF 3
ENDMDL
MODEL 3
REMARK VINA RESULT:      -7.8      4.547      7.922
REMARK  3 active torsions:
REMARK  status: ('A' for Active; 'I' for Inactive)
REMARK    1  A    between atoms: C_2  and  N_3 
REMARK       I    between atoms: N_3  and  C_4 
REMARK    2  A    between atoms: C_4  and  C_5 
REMARK    3  A    between atoms: C_5  and  C_6 
ROOT
HETATM    1  C   UNL     1      43.328 -13.297   6.203  1.00  0.00     0.286 C 
HETATM    2  N   UNL     1      42.132 -13.094   5.276  1.00  0.00    -0.056 N 
HETATM    3  H   UNL     1      42.473 -12.665   4.407  1.00  0.00     0.278 HD
HETATM    4  H   UNL     1      41.794 -14.039   4.988  1.00  0.00     0.278 HD
HETATM    5  C   UNL     1      41.009 -12.287   5.867  1.00  0.00     0.209 C 
HETATM    6  C   UNL     1      41.572 -10.913   6.302  1.00  0.00     0.115 C 
HETATM    7  N   UNL     1      42.753 -11.060   7.150  1.00  0.00    -0.353 N 
HETATM    8  C   UNL     1      43.697 -12.045   7.017  1.00  0.00     0.249 C 
HETATM    9  O   UNL     1      44.767 -11.957   7.613  1.00  0.00    -0.271 OA
HETATM   10  C   UNL     1      39.882 -12.166   4.843  1.00  0.00     0.035 C 
HETATM   11  C   UNL     1      40.230 -11.259   3.666  1.00  0.00     0.002 C 
HETATM   12  C   UNL     1      40.726  -9.896   4.135  1.00  0.00     0.002 C 
HETATM   13  C   UNL     1      41.903 -10.018   5.098  1.00  0.00     0.027 C 
HETATM   14  H   UNL     1      43.063 -10.259   7.699  1.00  0.00     0.163 HD
ENDROOT
BRANCH   1  15
HETATM   15  C   UNL     1      43.119 -14.472   7.168  1.00  0.00     0.146 C 
BRANCH  15  16
HETATM   16  C   UNL     1      42.823 -15.736   6.395  1.00  0.00     0.224 C 
HETATM   17  N   UNL     1      43.713 -16.005   5.382  1.00  0.00    -0.327 N 
HETATM   18  H   UNL     1      44.431 -15.315   5.178  1.00  0.00     0.169 HD
HETATM   19  O   UNL     1      41.853 -16.413   6.737  1.00  0.00    -0.273 OA
BRANCH  17  20
HETATM   20  C   UNL     1      43.704 -17.124   4.519  1.00  0.00     0.034 A 
HETATM   21  C   UNL     1      43.201 -16.929   3.225  1.00  0.00     0.031 A 
HETATM   22  C   UNL     1      43.147 -17.990   2.313  1.00  0.00     0.026 A 
HETATM   23  C   UNL     1      43.608 -19.248   2.688  1.00  0.00     0.034 A 
HETATM   24  C   UNL     1      44.120 -19.452   3.965  1.00  0.00     0.026 A 
HETATM   25 CL   UNL     1      43.545 -20.552   1.571  1.00  0.00    -0.084 Cl
HETATM   26  C   UNL     1      44.166 -18.392   4.879  1.00  0.00     0.031 A 
ENDBRANCH  17  20
ENDBRANCH  15  16
ENDBRANCH   1  15
TORSDOF 3
ENDMDL
MODEL 4
REMARK VINA RESULT:      -7.8      1.658      2.122
REMARK  3 active torsions:
REMARK  status: ('A' for Active; 'I' for Inactive)
REMARK    1  A    between atoms: C_2  and  N_3 
REMARK       I    between atoms: N_3  and  C_4 
REMARK    2  A    between atoms: C_4  and  C_5 
REMARK    3  A    between atoms: C_5  and  C_6 
ROOT
HETATM    1  C   UNL     1      41.891 -16.319   5.034  1.00  0.00     0.286 C 
HETATM    2  N   UNL     1      42.463 -17.269   3.984  1.00  0.00    -0.056 N 
HETATM    3  H   UNL     1      41.884 -18.118   3.975  1.00  0.00     0.278 HD
HETATM    4  H   UNL     1      42.307 -16.834   3.049  1.00  0.00     0.278 HD
HETATM    5  C   UNL     1      43.915 -17.612   4.173  1.00  0.00     0.209 C 
HETATM    6  C   UNL     1      44.092 -18.223   5.584  1.00  0.00     0.115 C 
HETATM    7  N   UNL     1      43.511 -17.369   6.617  1.00  0.00    -0.353 N 
HETATM    8  C   UNL     1      42.377 -16.613   6.464  1.00  0.00     0.249 C 
HETATM    9  O   UNL     1      41.832 -16.115   7.443  1.00  0.00    -0.271 OA
HETATM   10  C   UNL     1      44.358 -18.560   3.059  1.00  0.00     0.035 C 
HETATM   11  C   UNL     1      43.765 -19.961   3.187  1.00  0.00     0.002 C 
HETATM   12  C   UNL     1      44.011 -20.550   4.571  1.00  0.00     0.002 C 
HETATM   13  C   UNL     1      43.497 -19.637   5.679  1.00  0.00     0.027 C 
HETATM   14  H   UNL     1      43.776 -17.527   7.588  1.00  0.00     0.163 HD
ENDROOT
BRANCH   1  15
HETATM   15  C   UNL     1      42.183 -14.849   4.702  1.00  0.00     0.146 C 
BRANCH  15  16
HETATM   16  C   UNL     1      41.986 -14.597   3.227  1.00  0.00     0.224 C 
HETATM   17  N   UNL     1      40.684 -14.349   2.861  1.00  0.00    -0.327 N 
HETATM   18  H   UNL     1      39.961 -14.434   3.571  1.00  0.00     0.169 HD
HETATM   19  O   UNL     1      42.977 -14.611   2.496  1.00  0.00    -0.273 OA
BRANCH  17  20
HETATM   20  C   UNL     1      40.208 -14.053   1.563  1.00  0.00     0.034 A 
HETATM   21  C   UNL     1      40.109 -15.120   0.659  1.00  0.00     0.031 A 
HETATM   22  C   UNL     1      39.658 -14.908  -0.648  1.00  0.00     0.026 A 
HETATM   23  C   UNL     1      39.291 -13.629  -1.054  1.00  0.00     0.034 A 
HETATM   24  C   UNL     1      39.372 -12.563  -0.163  1.00  0.00     0.026 A 
HETATM   25 CL   UNL     1      38.734 -13.365  -2.659  1.00  0.00    -0.084 Cl
HETATM   26  C   UNL     1      39.832 -12.775   1.142  1.00  0.00     0.031 A 
ENDBRANCH  17  20
ENDBRANCH  15  16
ENDBRANCH   1  15
TORSDOF 3
ENDMDL
MODEL 5
REMARK VINA RESULT:      -7.7      5.285      7.404
REMARK  3 active torsions:
REMARK  status: ('A' for Active; 'I' for Inactive)
REMARK    1  A    between atoms: C_2  and  N_3 
REMARK       I    between atoms: N_3  and  C_4 
REMARK    2  A    between atoms: C_4  and  C_5 
REMARK    3  A    between atoms: C_5  and  C_6 
ROOT
HETATM    1  C   UNL     1      42.557 -14.048   3.081  1.00  0.00     0.286 C 
HETATM    2  N   UNL     1      43.145 -15.120   3.996  1.00  0.00    -0.056 N 
HETATM    3  H   UNL     1      44.057 -15.398   3.614  1.00  0.00     0.278 HD
HETATM    4  H   UNL     1      43.369 -14.665   4.908  1.00  0.00     0.278 HD
HETATM    5  C   UNL     1      42.262 -16.320   4.205  1.00  0.00     0.209 C 
HETATM    6  C   UNL     1      41.938 -16.934   2.822  1.00  0.00     0.115 C 
HETATM    7  N   UNL     1      41.420 -15.929   1.896  1.00  0.00    -0.353 N 
HETATM    8  C   UNL     1      41.820 -14.618   1.856  1.00  0.00     0.249 C 
HETATM    9  O   UNL     1      41.511 -13.909   0.904  1.00  0.00    -0.271 OA
HETATM   10  C   UNL     1      42.965 -17.304   5.139  1.00  0.00     0.035 C 
HETATM   11  C   UNL     1      44.161 -18.000   4.493  1.00  0.00     0.002 C 
HETATM   12  C   UNL     1      43.786 -18.641   3.162  1.00  0.00     0.002 C 
HETATM   13  C   UNL     1      43.156 -17.636   2.203  1.00  0.00     0.027 C 
HETATM   14  H   UNL     1      40.941 -16.243   1.054  1.00  0.00     0.163 HD
ENDROOT
BRANCH   1  15
HETATM   15  C   UNL     1      41.610 -13.102   3.833  1.00  0.00     0.146 C 
BRANCH  15  16
HETATM   16  C   UNL     1      42.160 -12.798   5.207  1.00  0.00     0.224 C 
HETATM   17  N   UNL     1      43.065 -11.763   5.240  1.00  0.00    -0.327 N 
HETATM   18  H   UNL     1      43.354 -11.349   4.358  1.00  0.00     0.169 HD
HETATM   19  O   UNL     1      41.749 -13.463   6.158  1.00  0.00    -0.273 OA
BRANCH  17  20
HETATM   20  C   UNL     1      43.715 -11.241   6.382  1.00  0.00     0.034 A 
HETATM   21  C   UNL     1      42.961 -10.413   7.225  1.00  0.00     0.031 A 
HETATM   22  C   UNL     1      43.536  -9.847   8.369  1.00  0.00     0.026 A 
HETATM   23  C   UNL     1      44.864 -10.118   8.682  1.00  0.00     0.034 A 
HETATM   24  C   UNL     1      45.620 -10.948   7.860  1.00  0.00     0.026 A 
HETATM   25 CL   UNL     1      45.573  -9.426  10.087  1.00  0.00    -0.084 Cl
HETATM   26  C   UNL     1      45.047 -11.506   6.711  1.00  0.00     0.031 A 
ENDBRANCH  17  20
ENDBRANCH  15  16
ENDBRANCH   1  15
TORSDOF 3
ENDMDL
MODEL 6
REMARK VINA RESULT:      -7.5      5.012      6.910
REMARK  3 active torsions:
REMARK  status: ('A' for Active; 'I' for Inactive)
REMARK    1  A    between atoms: C_2  and  N_3 
REMARK       I    between atoms: N_3  and  C_4 
REMARK    2  A    between atoms: C_4  and  C_5 
REMARK    3  A    between atoms: C_5  and  C_6 
ROOT
HETATM    1  C   UNL     1      41.168 -15.946   5.353  1.00  0.00     0.286 C 
HETATM    2  N   UNL     1      41.455 -16.589   3.998  1.00  0.00    -0.056 N 
HETATM    3  H   UNL     1      41.269 -17.596   4.079  1.00  0.00     0.278 HD
HETATM    4  H   UNL     1      40.736 -16.242   3.327  1.00  0.00     0.278 HD
HETATM    5  C   UNL     1      42.840 -16.341   3.466  1.00  0.00     0.209 C 
HETATM    6  C   UNL     1      43.862 -16.846   4.513  1.00  0.00     0.115 C 
HETATM    7  N   UNL     1      43.592 -16.295   5.838  1.00  0.00    -0.353 N 
HETATM    8  C   UNL     1      42.343 -16.038   6.342  1.00  0.00     0.249 C 
HETATM    9  O   UNL     1      42.197 -15.801   7.537  1.00  0.00    -0.271 OA
HETATM   10  C   UNL     1      42.991 -17.032   2.112  1.00  0.00     0.035 C 
HETATM   11  C   UNL     1      43.046 -18.554   2.213  1.00  0.00     0.002 C 
HETATM   12  C   UNL     1      44.104 -19.012   3.211  1.00  0.00     0.002 C 
HETATM   13  C   UNL     1      43.904 -18.381   4.584  1.00  0.00     0.027 C 
HETATM   14  H   UNL     1      44.322 -16.345   6.547  1.00  0.00     0.163 HD
ENDROOT
BRANCH   1  15
HETATM   15  C   UNL     1      40.749 -14.475   5.216  1.00  0.00     0.146 C 
BRANCH  15  16
HETATM   16  C   UNL     1      41.964 -13.579   5.265  1.00  0.00     0.224 C 
HETATM   17  N   UNL     1      42.145 -12.931   6.464  1.00  0.00    -0.327 N 
HETATM   18  H   UNL     1      41.428 -13.031   7.177  1.00  0.00     0.169 HD
HETATM   19  O   UNL     1      42.684 -13.521   4.267  1.00  0.00    -0.273 OA
BRANCH  17  20
HETATM   20  C   UNL     1      43.204 -12.059   6.806  1.00  0.00     0.034 A 
HETATM   21  C   UNL     1      42.858 -10.766   7.222  1.00  0.00     0.031 A 
HETATM   22  C   UNL     1      43.848  -9.838   7.567  1.00  0.00     0.026 A 
HETATM   23  C   UNL     1      45.188 -10.205   7.510  1.00  0.00     0.034 A 
HETATM   24  C   UNL     1      45.545 -11.489   7.110  1.00  0.00     0.026 A 
HETATM   25 CL   UNL     1      46.407  -9.069   7.934  1.00  0.00    -0.084 Cl
HETATM   26  C   UNL     1      44.554 -12.413   6.757  1.00  0.00     0.031 A 
ENDBRANCH  17  20
ENDBRANCH  15  16
ENDBRANCH   1  15
TORSDOF 3
ENDMDL
MODEL 7
REMARK VINA RESULT:      -7.3      3.515      8.969
REMARK  3 active torsions:
REMARK  status: ('A' for Active; 'I' for Inactive)
REMARK    1  A    between atoms: C_2  and  N_3 
REMARK       I    between atoms: N_3  and  C_4 
REMARK    2  A    between atoms: C_4  and  C_5 
REMARK    3  A    between atoms: C_5  and  C_6 
ROOT
HETATM    1  C   UNL     1      39.124 -13.603  -1.143  1.00  0.00     0.286 C 
HETATM    2  N   UNL     1      38.503 -12.394  -0.447  1.00  0.00    -0.056 N 
HETATM    3  H   UNL     1      37.501 -12.583  -0.317  1.00  0.00     0.278 HD
HETATM    4  H   UNL     1      38.891 -12.354   0.520  1.00  0.00     0.278 HD
HETATM    5  C   UNL     1      38.713 -11.084  -1.157  1.00  0.00     0.209 C 
HETATM    6  C   UNL     1      38.147 -11.210  -2.591  1.00  0.00     0.115 C 
HETATM    7  N   UNL     1      38.676 -12.387  -3.277  1.00  0.00    -0.353 N 
HETATM    8  C   UNL     1      38.966 -13.583  -2.673  1.00  0.00     0.249 C 
HETATM    9  O   UNL     1      39.180 -14.581  -3.354  1.00  0.00    -0.271 OA
HETATM   10  C   UNL     1      38.049  -9.966  -0.356  1.00  0.00     0.035 C 
HETATM   11  C   UNL     1      36.524 -10.015  -0.399  1.00  0.00     0.002 C 
HETATM   12  C   UNL     1      36.004 -10.080  -1.831  1.00  0.00     0.002 C 
HETATM   13  C   UNL     1      36.610 -11.246  -2.604  1.00  0.00     0.027 C 
HETATM   14  H   UNL     1      38.583 -12.445  -4.290  1.00  0.00     0.163 HD
ENDROOT
BRANCH   1  15
HETATM   15  C   UNL     1      40.611 -13.765  -0.800  1.00  0.00     0.146 C 
BRANCH  15  16
HETATM   16  C   UNL     1      40.772 -14.613   0.439  1.00  0.00     0.224 C 
HETATM   17  N   UNL     1      42.073 -14.773   0.854  1.00  0.00    -0.327 N 
HETATM   18  H   UNL     1      42.814 -14.394   0.270  1.00  0.00     0.169 HD
HETATM   19  O   UNL     1      39.757 -15.061   0.973  1.00  0.00    -0.273 OA
BRANCH  17  20
HETATM   20  C   UNL     1      42.521 -15.486   1.990  1.00  0.00     0.034 A 
HETATM   21  C   UNL     1      42.814 -16.846   1.816  1.00  0.00     0.031 A 
HETATM   22  C   UNL     1      43.251 -17.624   2.895  1.00  0.00     0.026 A 
HETATM   23  C   UNL     1      43.411 -17.042   4.148  1.00  0.00     0.034 A 
HETATM   24  C   UNL     1      43.135 -15.690   4.331  1.00  0.00     0.026 A 
HETATM   25 CL   UNL     1      43.949 -17.994   5.474  1.00  0.00    -0.084 Cl
HETATM   26  C   UNL     1      42.689 -14.915   3.253  1.00  0.00     0.031 A 
ENDBRANCH  17  20
ENDBRANCH  15  16
ENDBRANCH   1  15
TORSDOF 3
ENDMDL
MODEL 8
REMARK VINA RESULT:      -7.3      3.595      8.157
REMARK  3 active torsions:
REMARK  status: ('A' for Active; 'I' for Inactive)
REMARK    1  A    between atoms: C_2  and  N_3 
REMARK       I    between atoms: N_3  and  C_4 
REMARK    2  A    between atoms: C_4  and  C_5 
REMARK    3  A    between atoms: C_5  and  C_6 
ROOT
HETATM    1  C   UNL     1      39.361 -11.983   1.573  1.00  0.00     0.286 C 
HETATM    2  N   UNL     1      40.135 -12.577   0.398  1.00  0.00    -0.056 N 
HETATM    3  H   UNL     1      40.639 -11.812  -0.068  1.00  0.00     0.278 HD
HETATM    4  H   UNL     1      40.886 -13.185   0.792  1.00  0.00     0.278 HD
HETATM    5  C   UNL     1      39.294 -13.343  -0.585  1.00  0.00     0.209 C 
HETATM    6  C   UNL     1      38.183 -12.404  -1.113  1.00  0.00     0.115 C 
HETATM    7  N   UNL     1      37.449 -11.772  -0.019  1.00  0.00    -0.353 N 
HETATM    8  C   UNL     1      37.999 -11.386   1.176  1.00  0.00     0.249 C 
HETATM    9  O   UNL     1      37.370 -10.657   1.937  1.00  0.00    -0.271 OA
HETATM   10  C   UNL     1      40.190 -13.883  -1.699  1.00  0.00     0.035 C 
HETATM   11  C   UNL     1      40.714 -12.795  -2.634  1.00  0.00     0.002 C 
HETATM   12  C   UNL     1      39.583 -11.929  -3.177  1.00  0.00     0.002 C 
HETATM   13  C   UNL     1      38.739 -11.328  -2.059  1.00  0.00     0.027 C 
HETATM   14  H   UNL     1      36.550 -11.338  -0.221  1.00  0.00     0.163 HD
ENDROOT
BRANCH   1  15
HETATM   15  C   UNL     1      39.145 -13.005   2.698  1.00  0.00     0.146 C 
BRANCH  15  16
HETATM   16  C   UNL     1      40.434 -13.735   2.993  1.00  0.00     0.224 C 
HETATM   17  N   UNL     1      40.301 -15.099   3.105  1.00  0.00    -0.327 N 
HETATM   18  H   UNL     1      39.366 -15.496   3.067  1.00  0.00     0.169 HD
HETATM   19  O   UNL     1      41.469 -13.075   3.085  1.00  0.00    -0.273 OA
BRANCH  17  20
HETATM   20  C   UNL     1      41.333 -16.036   3.346  1.00  0.00     0.034 A 
HETATM   21  C   UNL     1      41.761 -16.186   4.673  1.00  0.00     0.031 A 
HETATM   22  C   UNL     1      42.786 -17.084   4.993  1.00  0.00     0.026 A 
HETATM   23  C   UNL     1      43.377 -17.846   3.990  1.00  0.00     0.034 A 
HETATM   24  C   UNL     1      42.953 -17.715   2.672  1.00  0.00     0.026 A 
HETATM   25 CL   UNL     1      44.635 -18.951   4.380  1.00  0.00    -0.084 Cl
HETATM   26  C   UNL     1      41.933 -16.810   2.351  1.00  0.00     0.031 A 
ENDBRANCH  17  20
ENDBRANCH  15  16
ENDBRANCH   1  15
TORSDOF 3
ENDMDL
MODEL 9
REMARK VINA RESULT:      -7.2      4.313      7.915
REMARK  3 active torsions:
REMARK  status: ('A' for Active; 'I' for Inactive)
REMARK    1  A    between atoms: C_2  and  N_3 
REMARK       I    between atoms: N_3  and  C_4 
REMARK    2  A    between atoms: C_4  and  C_5 
REMARK    3  A    between atoms: C_5  and  C_6 
ROOT
HETATM    1  C   UNL     1      39.839 -13.687   1.886  1.00  0.00     0.286 C 
HETATM    2  N   UNL     1      39.895 -13.566   3.408  1.00  0.00    -0.056 N 
HETATM    3  H   UNL     1      38.932 -13.477   3.754  1.00  0.00     0.278 HD
HETATM    4  H   UNL     1      40.226 -14.482   3.784  1.00  0.00     0.278 HD
HETATM    5  C   UNL     1      40.754 -12.442   3.917  1.00  0.00     0.209 C 
HETATM    6  C   UNL     1      40.237 -11.118   3.306  1.00  0.00     0.115 C 
HETATM    7  N   UNL     1      40.119 -11.207   1.852  1.00  0.00    -0.353 N 
HETATM    8  C   UNL     1      39.750 -12.333   1.162  1.00  0.00     0.249 C 
HETATM    9  O   UNL     1      39.450 -12.257  -0.025  1.00  0.00    -0.271 OA
HETATM   10  C   UNL     1      40.725 -12.438   5.445  1.00  0.00     0.035 C 
HETATM   11  C   UNL     1      39.384 -11.991   6.022  1.00  0.00     0.002 C 
HETATM   12  C   UNL     1      38.939 -10.656   5.438  1.00  0.00     0.002 C 
HETATM   13  C   UNL     1      38.894 -10.687   3.914  1.00  0.00     0.027 C 
HETATM   14  H   UNL     1      40.034 -10.345   1.315  1.00  0.00     0.163 HD
ENDROOT
BRANCH   1  15
HETATM   15  C   UNL     1      41.033 -14.473   1.326  1.00  0.00     0.146 C 
BRANCH  15  16
HETATM   16  C   UNL     1      41.238 -15.744   2.114  1.00  0.00     0.224 C 
HETATM   17  N   UNL     1      42.537 -16.195   2.139  1.00  0.00    -0.327 N 
HETATM   18  H   UNL     1      43.226 -15.705   1.574  1.00  0.00     0.169 HD
HETATM   19  O   UNL     1      40.262 -16.247   2.673  1.00  0.00    -0.273 OA
BRANCH  17  20
HETATM   20  C   UNL     1      43.028 -17.334   2.816  1.00  0.00     0.034 A 
HETATM   21  C   UNL     1      43.418 -17.165   4.153  1.00  0.00     0.031 A 
HETATM   22  C   UNL     1      43.926 -18.241   4.889  1.00  0.00     0.026 A 
HETATM   23  C   UNL     1      44.033 -19.495   4.297  1.00  0.00     0.034 A 
HETATM   24  C   UNL     1      43.639 -19.680   2.975  1.00  0.00     0.026 A 
HETATM   25 CL   UNL     1      44.655 -20.819   5.199  1.00  0.00    -0.084 Cl
HETATM   26  C   UNL     1      43.139 -18.600   2.236  1.00  0.00     0.031 A 
ENDBRANCH  17  20
ENDBRANCH  15  16
ENDBRANCH   1  15
TORSDOF 3
ENDMDL
MODEL 10
REMARK VINA RESULT:      -7.2      2.043      3.576
REMARK  3 active torsions:
REMARK  status: ('A' for Active; 'I' for Inactive)
REMARK    1  A    between atoms: C_2  and  N_3 
REMARK       I    between atoms: N_3  and  C_4 
REMARK    2  A    between atoms: C_4  and  C_5 
REMARK    3  A    between atoms: C_5  and  C_6 
ROOT
HETATM    1  C   UNL     1      42.679 -15.983   2.976  1.00  0.00     0.286 C 
HETATM    2  N   UNL     1      42.281 -14.719   3.735  1.00  0.00    -0.056 N 
HETATM    3  H   UNL     1      43.111 -14.117   3.806  1.00  0.00     0.278 HD
HETATM    4  H   UNL     1      41.620 -14.184   3.131  1.00  0.00     0.278 HD
HETATM    5  C   UNL     1      41.680 -14.964   5.092  1.00  0.00     0.209 C 
HETATM    6  C   UNL     1      42.690 -15.783   5.932  1.00  0.00     0.115 C 
HETATM    7  N   UNL     1      43.137 -16.977   5.220  1.00  0.00    -0.353 N 
HETATM    8  C   UNL     1      43.329 -17.058   3.865  1.00  0.00     0.249 C 
HETATM    9  O   UNL     1      43.925 -18.015   3.382  1.00  0.00    -0.271 OA
HETATM   10  C   UNL     1      41.327 -13.624   5.736  1.00  0.00     0.035 C 
HETATM   11  C   UNL     1      42.551 -12.817   6.162  1.00  0.00     0.002 C 
HETATM   12  C   UNL     1      43.490 -13.641   7.035  1.00  0.00     0.002 C 
HETATM   13  C   UNL     1      43.904 -14.942   6.356  1.00  0.00     0.027 C 
HETATM   14  H   UNL     1      43.596 -17.718   5.748  1.00  0.00     0.163 HD
ENDROOT
BRANCH   1  15
HETATM   15  C   UNL     1      41.490 -16.606   2.232  1.00  0.00     0.146 C 
BRANCH  15  16
HETATM   16  C   UNL     1      40.602 -15.524   1.666  1.00  0.00     0.224 C 
HETATM   17  N   UNL     1      41.042 -14.990   0.478  1.00  0.00    -0.327 N 
HETATM   18  H   UNL     1      41.946 -15.291   0.122  1.00  0.00     0.169 HD
HETATM   19  O   UNL     1      39.577 -15.231   2.282  1.00  0.00    -0.273 OA
BRANCH  17  20
HETATM   20  C   UNL     1      40.405 -13.990  -0.292  1.00  0.00     0.034 A 
HETATM   21  C   UNL     1      39.417 -14.410  -1.194  1.00  0.00     0.031 A 
HETATM   22  C   UNL     1      38.747 -13.483  -2.001  1.00  0.00     0.026 A 
HETATM   23  C   UNL     1      39.054 -12.130  -1.900  1.00  0.00     0.034 A 
HETATM   24  C   UNL     1      40.024 -11.698  -1.001  1.00  0.00     0.026 A 
HETATM   25 CL   UNL     1      38.233 -10.988  -2.888  1.00  0.00    -0.084 Cl
HETATM   26  C   UNL     1      40.700 -12.627  -0.200  1.00  0.00     0.031 A 
ENDBRANCH  17  20
ENDBRANCH  15  16
ENDBRANCH   1  15
TORSDOF 3
ENDMDL
