MODEL 1
REMARK VINA RESULT:      -8.6      0.000      0.000
REMARK  6 active torsions:
REMARK  status: ('A' for Active; 'I' for Inactive)
REMARK    1  A    between atoms: C_4  and  C_5 
REMARK    2  A    between atoms: C_6  and  O_7 
REMARK    3  A    between atoms: O_7  and  C_8 
REMARK    4  A    between atoms: C_8  and  C_9 
REMARK       I    between atoms: C_9  and  N_10 
REMARK    5  A    between atoms: N_10  and  N_11 
REMARK    6  A    between atoms: C_12  and  C_13 
ROOT
HETATM    1  O   UNL     1      42.877 -16.035   5.128  1.00  0.00    -0.341 OA
ENDROOT
BRANCH   1   2
HETATM    2  C   UNL     1      43.246 -17.135   4.392  1.00  0.00     0.080 A 
HETATM    3  C   UNL     1      42.798 -17.232   3.060  1.00  0.00     0.007 A 
HETATM    4  C   UNL     1      43.137 -18.389   2.335  1.00  0.00     0.015 A 
HETATM    5  C   UNL     1      43.882 -19.417   2.919  1.00  0.00     0.001 A 
HETATM    6  C   UNL     1      44.296 -19.312   4.244  1.00  0.00     0.003 A 
HETATM    7  C   UNL     1      43.973 -18.174   4.983  1.00  0.00     0.037 A 
BRANCH   3   8
HETATM    8  C   UNL     1      42.011 -16.169   2.409  1.00  0.00    -0.023 A 
HETATM    9  C   UNL     1      40.606 -16.203   2.408  1.00  0.00     0.012 A 
HETATM   10  C   UNL     1      39.862 -15.189   1.802  1.00  0.00     0.001 A 
HETATM   11  C   UNL     1      40.511 -14.117   1.193  1.00  0.00     0.000 A 
HETATM   12  C   UNL     1      41.902 -14.062   1.188  1.00  0.00     0.001 A 
HETATM   13  C   UNL     1      42.646 -15.081   1.791  1.00  0.00     0.012 A 
ENDBRANCH   3   8
ENDBRANCH   1   2
BRANCH   1  14
HETATM   14  C   UNL     1      42.593 -16.358   6.492  1.00  0.00     0.280 C 
BRANCH  14  15
HETATM   15  C   UNL     1      43.096 -15.261   7.427  1.00  0.00     0.261 C 
HETATM   16  N   UNL     1      43.429 -14.090   6.765  1.00  0.00    -0.246 N 
HETATM   17  H   UNL     1      43.366 -14.070   5.748  1.00  0.00     0.192 HD
HETATM   18  O   UNL     1      43.162 -15.435   8.642  1.00  0.00    -0.269 OA
BRANCH  16  19
HETATM   19  N   UNL     1      43.865 -13.004   7.461  1.00  0.00    -0.182 NA
HETATM   20  C   UNL     1      44.693 -12.234   6.832  1.00  0.00     0.168 C 
BRANCH  20  21
HETATM   21  C   UNL     1      45.204 -11.065   7.494  1.00  0.00     0.051 A 
HETATM   22  N   UNL     1      46.326 -10.386   7.071  1.00  0.00    -0.365 N 
HETATM   23  H   UNL     1      46.876 -10.660   6.265  1.00  0.00     0.165 HD
HETATM   24  C   UNL     1      46.562  -9.316   7.891  1.00  0.00     0.088 A 
HETATM   25  C   UNL     1      45.590  -9.308   8.865  1.00  0.00     0.019 A 
HETATM   26  C   UNL     1      44.733 -10.409   8.616  1.00  0.00     0.032 A 
ENDBRANCH  20  21
ENDBRANCH  16  19
ENDBRANCH  14  15
ENDBRANCH   1  14
TORSDOF 6
ENDMDL
MODEL 2
REMARK VINA RESULT:      -8.4      1.525      2.048
REMARK  6 active torsions:
REMARK  status: ('A' for Active; 'I' for Inactive)
REMARK    1  A    between atoms: C_4  and  C_5 
REMARK    2  A    between atoms: C_6  and  O_7 
REMARK    3  A    between atoms: O_7  and  C_8 
REMARK    4  A    between atoms: C_8  and  C_9 
REMARK       I    between atoms: C_9  and  N_10 
REMARK    5  A    between atoms: N_10  and  N_11 
REMARK    6  A    between atoms: C_12  and  C_13 
ROOT
HETATM    1  O   UNL     1      44.118 -17.478   5.121  1.00  0.00    -0.341 OA
ENDROOT
BRANCH   1   2
HETATM    2  C   UNL     1      43.887 -18.451   4.178  1.00  0.00     0.080 A 
HETATM    3  C   UNL     1      43.173 -18.101   3.015  1.00  0.00     0.007 A 
HETATM    4  C   UNL     1      42.895 -19.118   2.084  1.00  0.00     0.015 A 
HETATM    5  C   UNL     1      43.302 -20.437   2.308  1.00  0.00     0.001 A 
HETATM    6  C   UNL     1      43.987 -20.765   3.475  1.00  0.00     0.003 A 
HETATM    7  C   UNL     1      44.274 -19.774   4.414  1.00  0.00     0.037 A 
BRANCH   3   8
HETATM    8  C   UNL     1      42.728 -16.722   2.743  1.00  0.00    -0.023 A 
HETATM    9  C   UNL     1      43.512 -15.845   1.974  1.00  0.00     0.012 A 
HETATM   10  C   UNL     1      43.083 -14.543   1.708  1.00  0.00     0.001 A 
HETATM   11  C   UNL     1      41.857 -14.099   2.199  1.00  0.00     0.000 A 
HETATM   12  C   UNL     1      41.063 -14.954   2.958  1.00  0.00     0.001 A 
HETATM   13  C   UNL     1      41.497 -16.256   3.228  1.00  0.00     0.012 A 
ENDBRANCH   3   8
ENDBRANCH   1   2
BRANCH   1  14
HETATM   14  C   UNL     1      43.274 -17.615   6.268  1.00  0.00     0.280 C 
BRANCH  14  15
HETATM   15  C   UNL     1      42.723 -16.259   6.703  1.00  0.00     0.261 C 
HETATM   16  N   UNL     1      43.490 -15.192   6.263  1.00  0.00    -0.246 N 
HETATM   17  H   UNL     1      44.349 -15.387   5.753  1.00  0.00     0.192 HD
HETATM   18  O   UNL     1      41.687 -16.170   7.359  1.00  0.00    -0.269 OA
BRANCH  16  19
HETATM   19  N   UNL     1      43.115 -13.913   6.543  1.00  0.00    -0.182 NA
HETATM   20  C   UNL     1      44.068 -13.121   6.915  1.00  0.00     0.168 C 
BRANCH  20  21
HETATM   21  C   UNL     1      43.760 -11.753   7.231  1.00  0.00     0.051 A 
HETATM   22  N   UNL     1      42.503 -11.209   7.088  1.00  0.00    -0.365 N 
HETATM   23  H   UNL     1      41.702 -11.729   6.748  1.00  0.00     0.165 HD
HETATM   24  C   UNL     1      42.516  -9.895   7.473  1.00  0.00     0.088 A 
HETATM   25  C   UNL     1      43.800  -9.580   7.858  1.00  0.00     0.019 A 
HETATM   26  C   UNL     1      44.585 -10.750   7.707  1.00  0.00     0.032 A 
ENDBRANCH  20  21
ENDBRANCH  16  19
ENDBRANCH  14  15
ENDBRANCH   1  14
TORSDOF 6
ENDMDL
MODEL 3
REMARK VINA RESULT:      -8.3      3.333      3.662
REMARK  6 active torsions:
REMARK  status: ('A' for Active; 'I' for Inactive)
REMARK    1  A    between atoms: C_4  and  C_5 
REMARK    2  A    between atoms: C_6  and  O_7 
REMARK    3  A    between atoms: O_7  and  C_8 
REMARK    4  A    between atoms: C_8  and  C_9 
REMARK       I    between atoms: C_9  and  N_10 
REMARK    5  A    between atoms: N_10  and  N_11 
REMARK    6  A    between atoms: C_12  and  C_13 
ROOT
HETATM    1  O   UNL     1      43.806 -17.252   5.118  1.00  0.00    -0.341 OA
ENDROOT
BRANCH   1   2
HETATM    2  C   UNL     1      43.763 -18.324   4.260  1.00  0.00     0.080 A 
HETATM    3  C   UNL     1      43.167 -18.147   2.996  1.00  0.00     0.007 A 
HETATM    4  C   UNL     1      43.079 -19.267   2.149  1.00  0.00     0.015 A 
HETATM    5  C   UNL     1      43.553 -20.519   2.551  1.00  0.00     0.001 A 
HETATM    6  C   UNL     1      44.118 -20.677   3.814  1.00  0.00     0.003 A 
HETATM    7  C   UNL     1      44.216 -19.582   4.672  1.00  0.00     0.037 A 
BRANCH   3   8
HETATM    8  C   UNL     1      42.656 -16.844   2.536  1.00  0.00    -0.023 A 
HETATM    9  C   UNL     1      43.529 -15.840   2.081  1.00  0.00     0.012 A 
HETATM   10  C   UNL     1      43.041 -14.611   1.635  1.00  0.00     0.001 A 
HETATM   11  C   UNL     1      41.671 -14.365   1.628  1.00  0.00     0.000 A 
HETATM   12  C   UNL     1      40.788 -15.347   2.071  1.00  0.00     0.001 A 
HETATM   13  C   UNL     1      41.278 -16.577   2.522  1.00  0.00     0.012 A 
ENDBRANCH   3   8
ENDBRANCH   1   2
BRANCH   1  14
HETATM   14  C   UNL     1      43.105 -17.498   6.341  1.00  0.00     0.280 C 
BRANCH  14  15
HETATM   15  C   UNL     1      42.436 -16.224   6.851  1.00  0.00     0.261 C 
HETATM   16  N   UNL     1      41.477 -15.727   5.983  1.00  0.00    -0.246 N 
HETATM   17  H   UNL     1      41.337 -16.197   5.090  1.00  0.00     0.192 HD
HETATM   18  O   UNL     1      42.734 -15.736   7.939  1.00  0.00    -0.269 OA
BRANCH  16  19
HETATM   19  N   UNL     1      40.766 -14.611   6.307  1.00  0.00    -0.182 NA
HETATM   20  C   UNL     1      40.766 -13.672   5.417  1.00  0.00     0.168 C 
BRANCH  20  21
HETATM   21  C   UNL     1      40.042 -12.458   5.679  1.00  0.00     0.051 A 
HETATM   22  N   UNL     1      39.933 -11.898   6.933  1.00  0.00    -0.365 N 
HETATM   23  H   UNL     1      40.351 -12.299   7.764  1.00  0.00     0.165 HD
HETATM   24  C   UNL     1      39.193 -10.748   6.868  1.00  0.00     0.088 A 
HETATM   25  C   UNL     1      38.807 -10.567   5.559  1.00  0.00     0.019 A 
HETATM   26  C   UNL     1      39.342 -11.643   4.808  1.00  0.00     0.032 A 
ENDBRANCH  20  21
ENDBRANCH  16  19
ENDBRANCH  14  15
ENDBRANCH   1  14
TORSDOF 6
ENDMDL
MODEL 4
REMARK VINA RESULT:      -7.9      1.497      3.580
REMARK  6 active torsions:
REMARK  status: ('A' for Active; 'I' for Inactive)
REMARK    1  A    between atoms: C_4  and  C_5 
REMARK    2  A    between atoms: C_6  and  O_7 
REMARK    3  A    between atoms: O_7  and  C_8 
REMARK    4  A    between atoms: C_8  and  C_9 
REMARK       I    between atoms: C_9  and  N_10 
REMARK    5  A    between atoms: N_10  and  N_11 
REMARK    6  A    between atoms: C_12  and  C_13 
ROOT
HETATM    1  O   UNL     1      42.947 -16.470   5.425  1.00  0.00    -0.341 OA
ENDROOT
BRANCH   1   2
HETATM    2  C   UNL     1      42.981 -15.947   4.155  1.00  0.00     0.080 A 
HETATM    3  C   UNL     1      43.295 -16.808   3.085  1.00  0.00     0.007 A 
HETATM    4  C   UNL     1      43.382 -16.250   1.796  1.00  0.00     0.015 A 
HETATM    5  C   UNL     1      43.178 -14.884   1.583  1.00  0.00     0.001 A 
HETATM    6  C   UNL     1      42.891 -14.047   2.658  1.00  0.00     0.003 A 
HETATM    7  C   UNL     1      42.800 -14.576   3.945  1.00  0.00     0.037 A 
BRANCH   3   8
HETATM    8  C   UNL     1      43.516 -18.254   3.269  1.00  0.00    -0.023 A 
HETATM    9  C   UNL     1      43.202 -19.173   2.253  1.00  0.00     0.012 A 
HETATM   10  C   UNL     1      43.423 -20.540   2.427  1.00  0.00     0.001 A 
HETATM   11  C   UNL     1      43.972 -21.012   3.616  1.00  0.00     0.000 A 
HETATM   12  C   UNL     1      44.296 -20.118   4.634  1.00  0.00     0.001 A 
HETATM   13  C   UNL     1      44.068 -18.750   4.461  1.00  0.00     0.012 A 
ENDBRANCH   3   8
ENDBRANCH   1   2
BRANCH   1  14
HETATM   14  C   UNL     1      42.044 -15.765   6.284  1.00  0.00     0.280 C 
BRANCH  14  15
HETATM   15  C   UNL     1      42.808 -14.933   7.311  1.00  0.00     0.261 C 
HETATM   16  N   UNL     1      43.010 -13.622   6.909  1.00  0.00    -0.246 N 
HETATM   17  H   UNL     1      42.695 -13.342   5.981  1.00  0.00     0.192 HD
HETATM   18  O   UNL     1      43.168 -15.413   8.384  1.00  0.00    -0.269 OA
BRANCH  16  19
HETATM   19  N   UNL     1      43.649 -12.741   7.727  1.00  0.00    -0.182 NA
HETATM   20  C   UNL     1      43.771 -11.538   7.265  1.00  0.00     0.168 C 
BRANCH  20  21
HETATM   21  C   UNL     1      44.434 -10.545   8.064  1.00  0.00     0.051 A 
HETATM   22  N   UNL     1      43.780  -9.752   8.981  1.00  0.00    -0.365 N 
HETATM   23  H   UNL     1      42.785  -9.806   9.160  1.00  0.00     0.165 HD
HETATM   24  C   UNL     1      44.672  -8.910   9.591  1.00  0.00     0.088 A 
HETATM   25  C   UNL     1      45.916  -9.152   9.054  1.00  0.00     0.019 A 
HETATM   26  C   UNL     1      45.769 -10.182   8.093  1.00  0.00     0.032 A 
ENDBRANCH  20  21
ENDBRANCH  16  19
ENDBRANCH  14  15
ENDBRANCH   1  14
TORSDOF 6
ENDMDL
MODEL 5
REMARK VINA RESULT:      -7.9      3.942      7.980
REMARK  6 active torsions:
REMARK  status: ('A' for Active; 'I' for Inactive)
REMARK    1  A    between atoms: C_4  and  C_5 
REMARK    2  A    between atoms: C_6  and  O_7 
REMARK    3  A    between atoms: O_7  and  C_8 
REMARK    4  A    between atoms: C_8  and  C_9 
REMARK       I    between atoms: C_9  and  N_10 
REMARK    5  A    between atoms: N_10  and  N_11 
REMARK    6  A    between atoms: C_12  and  C_13 
ROOT
HETATM    1  O   UNL     1      42.141 -16.299   3.267  1.00  0.00    -0.341 OA
ENDROOT
BRANCH   1   2
HETATM    2  C   UNL     1      42.898 -16.007   4.375  1.00  0.00     0.080 A 
HETATM    3  C   UNL     1      43.670 -17.037   4.950  1.00  0.00     0.007 A 
HETATM    4  C   UNL     1      44.397 -16.740   6.117  1.00  0.00     0.015 A 
HETATM    5  C   UNL     1      44.347 -15.469   6.698  1.00  0.00     0.001 A 
HETATM    6  C   UNL     1      43.561 -14.473   6.127  1.00  0.00     0.003 A 
HETATM    7  C   UNL     1      42.830 -14.743   4.970  1.00  0.00     0.037 A 
BRANCH   3   8
HETATM    8  C   UNL     1      43.748 -18.388   4.367  1.00  0.00    -0.023 A 
HETATM    9  C   UNL     1      43.684 -18.584   2.977  1.00  0.00     0.012 A 
HETATM   10  C   UNL     1      43.770 -19.864   2.426  1.00  0.00     0.001 A 
HETATM   11  C   UNL     1      43.930 -20.971   3.256  1.00  0.00     0.000 A 
HETATM   12  C   UNL     1      44.000 -20.799   4.636  1.00  0.00     0.001 A 
HETATM   13  C   UNL     1      43.908 -19.517   5.186  1.00  0.00     0.012 A 
ENDBRANCH   3   8
ENDBRANCH   1   2
BRANCH   1  14
HETATM   14  C   UNL     1      42.396 -15.408   2.177  1.00  0.00     0.280 C 
BRANCH  14  15
HETATM   15  C   UNL     1      41.167 -15.277   1.281  1.00  0.00     0.261 C 
HETATM   16  N   UNL     1      41.322 -14.336   0.276  1.00  0.00    -0.246 N 
HETATM   17  H   UNL     1      42.183 -13.792   0.246  1.00  0.00     0.192 HD
HETATM   18  O   UNL     1      40.169 -15.973   1.458  1.00  0.00    -0.269 OA
BRANCH  16  19
HETATM   19  N   UNL     1      40.327 -14.121  -0.628  1.00  0.00    -0.182 NA
HETATM   20  C   UNL     1      39.623 -13.052  -0.440  1.00  0.00     0.168 C 
BRANCH  20  21
HETATM   21  C   UNL     1      38.550 -12.751  -1.347  1.00  0.00     0.051 A 
HETATM   22  N   UNL     1      37.771 -13.717  -1.945  1.00  0.00    -0.365 N 
HETATM   23  H   UNL     1      37.896 -14.711  -1.793  1.00  0.00     0.165 HD
HETATM   24  C   UNL     1      36.830 -13.128  -2.747  1.00  0.00     0.088 A 
HETATM   25  C   UNL     1      37.009 -11.765  -2.678  1.00  0.00     0.019 A 
HETATM   26  C   UNL     1      38.092 -11.526  -1.796  1.00  0.00     0.032 A 
ENDBRANCH  20  21
ENDBRANCH  16  19
ENDBRANCH  14  15
ENDBRANCH   1  14
TORSDOF 6
ENDMDL
MODEL 6
REMARK VINA RESULT:      -7.8      1.719      4.135
REMARK  6 active torsions:
REMARK  status: ('A' for Active; 'I' for Inactive)
REMARK    1  A    between atoms: C_4  and  C_5 
REMARK    2  A    between atoms: C_6  and  O_7 
REMARK    3  A    between atoms: O_7  and  C_8 
REMARK    4  A    between atoms: C_8  and  C_9 
REMARK       I    between atoms: C_9  and  N_10 
REMARK    5  A    between atoms: N_10  and  N_11 
REMARK    6  A    between atoms: C_12  and  C_13 
ROOT
HETATM    1  O   UNL     1      43.364 -13.932   2.700  1.00  0.00    -0.341 OA
ENDROOT
BRANCH   1   2
HETATM    2  C   UNL     1      42.214 -14.335   2.064  1.00  0.00     0.080 A 
HETATM    3  C   UNL     1      41.821 -15.684   2.182  1.00  0.00     0.007 A 
HETATM    4  C   UNL     1      40.674 -16.096   1.481  1.00  0.00     0.015 A 
HETATM    5  C   UNL     1      39.952 -15.204   0.683  1.00  0.00     0.001 A 
HETATM    6  C   UNL     1      40.370 -13.882   0.563  1.00  0.00     0.003 A 
HETATM    7  C   UNL     1      41.506 -13.449   1.248  1.00  0.00     0.037 A 
BRANCH   3   8
HETATM    8  C   UNL     1      42.556 -16.654   3.014  1.00  0.00    -0.023 A 
HETATM    9  C   UNL     1      43.353 -17.653   2.431  1.00  0.00     0.012 A 
HETATM   10  C   UNL     1      44.057 -18.564   3.221  1.00  0.00     0.001 A 
HETATM   11  C   UNL     1      43.984 -18.485   4.610  1.00  0.00     0.000 A 
HETATM   12  C   UNL     1      43.203 -17.498   5.207  1.00  0.00     0.001 A 
HETATM   13  C   UNL     1      42.494 -16.591   4.415  1.00  0.00     0.012 A 
ENDBRANCH   3   8
ENDBRANCH   1   2
BRANCH   1  14
HETATM   14  C   UNL     1      43.252 -12.620   3.257  1.00  0.00     0.280 C 
BRANCH  14  15
HETATM   15  C   UNL     1      43.543 -12.638   4.756  1.00  0.00     0.261 C 
HETATM   16  N   UNL     1      44.358 -11.595   5.166  1.00  0.00    -0.246 N 
HETATM   17  H   UNL     1      44.725 -10.957   4.462  1.00  0.00     0.192 HD
HETATM   18  O   UNL     1      43.063 -13.499   5.491  1.00  0.00    -0.269 OA
BRANCH  16  19
HETATM   19  N   UNL     1      44.687 -11.452   6.480  1.00  0.00    -0.182 NA
HETATM   20  C   UNL     1      44.003 -10.570   7.134  1.00  0.00     0.168 C 
BRANCH  20  21
HETATM   21  C   UNL     1      44.286 -10.354   8.526  1.00  0.00     0.051 A 
HETATM   22  N   UNL     1      43.437 -10.744   9.539  1.00  0.00    -0.365 N 
HETATM   23  H   UNL     1      42.551 -11.207   9.381  1.00  0.00     0.165 HD
HETATM   24  C   UNL     1      43.977 -10.413  10.754  1.00  0.00     0.088 A 
HETATM   25  C   UNL     1      45.183  -9.790  10.525  1.00  0.00     0.019 A 
HETATM   26  C   UNL     1      45.380  -9.753   9.122  1.00  0.00     0.032 A 
ENDBRANCH  20  21
ENDBRANCH  16  19
ENDBRANCH  14  15
ENDBRANCH   1  14
TORSDOF 6
ENDMDL
MODEL 7
REMARK VINA RESULT:      -7.4      4.038      7.322
REMARK  6 active torsions:
REMARK  status: ('A' for Active; 'I' for Inactive)
REMARK    1  A    between atoms: C_4  and  C_5 
REMARK    2  A    between atoms: C_6  and  O_7 
REMARK    3  A    between atoms: O_7  and  C_8 
REMARK    4  A    between atoms: C_8  and  C_9 
REMARK       I    between atoms: C_9  and  N_10 
REMARK    5  A    between atoms: N_10  and  N_11 
REMARK    6  A    between atoms: C_12  and  C_13 
ROOT
HETATM    1  O   UNL     1      42.347 -16.702   2.800  1.00  0.00    -0.341 OA
ENDROOT
BRANCH   1   2
HETATM    2  C   UNL     1      42.912 -17.915   3.113  1.00  0.00     0.080 A 
HETATM    3  C   UNL     1      43.408 -18.106   4.418  1.00  0.00     0.007 A 
HETATM    4  C   UNL     1      44.033 -19.332   4.710  1.00  0.00     0.015 A 
HETATM    5  C   UNL     1      44.172 -20.325   3.735  1.00  0.00     0.001 A 
HETATM    6  C   UNL     1      43.695 -20.106   2.446  1.00  0.00     0.003 A 
HETATM    7  C   UNL     1      43.071 -18.899   2.132  1.00  0.00     0.037 A 
BRANCH   3   8
HETATM    8  C   UNL     1      43.280 -17.084   5.473  1.00  0.00    -0.023 A 
HETATM    9  C   UNL     1      44.372 -16.280   5.841  1.00  0.00     0.012 A 
HETATM   10  C   UNL     1      44.245 -15.305   6.832  1.00  0.00     0.001 A 
HETATM   11  C   UNL     1      43.020 -15.110   7.466  1.00  0.00     0.000 A 
HETATM   12  C   UNL     1      41.924 -15.893   7.112  1.00  0.00     0.001 A 
HETATM   13  C   UNL     1      42.054 -16.873   6.124  1.00  0.00     0.012 A 
ENDBRANCH   3   8
ENDBRANCH   1   2
BRANCH   1  14
HETATM   14  C   UNL     1      43.170 -15.922   1.927  1.00  0.00     0.280 C 
BRANCH  14  15
HETATM   15  C   UNL     1      42.470 -14.624   1.534  1.00  0.00     0.261 C 
HETATM   16  N   UNL     1      41.493 -14.803   0.566  1.00  0.00    -0.246 N 
HETATM   17  H   UNL     1      41.362 -15.733   0.173  1.00  0.00     0.192 HD
HETATM   18  O   UNL     1      42.760 -13.554   2.065  1.00  0.00    -0.269 OA
BRANCH  16  19
HETATM   19  N   UNL     1      40.755 -13.746   0.129  1.00  0.00    -0.182 NA
HETATM   20  C   UNL     1      40.108 -13.936  -0.975  1.00  0.00     0.168 C 
BRANCH  20  21
HETATM   21  C   UNL     1      39.304 -12.870  -1.509  1.00  0.00     0.051 A 
HETATM   22  N   UNL     1      39.615 -12.199  -2.671  1.00  0.00    -0.365 N 
HETATM   23  H   UNL     1      40.432 -12.401  -3.235  1.00  0.00     0.165 HD
HETATM   24  C   UNL     1      38.664 -11.247  -2.929  1.00  0.00     0.088 A 
HETATM   25  C   UNL     1      37.734 -11.294  -1.915  1.00  0.00     0.019 A 
HETATM   26  C   UNL     1      38.135 -12.317  -1.021  1.00  0.00     0.032 A 
ENDBRANCH  20  21
ENDBRANCH  16  19
ENDBRANCH  14  15
ENDBRANCH   1  14
TORSDOF 6
ENDMDL
MODEL 8
REMARK VINA RESULT:      -7.3     15.614     17.749
REMARK  6 active torsions:
REMARK  status: ('A' for Active; 'I' for Inactive)
REMARK    1  A    between atoms: C_4  and  C_5 
REMARK    2  A    between atoms: C_6  and  O_7 
REMARK    3  A    between atoms: O_7  and  C_8 
REMARK    4  A    between atoms: C_8  and  C_9 
REMARK       I    between atoms: C_9  and  N_10 
REMARK    5  A    between atoms: N_10  and  N_11 
REMARK    6  A    between atoms: C_12  and  C_13 
ROOT
HETATM    1  O   UNL     1      46.601 -29.144   0.297  1.00  0.00    -0.341 OA
ENDROOT
BRANCH   1   2
HETATM    2  C   UNL     1      45.323 -29.251   0.792  1.00  0.00     0.080 A 
HETATM    3  C   UNL     1      44.247 -29.197  -0.116  1.00  0.00     0.007 A 
HETATM    4  C   UNL     1      42.943 -29.251   0.408  1.00  0.00     0.015 A 
HETATM    5  C   UNL     1      42.718 -29.341   1.785  1.00  0.00     0.001 A 
HETATM    6  C   UNL     1      43.795 -29.370   2.666  1.00  0.00     0.003 A 
HETATM    7  C   UNL     1      45.098 -29.317   2.171  1.00  0.00     0.037 A 
BRANCH   3   8
HETATM    8  C   UNL     1      44.444 -29.103  -1.573  1.00  0.00    -0.023 A 
HETATM    9  C   UNL     1      44.995 -27.950  -2.159  1.00  0.00     0.012 A 
HETATM   10  C   UNL     1      45.191 -27.868  -3.539  1.00  0.00     0.001 A 
HETATM   11  C   UNL     1      44.847 -28.940  -4.357  1.00  0.00     0.000 A 
HETATM   12  C   UNL     1      44.304 -30.094  -3.797  1.00  0.00     0.001 A 
HETATM   13  C   UNL     1      44.103 -30.173  -2.415  1.00  0.00     0.012 A 
ENDBRANCH   3   8
ENDBRANCH   1   2
BRANCH   1  14
HETATM   14  C   UNL     1      47.581 -29.016   1.332  1.00  0.00     0.280 C 
BRANCH  14  15
HETATM   15  C   UNL     1      48.808 -29.871   1.028  1.00  0.00     0.261 C 
HETATM   16  N   UNL     1      49.550 -29.399  -0.043  1.00  0.00    -0.246 N 
HETATM   17  H   UNL     1      49.207 -28.588  -0.554  1.00  0.00     0.192 HD
HETATM   18  O   UNL     1      49.085 -30.858   1.707  1.00  0.00    -0.269 OA
BRANCH  16  19
HETATM   19  N   UNL     1      50.694 -30.033  -0.423  1.00  0.00    -0.182 NA
HETATM   20  C   UNL     1      50.612 -30.727  -1.511  1.00  0.00     0.168 C 
BRANCH  20  21
HETATM   21  C   UNL     1      51.774 -31.431  -1.983  1.00  0.00     0.051 A 
HETATM   22  N   UNL     1      52.170 -31.436  -3.302  1.00  0.00    -0.365 N 
HETATM   23  H   UNL     1      51.673 -30.949  -4.039  1.00  0.00     0.165 HD
HETATM   24  C   UNL     1      53.310 -32.182  -3.445  1.00  0.00     0.088 A 
HETATM   25  C   UNL     1      53.649 -32.675  -2.205  1.00  0.00     0.019 A 
HETATM   26  C   UNL     1      52.683 -32.203  -1.283  1.00  0.00     0.032 A 
ENDBRANCH  20  21
ENDBRANCH  16  19
ENDBRANCH  14  15
ENDBRANCH   1  14
TORSDOF 6
ENDMDL
MODEL 9
REMARK VINA RESULT:      -7.3     15.329     16.686
REMARK  6 active torsions:
REMARK  status: ('A' for Active; 'I' for Inactive)
REMARK    1  A    between atoms: C_4  and  C_5 
REMARK    2  A    between atoms: C_6  and  O_7 
REMARK    3  A    between atoms: O_7  and  C_8 
REMARK    4  A    between atoms: C_8  and  C_9 
REMARK       I    between atoms: C_9  and  N_10 
REMARK    5  A    between atoms: N_10  and  N_11 
REMARK    6  A    between atoms: C_12  and  C_13 
ROOT
HETATM    1  O   UNL     1      45.770 -27.661  -0.626  1.00  0.00    -0.341 OA
ENDROOT
BRANCH   1   2
HETATM    2  C   UNL     1      45.200 -28.279  -1.713  1.00  0.00     0.080 A 
HETATM    3  C   UNL     1      44.310 -29.347  -1.485  1.00  0.00     0.007 A 
HETATM    4  C   UNL     1      43.776 -30.008  -2.607  1.00  0.00     0.015 A 
HETATM    5  C   UNL     1      44.126 -29.628  -3.906  1.00  0.00     0.001 A 
HETATM    6  C   UNL     1      45.025 -28.584  -4.108  1.00  0.00     0.003 A 
HETATM    7  C   UNL     1      45.567 -27.914  -3.012  1.00  0.00     0.037 A 
BRANCH   3   8
HETATM    8  C   UNL     1      43.917 -29.777  -0.131  1.00  0.00    -0.023 A 
HETATM    9  C   UNL     1      42.862 -29.148   0.553  1.00  0.00     0.012 A 
HETATM   10  C   UNL     1      42.485 -29.564   1.831  1.00  0.00     0.001 A 
HETATM   11  C   UNL     1      43.149 -30.623   2.444  1.00  0.00     0.000 A 
HETATM   12  C   UNL     1      44.194 -31.263   1.782  1.00  0.00     0.001 A 
HETATM   13  C   UNL     1      44.575 -30.841   0.504  1.00  0.00     0.012 A 
ENDBRANCH   3   8
ENDBRANCH   1   2
BRANCH   1  14
HETATM   14  C   UNL     1      47.138 -28.034  -0.439  1.00  0.00     0.280 C 
BRANCH  14  15
HETATM   15  C   UNL     1      47.409 -28.395   1.020  1.00  0.00     0.261 C 
HETATM   16  N   UNL     1      48.555 -29.156   1.190  1.00  0.00    -0.246 N 
HETATM   17  H   UNL     1      49.074 -29.446   0.364  1.00  0.00     0.192 HD
HETATM   18  O   UNL     1      46.669 -28.009   1.923  1.00  0.00    -0.269 OA
BRANCH  16  19
HETATM   19  N   UNL     1      48.952 -29.535   2.436  1.00  0.00    -0.182 NA
HETATM   20  C   UNL     1      49.631 -30.634   2.495  1.00  0.00     0.168 C 
BRANCH  20  21
HETATM   21  C   UNL     1      50.089 -31.108   3.773  1.00  0.00     0.051 A 
HETATM   22  N   UNL     1      49.365 -31.976   4.560  1.00  0.00    -0.365 N 
HETATM   23  H   UNL     1      48.457 -32.343   4.302  1.00  0.00     0.165 HD
HETATM   24  C   UNL     1      50.058 -32.252   5.709  1.00  0.00     0.088 A 
HETATM   25  C   UNL     1      51.238 -31.545   5.671  1.00  0.00     0.019 A 
HETATM   26  C   UNL     1      51.260 -30.824   4.451  1.00  0.00     0.032 A 
ENDBRANCH  20  21
ENDBRANCH  16  19
ENDBRANCH  14  15
ENDBRANCH   1  14
TORSDOF 6
ENDMDL
MODEL 10
REMARK VINA RESULT:      -7.2      1.880      2.515
REMARK  6 active torsions:
REMARK  status: ('A' for Active; 'I' for Inactive)
REMARK    1  A    between atoms: C_4  and  C_5 
REMARK    2  A    between atoms: C_6  and  O_7 
REMARK    3  A    between atoms: O_7  and  C_8 
REMARK    4  A    between atoms: C_8  and  C_9 
REMARK       I    between atoms: C_9  and  N_10 
REMARK    5  A    between atoms: N_10  and  N_11 
REMARK    6  A    between atoms: C_12  and  C_13 
ROOT
HETATM    1  O   UNL     1      40.543 -14.825   4.019  1.00  0.00    -0.341 OA
ENDROOT
BRANCH   1   2
HETATM    2  C   UNL     1      41.536 -15.633   3.520  1.00  0.00     0.080 A 
HETATM    3  C   UNL     1      41.861 -15.528   2.153  1.00  0.00     0.007 A 
HETATM    4  C   UNL     1      42.840 -16.400   1.642  1.00  0.00     0.015 A 
HETATM    5  C   UNL     1      43.462 -17.349   2.458  1.00  0.00     0.001 A 
HETATM    6  C   UNL     1      43.110 -17.451   3.801  1.00  0.00     0.003 A 
HETATM    7  C   UNL     1      42.142 -16.598   4.331  1.00  0.00     0.037 A 
BRANCH   3   8
HETATM    8  C   UNL     1      41.227 -14.541   1.261  1.00  0.00    -0.023 A 
HETATM    9  C   UNL     1      41.624 -13.193   1.271  1.00  0.00     0.012 A 
HETATM   10  C   UNL     1      41.030 -12.262   0.417  1.00  0.00     0.001 A 
HETATM   11  C   UNL     1      40.035 -12.664  -0.469  1.00  0.00     0.000 A 
HETATM   12  C   UNL     1      39.630 -13.996  -0.499  1.00  0.00     0.001 A 
HETATM   13  C   UNL     1      40.221 -14.927   0.361  1.00  0.00     0.012 A 
ENDBRANCH   3   8
ENDBRANCH   1   2
BRANCH   1  14
HETATM   14  C   UNL     1      40.789 -14.424   5.370  1.00  0.00     0.280 C 
BRANCH  14  15
HETATM   15  C   UNL     1      41.748 -13.238   5.420  1.00  0.00     0.261 C 
HETATM   16  N   UNL     1      42.812 -13.432   6.288  1.00  0.00    -0.246 N 
HETATM   17  H   UNL     1      42.841 -14.288   6.838  1.00  0.00     0.192 HD
HETATM   18  O   UNL     1      41.568 -12.239   4.726  1.00  0.00    -0.269 OA
BRANCH  16  19
HETATM   19  N   UNL     1      43.774 -12.478   6.423  1.00  0.00    -0.182 NA
HETATM   20  C   UNL     1      43.723 -11.786   7.515  1.00  0.00     0.168 C 
BRANCH  20  21
HETATM   21  C   UNL     1      44.701 -10.757   7.739  1.00  0.00     0.051 A 
HETATM   22  N   UNL     1      44.421  -9.576   8.390  1.00  0.00    -0.365 N 
HETATM   23  H   UNL     1      43.506  -9.342   8.758  1.00  0.00     0.165 HD
HETATM   24  C   UNL     1      45.547  -8.800   8.458  1.00  0.00     0.088 A 
HETATM   25  C   UNL     1      46.567  -9.481   7.832  1.00  0.00     0.019 A 
HETATM   26  C   UNL     1      46.036 -10.714   7.379  1.00  0.00     0.032 A 
ENDBRANCH  20  21
ENDBRANCH  16  19
ENDBRANCH  14  15
ENDBRANCH   1  14
TORSDOF 6
ENDMDL
