MODEL 1
REMARK VINA RESULT:      -8.2      0.000      0.000
REMARK  3 active torsions:
REMARK  status: ('A' for Active; 'I' for Inactive)
REMARK    1  A    between atoms: C_2  and  N_3 
REMARK       I    between atoms: N_3  and  C_4 
REMARK    2  A    between atoms: C_4  and  C_5 
REMARK    3  A    between atoms: C_5  and  C_6 
ROOT
HETATM    1  C   UNL     1      43.442 -15.823   4.879  1.00  0.00     0.286 C 
HETATM    2  N   UNL     1      43.410 -16.501   3.504  1.00  0.00    -0.056 N 
HETATM    3  H   UNL     1      42.664 -16.059   2.933  1.00  0.00     0.278 HD
HETATM    4  H   UNL     1      44.296 -16.315   3.017  1.00  0.00     0.278 HD
HETATM    5  C   UNL     1      43.134 -17.982   3.532  1.00  0.00     0.209 C 
HETATM    6  C   UNL     1      44.082 -18.660   4.539  1.00  0.00     0.115 C 
HETATM    7  N   UNL     1      43.956 -18.064   5.858  1.00  0.00    -0.353 N 
HETATM    8  C   UNL     1      43.873 -16.711   6.058  1.00  0.00     0.249 C 
HETATM    9  O   UNL     1      44.108 -16.241   7.167  1.00  0.00    -0.271 OA
HETATM   10  C   UNL     1      43.304 -18.561   2.132  1.00  0.00     0.035 C 
HETATM   11  C   UNL     1      43.058 -20.070   2.150  1.00  0.00     0.002 C 
HETATM   12  C   UNL     1      43.929 -20.784   3.185  1.00  0.00     0.002 C 
HETATM   13  C   UNL     1      43.808 -20.164   4.578  1.00  0.00     0.027 C 
HETATM   14  H   UNL     1      44.325 -18.566   6.664  1.00  0.00     0.163 HD
ENDROOT
BRANCH   1  15
HETATM   15  C   UNL     1      42.155 -15.053   5.193  1.00  0.00     0.146 C 
BRANCH  15  16
HETATM   16  C   UNL     1      40.938 -15.902   4.994  1.00  0.00     0.224 C 
HETATM   17  N   UNL     1      40.133 -15.908   3.910  1.00  0.00    -0.327 N 
HETATM   18  H   UNL     1      39.394 -16.596   4.038  1.00  0.00     0.169 HD
HETATM   19  O   UNL     1      40.583 -16.585   5.970  1.00  0.00    -0.273 OA
BRANCH  17  20
HETATM   20  C   UNL     1      40.060 -15.219   2.685  1.00  0.00     0.034 A 
HETATM   21  C   UNL     1      40.262 -15.753   1.415  1.00  0.00     0.031 A 
HETATM   22  C   UNL     1      40.188 -14.941   0.272  1.00  0.00     0.026 A 
HETATM   23  C   UNL     1      39.905 -13.585   0.390  1.00  0.00     0.034 A 
HETATM   24  C   UNL     1      39.691 -13.032   1.645  1.00  0.00     0.026 A 
HETATM   25 CL   UNL     1      39.825 -12.599  -1.013  1.00  0.00    -0.084 Cl
HETATM   26  C   UNL     1      39.767 -13.846   2.781  1.00  0.00     0.031 A 
ENDBRANCH  17  20
ENDBRANCH  15  16
ENDBRANCH   1  15
TORSDOF 3
ENDMDL
MODEL 2
REMARK VINA RESULT:      -8.2      3.673      6.807
REMARK  3 active torsions:
REMARK  status: ('A' for Active; 'I' for Inactive)
REMARK    1  A    between atoms: C_2  and  N_3 
REMARK       I    between atoms: N_3  and  C_4 
REMARK    2  A    between atoms: C_4  and  C_5 
REMARK    3  A    between atoms: C_5  and  C_6 
ROOT
HETATM    1  C   UNL     1      41.798 -14.165   5.735  1.00  0.00     0.286 C 
HETATM    2  N   UNL     1      43.261 -13.712   5.802  1.00  0.00    -0.056 N 
HETATM    3  H   UNL     1      43.847 -14.522   6.082  1.00  0.00     0.278 HD
HETATM    4  H   UNL     1      43.572 -13.441   4.861  1.00  0.00     0.278 HD
HETATM    5  C   UNL     1      43.538 -12.600   6.781  1.00  0.00     0.209 C 
HETATM    6  C   UNL     1      42.540 -11.451   6.545  1.00  0.00     0.115 C 
HETATM    7  N   UNL     1      41.169 -11.922   6.638  1.00  0.00    -0.353 N 
HETATM    8  C   UNL     1      40.745 -13.096   6.075  1.00  0.00     0.249 C 
HETATM    9  O   UNL     1      39.548 -13.287   5.883  1.00  0.00    -0.271 OA
HETATM   10  C   UNL     1      44.979 -12.126   6.624  1.00  0.00     0.035 C 
HETATM   11  C   UNL     1      45.265 -10.975   7.589  1.00  0.00     0.002 C 
HETATM   12  C   UNL     1      44.258  -9.834   7.441  1.00  0.00     0.002 C 
HETATM   13  C   UNL     1      42.810 -10.318   7.536  1.00  0.00     0.027 C 
HETATM   14  H   UNL     1      40.420 -11.241   6.756  1.00  0.00     0.163 HD
ENDROOT
BRANCH   1  15
HETATM   15  C   UNL     1      41.543 -15.470   6.496  1.00  0.00     0.146 C 
BRANCH  15  16
HETATM   16  C   UNL     1      42.806 -16.032   7.073  1.00  0.00     0.224 C 
HETATM   17  N   UNL     1      43.620 -16.936   6.489  1.00  0.00    -0.327 N 
HETATM   18  H   UNL     1      44.414 -17.123   7.098  1.00  0.00     0.169 HD
HETATM   19  O   UNL     1      43.062 -15.708   8.245  1.00  0.00    -0.273 OA
BRANCH  17  20
HETATM   20  C   UNL     1      43.646 -17.667   5.286  1.00  0.00     0.034 A 
HETATM   21  C   UNL     1      43.381 -17.179   4.010  1.00  0.00     0.031 A 
HETATM   22  C   UNL     1      43.411 -18.030   2.893  1.00  0.00     0.026 A 
HETATM   23  C   UNL     1      43.713 -19.379   3.044  1.00  0.00     0.034 A 
HETATM   24  C   UNL     1      43.989 -19.885   4.306  1.00  0.00     0.026 A 
HETATM   25 CL   UNL     1      43.740 -20.413   1.674  1.00  0.00    -0.084 Cl
HETATM   26  C   UNL     1      43.957 -19.033   5.416  1.00  0.00     0.031 A 
ENDBRANCH  17  20
ENDBRANCH  15  16
ENDBRANCH   1  15
TORSDOF 3
ENDMDL
MODEL 3
REMARK VINA RESULT:      -8.0      3.350      6.063
REMARK  3 active torsions:
REMARK  status: ('A' for Active; 'I' for Inactive)
REMARK    1  A    between atoms: C_2  and  N_3 
REMARK       I    between atoms: N_3  and  C_4 
REMARK    2  A    between atoms: C_4  and  C_5 
REMARK    3  A    between atoms: C_5  and  C_6 
ROOT
HETATM    1  C   UNL     1      40.560 -14.606   3.901  1.00  0.00     0.286 C 
HETATM    2  N   UNL     1      41.255 -13.239   3.855  1.00  0.00    -0.056 N 
HETATM    3  H   UNL     1      41.426 -12.986   2.863  1.00  0.00     0.278 HD
HETATM    4  H   UNL     1      40.616 -12.526   4.231  1.00  0.00     0.278 HD
HETATM    5  C   UNL     1      42.581 -13.176   4.568  1.00  0.00     0.209 C 
HETATM    6  C   UNL     1      42.425 -13.749   5.989  1.00  0.00     0.115 C 
HETATM    7  N   UNL     1      41.898 -15.102   5.953  1.00  0.00    -0.353 N 
HETATM    8  C   UNL     1      40.869 -15.477   5.130  1.00  0.00     0.249 C 
HETATM    9  O   UNL     1      40.241 -16.505   5.366  1.00  0.00    -0.271 OA
HETATM   10  C   UNL     1      43.076 -11.734   4.601  1.00  0.00     0.035 C 
HETATM   11  C   UNL     1      44.406 -11.648   5.350  1.00  0.00     0.002 C 
HETATM   12  C   UNL     1      44.324 -12.267   6.746  1.00  0.00     0.002 C 
HETATM   13  C   UNL     1      43.768 -13.692   6.721  1.00  0.00     0.027 C 
HETATM   14  H   UNL     1      41.982 -15.687   6.783  1.00  0.00     0.163 HD
ENDROOT
BRANCH   1  15
HETATM   15  C   UNL     1      40.714 -15.395   2.596  1.00  0.00     0.146 C 
BRANCH  15  16
HETATM   16  C   UNL     1      42.064 -15.193   1.981  1.00  0.00     0.224 C 
HETATM   17  N   UNL     1      43.131 -16.011   2.101  1.00  0.00    -0.327 N 
HETATM   18  H   UNL     1      43.909 -15.637   1.563  1.00  0.00     0.169 HD
HETATM   19  O   UNL     1      42.239 -14.111   1.394  1.00  0.00    -0.273 OA
BRANCH  17  20
HETATM   20  C   UNL     1      43.429 -17.215   2.767  1.00  0.00     0.034 A 
HETATM   21  C   UNL     1      43.305 -18.503   2.255  1.00  0.00     0.031 A 
HETATM   22  C   UNL     1      43.610 -19.624   3.045  1.00  0.00     0.026 A 
HETATM   23  C   UNL     1      44.048 -19.464   4.354  1.00  0.00     0.034 A 
HETATM   24  C   UNL     1      44.188 -18.188   4.882  1.00  0.00     0.026 A 
HETATM   25 CL   UNL     1      44.412 -20.840   5.314  1.00  0.00    -0.084 Cl
HETATM   26  C   UNL     1      43.882 -17.074   4.092  1.00  0.00     0.031 A 
ENDBRANCH  17  20
ENDBRANCH  15  16
ENDBRANCH   1  15
TORSDOF 3
ENDMDL
MODEL 4
REMARK VINA RESULT:      -7.9      1.601      2.174
REMARK  3 active torsions:
REMARK  status: ('A' for Active; 'I' for Inactive)
REMARK    1  A    between atoms: C_2  and  N_3 
REMARK       I    between atoms: N_3  and  C_4 
REMARK    2  A    between atoms: C_4  and  C_5 
REMARK    3  A    between atoms: C_5  and  C_6 
ROOT
HETATM    1  C   UNL     1      43.004 -13.568   4.849  1.00  0.00     0.286 C 
HETATM    2  N   UNL     1      43.173 -14.316   3.521  1.00  0.00    -0.056 N 
HETATM    3  H   UNL     1      42.492 -13.937   2.837  1.00  0.00     0.278 HD
HETATM    4  H   UNL     1      44.108 -14.118   3.141  1.00  0.00     0.278 HD
HETATM    5  C   UNL     1      42.950 -15.805   3.598  1.00  0.00     0.209 C 
HETATM    6  C   UNL     1      43.784 -16.388   4.754  1.00  0.00     0.115 C 
HETATM    7  N   UNL     1      43.469 -15.731   6.010  1.00  0.00    -0.353 N 
HETATM    8  C   UNL     1      43.311 -14.375   6.122  1.00  0.00     0.249 C 
HETATM    9  O   UNL     1      43.384 -13.839   7.223  1.00  0.00    -0.271 OA
HETATM   10  C   UNL     1      43.320 -16.447   2.266  1.00  0.00     0.035 C 
HETATM   11  C   UNL     1      43.129 -17.963   2.338  1.00  0.00     0.002 C 
HETATM   12  C   UNL     1      43.885 -18.584   3.513  1.00  0.00     0.002 C 
HETATM   13  C   UNL     1      43.562 -17.899   4.842  1.00  0.00     0.027 C 
HETATM   14  H   UNL     1      43.748 -16.175   6.884  1.00  0.00     0.163 HD
ENDROOT
BRANCH   1  15
HETATM   15  C   UNL     1      41.660 -12.839   4.954  1.00  0.00     0.146 C 
BRANCH  15  16
HETATM   16  C   UNL     1      40.511 -13.798   5.006  1.00  0.00     0.224 C 
HETATM   17  N   UNL     1      39.829 -14.290   3.950  1.00  0.00    -0.327 N 
HETATM   18  H   UNL     1      39.113 -14.935   4.278  1.00  0.00     0.169 HD
HETATM   19  O   UNL     1      40.085 -14.078   6.140  1.00  0.00    -0.273 OA
BRANCH  17  20
HETATM   20  C   UNL     1      39.857 -14.138   2.552  1.00  0.00     0.034 A 
HETATM   21  C   UNL     1      39.813 -12.941   1.843  1.00  0.00     0.031 A 
HETATM   22  C   UNL     1      39.816 -12.935   0.439  1.00  0.00     0.026 A 
HETATM   23  C   UNL     1      39.869 -14.129  -0.270  1.00  0.00     0.034 A 
HETATM   24  C   UNL     1      39.922 -15.335   0.416  1.00  0.00     0.026 A 
HETATM   25 CL   UNL     1      39.865 -14.111  -1.986  1.00  0.00    -0.084 Cl
HETATM   26  C   UNL     1      39.918 -15.335   1.815  1.00  0.00     0.031 A 
ENDBRANCH  17  20
ENDBRANCH  15  16
ENDBRANCH   1  15
TORSDOF 3
ENDMDL
MODEL 5
REMARK VINA RESULT:      -7.9      2.641      5.933
REMARK  3 active torsions:
REMARK  status: ('A' for Active; 'I' for Inactive)
REMARK    1  A    between atoms: C_2  and  N_3 
REMARK       I    between atoms: N_3  and  C_4 
REMARK    2  A    between atoms: C_4  and  C_5 
REMARK    3  A    between atoms: C_5  and  C_6 
ROOT
HETATM    1  C   UNL     1      40.245 -14.864   5.361  1.00  0.00     0.286 C 
HETATM    2  N   UNL     1      40.179 -15.535   3.984  1.00  0.00    -0.056 N 
HETATM    3  H   UNL     1      40.888 -16.292   3.948  1.00  0.00     0.278 HD
HETATM    4  H   UNL     1      39.263 -15.989   3.876  1.00  0.00     0.278 HD
HETATM    5  C   UNL     1      40.444 -14.618   2.817  1.00  0.00     0.209 C 
HETATM    6  C   UNL     1      39.561 -13.363   2.942  1.00  0.00     0.115 C 
HETATM    7  N   UNL     1      39.780 -12.694   4.213  1.00  0.00    -0.353 N 
HETATM    8  C   UNL     1      39.888 -13.368   5.400  1.00  0.00     0.249 C 
HETATM    9  O   UNL     1      39.733 -12.770   6.460  1.00  0.00    -0.271 OA
HETATM   10  C   UNL     1      40.174 -15.360   1.512  1.00  0.00     0.035 C 
HETATM   11  C   UNL     1      40.408 -14.433   0.319  1.00  0.00     0.002 C 
HETATM   12  C   UNL     1      39.603 -13.137   0.429  1.00  0.00     0.002 C 
HETATM   13  C   UNL     1      39.825 -12.424   1.764  1.00  0.00     0.027 C 
HETATM   14  H   UNL     1      39.463 -11.732   4.326  1.00  0.00     0.163 HD
ENDROOT
BRANCH   1  15
HETATM   15  C   UNL     1      41.557 -15.150   6.100  1.00  0.00     0.146 C 
BRANCH  15  16
HETATM   16  C   UNL     1      42.743 -14.638   5.343  1.00  0.00     0.224 C 
HETATM   17  N   UNL     1      43.545 -15.355   4.527  1.00  0.00    -0.327 N 
HETATM   18  H   UNL     1      44.260 -14.747   4.132  1.00  0.00     0.169 HD
HETATM   19  O   UNL     1      43.075 -13.463   5.579  1.00  0.00    -0.273 OA
BRANCH  17  20
HETATM   20  C   UNL     1      43.640 -16.693   4.102  1.00  0.00     0.034 A 
HETATM   21  C   UNL     1      44.138 -17.767   4.836  1.00  0.00     0.031 A 
HETATM   22  C   UNL     1      44.205 -19.052   4.274  1.00  0.00     0.026 A 
HETATM   23  C   UNL     1      43.768 -19.276   2.974  1.00  0.00     0.034 A 
HETATM   24  C   UNL     1      43.259 -18.222   2.227  1.00  0.00     0.026 A 
HETATM   25 CL   UNL     1      43.860 -20.850   2.294  1.00  0.00    -0.084 Cl
HETATM   26  C   UNL     1      43.196 -16.943   2.791  1.00  0.00     0.031 A 
ENDBRANCH  17  20
ENDBRANCH  15  16
ENDBRANCH   1  15
TORSDOF 3
ENDMDL
MODEL 6
REMARK VINA RESULT:      -7.8      2.742      5.709
REMARK  3 active torsions:
REMARK  status: ('A' for Active; 'I' for Inactive)
REMARK    1  A    between atoms: C_2  and  N_3 
REMARK       I    between atoms: N_3  and  C_4 
REMARK    2  A    between atoms: C_4  and  C_5 
REMARK    3  A    between atoms: C_5  and  C_6 
ROOT
HETATM    1  C   UNL     1      42.554 -14.054   5.719  1.00  0.00     0.286 C 
HETATM    2  N   UNL     1      41.492 -14.970   5.097  1.00  0.00    -0.056 N 
HETATM    3  H   UNL     1      41.687 -15.948   5.386  1.00  0.00     0.278 HD
HETATM    4  H   UNL     1      40.572 -14.730   5.487  1.00  0.00     0.278 HD
HETATM    5  C   UNL     1      41.440 -14.950   3.591  1.00  0.00     0.209 C 
HETATM    6  C   UNL     1      41.369 -13.492   3.101  1.00  0.00     0.115 C 
HETATM    7  N   UNL     1      42.485 -12.714   3.610  1.00  0.00    -0.353 N 
HETATM    8  C   UNL     1      42.924 -12.802   4.905  1.00  0.00     0.249 C 
HETATM    9  O   UNL     1      43.621 -11.909   5.377  1.00  0.00    -0.271 OA
HETATM   10  C   UNL     1      40.238 -15.757   3.111  1.00  0.00     0.035 C 
HETATM   11  C   UNL     1      40.153 -15.721   1.584  1.00  0.00     0.002 C 
HETATM   12  C   UNL     1      40.149 -14.292   1.041  1.00  0.00     0.002 C 
HETATM   13  C   UNL     1      41.318 -13.462   1.572  1.00  0.00     0.027 C 
HETATM   14  H   UNL     1      42.706 -11.821   3.172  1.00  0.00     0.163 HD
ENDROOT
BRANCH   1  15
HETATM   15  C   UNL     1      43.801 -14.815   6.181  1.00  0.00     0.146 C 
BRANCH  15  16
HETATM   16  C   UNL     1      43.447 -15.990   7.039  1.00  0.00     0.224 C 
HETATM   17  N   UNL     1      43.388 -17.281   6.647  1.00  0.00    -0.327 N 
HETATM   18  H   UNL     1      43.141 -17.867   7.441  1.00  0.00     0.169 HD
HETATM   19  O   UNL     1      43.069 -15.728   8.194  1.00  0.00    -0.273 OA
BRANCH  17  20
HETATM   20  C   UNL     1      43.574 -17.997   5.450  1.00  0.00     0.034 A 
HETATM   21  C   UNL     1      43.550 -17.480   4.158  1.00  0.00     0.031 A 
HETATM   22  C   UNL     1      43.721 -18.319   3.044  1.00  0.00     0.026 A 
HETATM   23  C   UNL     1      43.923 -19.683   3.215  1.00  0.00     0.034 A 
HETATM   24  C   UNL     1      43.960 -20.219   4.494  1.00  0.00     0.026 A 
HETATM   25 CL   UNL     1      44.123 -20.701   1.847  1.00  0.00    -0.084 Cl
HETATM   26  C   UNL     1      43.789 -19.380   5.601  1.00  0.00     0.031 A 
ENDBRANCH  17  20
ENDBRANCH  15  16
ENDBRANCH   1  15
TORSDOF 3
ENDMDL
MODEL 7
REMARK VINA RESULT:      -7.8      3.615      6.937
REMARK  3 active torsions:
REMARK  status: ('A' for Active; 'I' for Inactive)
REMARK    1  A    between atoms: C_2  and  N_3 
REMARK       I    between atoms: N_3  and  C_4 
REMARK    2  A    between atoms: C_4  and  C_5 
REMARK    3  A    between atoms: C_5  and  C_6 
ROOT
HETATM    1  C   UNL     1      41.436 -12.990   1.862  1.00  0.00     0.286 C 
HETATM    2  N   UNL     1      40.546 -13.957   1.071  1.00  0.00    -0.056 N 
HETATM    3  H   UNL     1      40.888 -14.925   1.223  1.00  0.00     0.278 HD
HETATM    4  H   UNL     1      39.592 -13.923   1.452  1.00  0.00     0.278 HD
HETATM    5  C   UNL     1      40.519 -13.721  -0.418  1.00  0.00     0.209 C 
HETATM    6  C   UNL     1      40.226 -12.235  -0.695  1.00  0.00     0.115 C 
HETATM    7  N   UNL     1      41.195 -11.378  -0.032  1.00  0.00    -0.353 N 
HETATM    8  C   UNL     1      41.617 -11.589   1.254  1.00  0.00     0.249 C 
HETATM    9  O   UNL     1      42.154 -10.680   1.879  1.00  0.00    -0.271 OA
HETATM   10  C   UNL     1      39.471 -14.623  -1.060  1.00  0.00     0.035 C 
HETATM   11  C   UNL     1      39.410 -14.373  -2.567  1.00  0.00     0.002 C 
HETATM   12  C   UNL     1      39.187 -12.897  -2.898  1.00  0.00     0.002 C 
HETATM   13  C   UNL     1      40.200 -11.984  -2.204  1.00  0.00     0.027 C 
HETATM   14  H   UNL     1      41.278 -10.407  -0.327  1.00  0.00     0.163 HD
ENDROOT
BRANCH   1  15
HETATM   15  C   UNL     1      42.780 -13.610   2.262  1.00  0.00     0.146 C 
BRANCH  15  16
HETATM   16  C   UNL     1      42.813 -13.974   3.714  1.00  0.00     0.224 C 
HETATM   17  N   UNL     1      42.998 -15.209   4.226  1.00  0.00    -0.327 N 
HETATM   18  H   UNL     1      42.993 -15.160   5.243  1.00  0.00     0.169 HD
HETATM   19  O   UNL     1      42.536 -13.062   4.511  1.00  0.00    -0.273 OA
BRANCH  17  20
HETATM   20  C   UNL     1      43.187 -16.510   3.723  1.00  0.00     0.034 A 
HETATM   21  C   UNL     1      42.643 -17.038   2.556  1.00  0.00     0.031 A 
HETATM   22  C   UNL     1      42.890 -18.371   2.186  1.00  0.00     0.026 A 
HETATM   23  C   UNL     1      43.691 -19.184   2.979  1.00  0.00     0.034 A 
HETATM   24  C   UNL     1      44.252 -18.676   4.142  1.00  0.00     0.026 A 
HETATM   25 CL   UNL     1      43.981 -20.813   2.522  1.00  0.00    -0.084 Cl
HETATM   26  C   UNL     1      44.001 -17.348   4.507  1.00  0.00     0.031 A 
ENDBRANCH  17  20
ENDBRANCH  15  16
ENDBRANCH   1  15
TORSDOF 3
ENDMDL
MODEL 8
REMARK VINA RESULT:      -7.7      3.950      5.154
REMARK  3 active torsions:
REMARK  status: ('A' for Active; 'I' for Inactive)
REMARK    1  A    between atoms: C_2  and  N_3 
REMARK       I    between atoms: N_3  and  C_4 
REMARK    2  A    between atoms: C_4  and  C_5 
REMARK    3  A    between atoms: C_5  and  C_6 
ROOT
HETATM    1  C   UNL     1      43.704 -15.858   5.734  1.00  0.00     0.286 C 
HETATM    2  N   UNL     1      44.056 -16.565   4.420  1.00  0.00    -0.056 N 
HETATM    3  H   UNL     1      43.648 -16.026   3.632  1.00  0.00     0.278 HD
HETATM    4  H   UNL     1      45.075 -16.543   4.290  1.00  0.00     0.278 HD
HETATM    5  C   UNL     1      43.548 -17.979   4.304  1.00  0.00     0.209 C 
HETATM    6  C   UNL     1      43.946 -18.770   5.564  1.00  0.00     0.115 C 
HETATM    7  N   UNL     1      43.455 -18.120   6.766  1.00  0.00    -0.353 N 
HETATM    8  C   UNL     1      43.530 -16.766   6.963  1.00  0.00     0.249 C 
HETATM    9  O   UNL     1      43.425 -16.306   8.096  1.00  0.00    -0.271 OA
HETATM   10  C   UNL     1      44.112 -18.623   3.042  1.00  0.00     0.035 C 
HETATM   11  C   UNL     1      43.630 -20.070   2.926  1.00  0.00     0.002 C 
HETATM   12  C   UNL     1      43.942 -20.884   4.183  1.00  0.00     0.002 C 
HETATM   13  C   UNL     1      43.432 -20.207   5.457  1.00  0.00     0.027 C 
HETATM   14  H   UNL     1      43.422 -18.650   7.636  1.00  0.00     0.163 HD
ENDROOT
BRANCH   1  15
HETATM   15  C   UNL     1      42.535 -14.877   5.588  1.00  0.00     0.146 C 
BRANCH  15  16
HETATM   16  C   UNL     1      42.796 -13.858   4.523  1.00  0.00     0.224 C 
HETATM   17  N   UNL     1      43.309 -12.622   4.704  1.00  0.00    -0.327 N 
HETATM   18  H   UNL     1      43.395 -12.153   3.804  1.00  0.00     0.169 HD
HETATM   19  O   UNL     1      42.402 -14.148   3.380  1.00  0.00    -0.273 OA
BRANCH  17  20
HETATM   20  C   UNL     1      43.736 -11.839   5.793  1.00  0.00     0.034 A 
HETATM   21  C   UNL     1      42.927 -11.174   6.709  1.00  0.00     0.031 A 
HETATM   22  C   UNL     1      43.489 -10.397   7.736  1.00  0.00     0.026 A 
HETATM   23  C   UNL     1      44.869 -10.286   7.858  1.00  0.00     0.034 A 
HETATM   24  C   UNL     1      45.696 -10.949   6.962  1.00  0.00     0.026 A 
HETATM   25 CL   UNL     1      45.547  -9.330   9.112  1.00  0.00    -0.084 Cl
HETATM   26  C   UNL     1      45.131 -11.720   5.940  1.00  0.00     0.031 A 
ENDBRANCH  17  20
ENDBRANCH  15  16
ENDBRANCH   1  15
TORSDOF 3
ENDMDL
MODEL 9
REMARK VINA RESULT:      -7.6      4.464      7.055
REMARK  3 active torsions:
REMARK  status: ('A' for Active; 'I' for Inactive)
REMARK    1  A    between atoms: C_2  and  N_3 
REMARK       I    between atoms: N_3  and  C_4 
REMARK    2  A    between atoms: C_4  and  C_5 
REMARK    3  A    between atoms: C_5  and  C_6 
ROOT
HETATM    1  C   UNL     1      42.384 -12.534   4.653  1.00  0.00     0.286 C 
HETATM    2  N   UNL     1      43.831 -12.039   4.765  1.00  0.00    -0.056 N 
HETATM    3  H   UNL     1      44.459 -12.747   4.339  1.00  0.00     0.278 HD
HETATM    4  H   UNL     1      43.937 -11.183   4.206  1.00  0.00     0.278 HD
HETATM    5  C   UNL     1      44.313 -11.803   6.173  1.00  0.00     0.209 C 
HETATM    6  C   UNL     1      43.294 -10.925   6.923  1.00  0.00     0.115 C 
HETATM    7  N   UNL     1      41.971 -11.525   6.901  1.00  0.00    -0.353 N 
HETATM    8  C   UNL     1      41.432 -12.098   5.780  1.00  0.00     0.249 C 
HETATM    9  O   UNL     1      40.221 -12.280   5.707  1.00  0.00    -0.271 OA
HETATM   10  C   UNL     1      45.691 -11.149   6.139  1.00  0.00     0.035 C 
HETATM   11  C   UNL     1      46.181 -10.874   7.561  1.00  0.00     0.002 C 
HETATM   12  C   UNL     1      45.171 -10.061   8.372  1.00  0.00     0.002 C 
HETATM   13  C   UNL     1      43.774 -10.682   8.355  1.00  0.00     0.027 C 
HETATM   14  H   UNL     1      41.268 -11.194   7.560  1.00  0.00     0.163 HD
ENDROOT
BRANCH   1  15
HETATM   15  C   UNL     1      42.289 -14.041   4.386  1.00  0.00     0.146 C 
BRANCH  15  16
HETATM   16  C   UNL     1      42.641 -14.376   2.970  1.00  0.00     0.224 C 
HETATM   17  N   UNL     1      43.086 -15.567   2.515  1.00  0.00    -0.327 N 
HETATM   18  H   UNL     1      43.227 -15.516   1.508  1.00  0.00     0.169 HD
HETATM   19  O   UNL     1      42.618 -13.431   2.163  1.00  0.00    -0.273 OA
BRANCH  17  20
HETATM   20  C   UNL     1      43.400 -16.823   3.068  1.00  0.00     0.034 A 
HETATM   21  C   UNL     1      43.335 -18.055   2.424  1.00  0.00     0.031 A 
HETATM   22  C   UNL     1      43.648 -19.241   3.109  1.00  0.00     0.026 A 
HETATM   23  C   UNL     1      44.035 -19.203   4.443  1.00  0.00     0.034 A 
HETATM   24  C   UNL     1      44.115 -17.984   5.102  1.00  0.00     0.026 A 
HETATM   25 CL   UNL     1      44.408 -20.659   5.272  1.00  0.00    -0.084 Cl
HETATM   26  C   UNL     1      43.801 -16.805   4.416  1.00  0.00     0.031 A 
ENDBRANCH  17  20
ENDBRANCH  15  16
ENDBRANCH   1  15
TORSDOF 3
ENDMDL
MODEL 10
REMARK VINA RESULT:      -7.6     13.452     15.505
REMARK  3 active torsions:
REMARK  status: ('A' for Active; 'I' for Inactive)
REMARK    1  A    between atoms: C_2  and  N_3 
REMARK       I    between atoms: N_3  and  C_4 
REMARK    2  A    between atoms: C_4  and  C_5 
REMARK    3  A    between atoms: C_5  and  C_6 
ROOT
HETATM    1  C   UNL     1      48.809 -29.646   1.125  1.00  0.00     0.286 C 
HETATM    2  N   UNL     1      49.488 -29.481  -0.240  1.00  0.00    -0.056 N 
HETATM    3  H   UNL     1      48.765 -29.242  -0.945  1.00  0.00     0.278 HD
HETATM    4  H   UNL     1      50.131 -28.680  -0.200  1.00  0.00     0.278 HD
HETATM    5  C   UNL     1      50.214 -30.704  -0.740  1.00  0.00     0.209 C 
HETATM    6  C   UNL     1      51.150 -31.230   0.364  1.00  0.00     0.115 C 
HETATM    7  N   UNL     1      50.416 -31.503   1.587  1.00  0.00    -0.353 N 
HETATM    8  C   UNL     1      49.458 -30.659   2.083  1.00  0.00     0.249 C 
HETATM    9  O   UNL     1      49.115 -30.746   3.258  1.00  0.00    -0.271 OA
HETATM   10  C   UNL     1      50.987 -30.357  -2.007  1.00  0.00     0.035 C 
HETATM   11  C   UNL     1      51.754 -31.581  -2.510  1.00  0.00     0.002 C 
HETATM   12  C   UNL     1      52.651 -32.184  -1.428  1.00  0.00     0.002 C 
HETATM   13  C   UNL     1      51.889 -32.474  -0.133  1.00  0.00     0.027 C 
HETATM   14  H   UNL     1      50.848 -32.084   2.304  1.00  0.00     0.163 HD
ENDROOT
BRANCH   1  15
HETATM   15  C   UNL     1      47.296 -29.863   1.015  1.00  0.00     0.146 C 
BRANCH  15  16
HETATM   16  C   UNL     1      46.551 -28.564   0.976  1.00  0.00     0.224 C 
HETATM   17  N   UNL     1      45.699 -28.158   0.010  1.00  0.00    -0.327 N 
HETATM   18  H   UNL     1      45.323 -27.243   0.251  1.00  0.00     0.169 HD
HETATM   19  O   UNL     1      46.833 -27.746   1.868  1.00  0.00    -0.273 OA
BRANCH  17  20
HETATM   20  C   UNL     1      45.218 -28.664  -1.212  1.00  0.00     0.034 A 
HETATM   21  C   UNL     1      44.364 -29.749  -1.385  1.00  0.00     0.031 A 
HETATM   22  C   UNL     1      43.986 -30.170  -2.670  1.00  0.00     0.026 A 
HETATM   23  C   UNL     1      44.455 -29.502  -3.795  1.00  0.00     0.034 A 
HETATM   24  C   UNL     1      45.300 -28.411  -3.646  1.00  0.00     0.026 A 
HETATM   25 CL   UNL     1      43.992 -30.028  -5.363  1.00  0.00    -0.084 Cl
HETATM   26  C   UNL     1      45.675 -27.997  -2.363  1.00  0.00     0.031 A 
ENDBRANCH  17  20
ENDBRANCH  15  16
ENDBRANCH   1  15
TORSDOF 3
ENDMDL
