MODEL 1
REMARK VINA RESULT:      -9.2      0.000      0.000
REMARK  8 active torsions:
REMARK  status: ('A' for Active; 'I' for Inactive)
REMARK    1  A    between atoms: O_2  and  C_3 
REMARK    2  A    between atoms: C_5  and  O_6 
REMARK    3  A    between atoms: C_9  and  N_10 
REMARK       I    between atoms: N_10  and  C_11 
REMARK       I    between atoms: C_11  and  N_12 
REMARK    4  A    between atoms: N_12  and  C_13 
REMARK    5  A    between atoms: C_16  and  N_17 
REMARK    6  A    between atoms: N_20  and  C_22 
REMARK    7  A    between atoms: C_22  and  C_23 
REMARK    8  A    between atoms: C_25  and  C_26 
ROOT
HETATM    1  C   UNL     1      40.471  -9.312   7.832  1.00  0.00     0.054 A 
HETATM    2  C   UNL     1      41.626  -9.729   7.186  1.00  0.00     0.148 A 
HETATM    3  N   UNL     1      41.699 -10.811   6.358  1.00  0.00    -0.241 NA
HETATM    4  C   UNL     1      40.587 -11.544   6.147  1.00  0.00     0.125 A 
HETATM    5  C   UNL     1      39.377 -11.154   6.718  1.00  0.00     0.052 A 
HETATM    6  C   UNL     1      39.317 -10.037   7.557  1.00  0.00     0.035 A 
ENDROOT
BRANCH   4   7
HETATM    7  N   UNL     1      40.709 -12.730   5.428  1.00  0.00    -0.364 N 
HETATM    8  C   UNL     1      42.000 -13.415   5.549  1.00  0.00     0.152 C 
HETATM    9  C   UNL     1      42.837 -13.403   4.257  1.00  0.00     0.255 C 
HETATM   10  N   UNL     1      42.155 -14.282   3.206  1.00  0.00    -0.066 N 
HETATM   11  H   UNL     1      41.556 -14.920   3.743  1.00  0.00     0.280 HD
HETATM   12  C   UNL     1      41.226 -13.529   2.295  1.00  0.00     0.237 C 
HETATM   13  C   UNL     1      40.278 -12.572   3.013  1.00  0.00     0.047 C 
HETATM   14  C   UNL     1      39.763 -13.056   4.365  1.00  0.00     0.126 C 
BRANCH  10  15
HETATM   15  C   UNL     1      43.090 -15.234   2.489  1.00  0.00     0.273 C 
BRANCH  15  16
HETATM   16  C   UNL     1      43.426 -16.520   3.195  1.00  0.00    -0.032 A 
HETATM   17  C   UNL     1      43.338 -17.749   2.515  1.00  0.00     0.025 A 
HETATM   18  C   UNL     1      43.623 -18.964   3.163  1.00  0.00     0.048 A 
HETATM   19  C   UNL     1      43.998 -18.938   4.512  1.00  0.00     0.016 A 
HETATM   20  C   UNL     1      44.084 -17.727   5.199  1.00  0.00     0.001 A 
HETATM   21  C   UNL     1      43.799 -16.528   4.546  1.00  0.00     0.009 A 
BRANCH  18  22
HETATM   22  C   UNL     1      43.518 -20.286   2.435  1.00  0.00     0.417 C 
HETATM   23  F   UNL     1      44.438 -20.409   1.436  1.00  0.00    -0.166 F 
HETATM   24  F   UNL     1      43.717 -21.348   3.259  1.00  0.00    -0.166 F 
HETATM   25  F   UNL     1      42.303 -20.467   1.855  1.00  0.00    -0.166 F 
ENDBRANCH  18  22
ENDBRANCH  15  16
ENDBRANCH  10  15
ENDBRANCH   4   7
BRANCH   1  26
HETATM   26  N   UNL     1      40.375  -8.248   8.755  1.00  0.00    -0.307 N 
HETATM   27  C   UNL     1      40.424  -8.344  10.138  1.00  0.00     0.325 C 
HETATM   28  N   UNL     1      40.243  -7.099  10.720  1.00  0.00    -0.309 N 
HETATM   29  O   UNL     1      40.582  -9.396  10.745  1.00  0.00    -0.247 OA
HETATM   30  H   UNL     1      40.286  -6.300  10.103  1.00  0.00     0.170 HD
HETATM   31  H   UNL     1      40.098  -7.353   8.378  1.00  0.00     0.170 HD
BRANCH  28  32
HETATM   32  C   UNL     1      40.110  -6.791  12.093  1.00  0.00     0.041 A 
HETATM   33  C   UNL     1      38.896  -6.461  12.709  1.00  0.00     0.066 A 
HETATM   34  C   UNL     1      38.844  -6.175  14.080  1.00  0.00     0.073 A 
HETATM   35  C   UNL     1      40.016  -6.196  14.834  1.00  0.00     0.073 A 
HETATM   36  C   UNL     1      41.228  -6.493  14.219  1.00  0.00     0.073 A 
HETATM   37  C   UNL     1      41.279  -6.809  12.863  1.00  0.00     0.066 A 
BRANCH  34  38
HETATM   38  O   UNL     1      37.718  -5.858  14.792  1.00  0.00    -0.356 OA
HETATM   39  C   UNL     1      37.520  -4.483  15.103  1.00  0.00     0.210 C 
ENDBRANCH  34  38
BRANCH  36  40
HETATM   40  O   UNL     1      42.373  -6.556  14.967  1.00  0.00    -0.356 OA
HETATM   41  C   UNL     1      42.053  -6.818  16.335  1.00  0.00     0.210 C 
ENDBRANCH  36  40
ENDBRANCH  28  32
ENDBRANCH   1  26
TORSDOF 8
ENDMDL
MODEL 2
REMARK VINA RESULT:      -9.0      1.864      2.424
REMARK  8 active torsions:
REMARK  status: ('A' for Active; 'I' for Inactive)
REMARK    1  A    between atoms: O_2  and  C_3 
REMARK    2  A    between atoms: C_5  and  O_6 
REMARK    3  A    between atoms: C_9  and  N_10 
REMARK       I    between atoms: N_10  and  C_11 
REMARK       I    between atoms: C_11  and  N_12 
REMARK    4  A    between atoms: N_12  and  C_13 
REMARK    5  A    between atoms: C_16  and  N_17 
REMARK    6  A    between atoms: N_20  and  C_22 
REMARK    7  A    between atoms: C_22  and  C_23 
REMARK    8  A    between atoms: C_25  and  C_26 
ROOT
HETATM    1  C   UNL     1      43.191  -9.353   8.467  1.00  0.00     0.054 A 
HETATM    2  C   UNL     1      43.622 -10.632   8.142  1.00  0.00     0.148 A 
HETATM    3  N   UNL     1      43.300 -11.284   6.988  1.00  0.00    -0.241 NA
HETATM    4  C   UNL     1      42.502 -10.667   6.093  1.00  0.00     0.125 A 
HETATM    5  C   UNL     1      42.076  -9.361   6.325  1.00  0.00     0.052 A 
HETATM    6  C   UNL     1      42.422  -8.702   7.509  1.00  0.00     0.035 A 
ENDROOT
BRANCH   4   7
HETATM    7  N   UNL     1      42.056 -11.398   4.996  1.00  0.00    -0.364 N 
HETATM    8  C   UNL     1      41.353 -12.648   5.310  1.00  0.00     0.152 C 
HETATM    9  C   UNL     1      42.129 -13.917   4.915  1.00  0.00     0.255 C 
HETATM   10  N   UNL     1      42.195 -14.013   3.389  1.00  0.00    -0.066 N 
HETATM   11  H   UNL     1      41.412 -13.440   3.053  1.00  0.00     0.280 HD
HETATM   12  C   UNL     1      43.429 -13.395   2.793  1.00  0.00     0.237 C 
HETATM   13  C   UNL     1      43.769 -12.012   3.344  1.00  0.00     0.047 C 
HETATM   14  C   UNL     1      42.571 -11.123   3.658  1.00  0.00     0.126 C 
BRANCH  10  15
HETATM   15  C   UNL     1      41.859 -15.383   2.837  1.00  0.00     0.273 C 
BRANCH  15  16
HETATM   16  C   UNL     1      42.716 -16.532   3.297  1.00  0.00    -0.032 A 
HETATM   17  C   UNL     1      42.677 -17.764   2.619  1.00  0.00     0.025 A 
HETATM   18  C   UNL     1      43.451 -18.858   3.048  1.00  0.00     0.048 A 
HETATM   19  C   UNL     1      44.270 -18.705   4.174  1.00  0.00     0.016 A 
HETATM   20  C   UNL     1      44.313 -17.490   4.857  1.00  0.00     0.001 A 
HETATM   21  C   UNL     1      43.541 -16.412   4.423  1.00  0.00     0.009 A 
BRANCH  18  22
HETATM   22  C   UNL     1      43.401 -20.187   2.326  1.00  0.00     0.417 C 
HETATM   23  F   UNL     1      44.234 -20.228   1.247  1.00  0.00    -0.166 F 
HETATM   24  F   UNL     1      43.771 -21.223   3.124  1.00  0.00    -0.166 F 
HETATM   25  F   UNL     1      42.160 -20.480   1.858  1.00  0.00    -0.166 F 
ENDBRANCH  18  22
ENDBRANCH  15  16
ENDBRANCH  10  15
ENDBRANCH   4   7
BRANCH   1  26
HETATM   26  N   UNL     1      43.438  -8.679   9.682  1.00  0.00    -0.307 N 
HETATM   27  C   UNL     1      42.543  -8.501  10.728  1.00  0.00     0.325 C 
HETATM   28  N   UNL     1      43.118  -7.744  11.737  1.00  0.00    -0.309 N 
HETATM   29  O   UNL     1      41.400  -8.940  10.731  1.00  0.00    -0.247 OA
HETATM   30  H   UNL     1      44.113  -7.586  11.675  1.00  0.00     0.170 HD
HETATM   31  H   UNL     1      44.297  -8.151   9.733  1.00  0.00     0.170 HD
BRANCH  28  32
HETATM   32  C   UNL     1      42.502  -7.246  12.909  1.00  0.00     0.041 A 
HETATM   33  C   UNL     1      42.307  -8.001  14.073  1.00  0.00     0.066 A 
HETATM   34  C   UNL     1      41.695  -7.433  15.198  1.00  0.00     0.073 A 
HETATM   35  C   UNL     1      41.255  -6.111  15.151  1.00  0.00     0.073 A 
HETATM   36  C   UNL     1      41.419  -5.370  13.987  1.00  0.00     0.073 A 
HETATM   37  C   UNL     1      42.056  -5.920  12.876  1.00  0.00     0.066 A 
BRANCH  34  38
HETATM   38  O   UNL     1      41.467  -8.065  16.392  1.00  0.00    -0.356 OA
HETATM   39  C   UNL     1      40.630  -7.392  17.326  1.00  0.00     0.210 C 
ENDBRANCH  34  38
BRANCH  36  40
HETATM   40  O   UNL     1      41.026  -4.059  13.954  1.00  0.00    -0.356 OA
HETATM   41  C   UNL     1      39.840  -3.921  13.170  1.00  0.00     0.210 C 
ENDBRANCH  36  40
ENDBRANCH  28  32
ENDBRANCH   1  26
TORSDOF 8
ENDMDL
MODEL 3
REMARK VINA RESULT:      -8.9      1.856      3.411
REMARK  8 active torsions:
REMARK  status: ('A' for Active; 'I' for Inactive)
REMARK    1  A    between atoms: O_2  and  C_3 
REMARK    2  A    between atoms: C_5  and  O_6 
REMARK    3  A    between atoms: C_9  and  N_10 
REMARK       I    between atoms: N_10  and  C_11 
REMARK       I    between atoms: C_11  and  N_12 
REMARK    4  A    between atoms: N_12  and  C_13 
REMARK    5  A    between atoms: C_16  and  N_17 
REMARK    6  A    between atoms: N_20  and  C_22 
REMARK    7  A    between atoms: C_22  and  C_23 
REMARK    8  A    between atoms: C_25  and  C_26 
ROOT
HETATM    1  C   UNL     1      42.678  -8.256   9.974  1.00  0.00     0.054 A 
HETATM    2  C   UNL     1      43.798  -8.988   9.606  1.00  0.00     0.148 A 
HETATM    3  N   UNL     1      43.883  -9.754   8.480  1.00  0.00    -0.241 NA
HETATM    4  C   UNL     1      42.813  -9.827   7.662  1.00  0.00     0.125 A 
HETATM    5  C   UNL     1      41.673  -9.076   7.937  1.00  0.00     0.052 A 
HETATM    6  C   UNL     1      41.605  -8.288   9.091  1.00  0.00     0.035 A 
ENDROOT
BRANCH   4   7
HETATM    7  N   UNL     1      42.856 -10.730   6.603  1.00  0.00    -0.364 N 
HETATM    8  C   UNL     1      41.567 -11.024   5.968  1.00  0.00     0.152 C 
HETATM    9  C   UNL     1      41.064 -12.459   6.211  1.00  0.00     0.255 C 
HETATM   10  N   UNL     1      41.969 -13.444   5.468  1.00  0.00    -0.066 N 
HETATM   11  H   UNL     1      42.416 -12.888   4.731  1.00  0.00     0.280 HD
HETATM   12  C   UNL     1      43.097 -13.983   6.304  1.00  0.00     0.237 C 
HETATM   13  C   UNL     1      43.854 -12.921   7.099  1.00  0.00     0.047 C 
HETATM   14  C   UNL     1      44.026 -11.579   6.396  1.00  0.00     0.126 C 
BRANCH  10  15
HETATM   15  C   UNL     1      41.224 -14.500   4.678  1.00  0.00     0.273 C 
BRANCH  15  16
HETATM   16  C   UNL     1      41.985 -15.194   3.581  1.00  0.00    -0.032 A 
HETATM   17  C   UNL     1      42.340 -16.549   3.709  1.00  0.00     0.025 A 
HETATM   18  C   UNL     1      43.072 -17.210   2.706  1.00  0.00     0.048 A 
HETATM   19  C   UNL     1      43.451 -16.493   1.565  1.00  0.00     0.016 A 
HETATM   20  C   UNL     1      43.110 -15.148   1.428  1.00  0.00     0.001 A 
HETATM   21  C   UNL     1      42.383 -14.503   2.429  1.00  0.00     0.009 A 
BRANCH  18  22
HETATM   22  C   UNL     1      43.465 -18.664   2.849  1.00  0.00     0.417 C 
HETATM   23  F   UNL     1      44.734 -18.909   2.416  1.00  0.00    -0.166 F 
HETATM   24  F   UNL     1      43.422 -19.088   4.140  1.00  0.00    -0.166 F 
HETATM   25  F   UNL     1      42.656 -19.495   2.140  1.00  0.00    -0.166 F 
ENDBRANCH  18  22
ENDBRANCH  15  16
ENDBRANCH  10  15
ENDBRANCH   4   7
BRANCH   1  26
HETATM   26  N   UNL     1      42.527  -7.518  11.168  1.00  0.00    -0.307 N 
HETATM   27  C   UNL     1      41.823  -7.907  12.299  1.00  0.00     0.325 C 
HETATM   28  N   UNL     1      41.846  -6.904  13.256  1.00  0.00    -0.309 N 
HETATM   29  O   UNL     1      41.247  -8.982  12.410  1.00  0.00    -0.247 OA
HETATM   30  H   UNL     1      42.489  -6.141  13.098  1.00  0.00     0.170 HD
HETATM   31  H   UNL     1      42.835  -6.557  11.141  1.00  0.00     0.170 HD
BRANCH  28  32
HETATM   32  C   UNL     1      41.156  -6.861  14.489  1.00  0.00     0.041 A 
HETATM   33  C   UNL     1      41.646  -7.408  15.682  1.00  0.00     0.066 A 
HETATM   34  C   UNL     1      40.905  -7.319  16.868  1.00  0.00     0.073 A 
HETATM   35  C   UNL     1      39.655  -6.701  16.855  1.00  0.00     0.073 A 
HETATM   36  C   UNL     1      39.152  -6.185  15.666  1.00  0.00     0.073 A 
HETATM   37  C   UNL     1      39.900  -6.243  14.491  1.00  0.00     0.066 A 
BRANCH  34  38
HETATM   38  O   UNL     1      41.288  -7.798  18.092  1.00  0.00    -0.356 OA
HETATM   39  C   UNL     1      40.249  -8.133  19.005  1.00  0.00     0.210 C 
ENDBRANCH  34  38
BRANCH  36  40
HETATM   40  O   UNL     1      37.945  -5.540  15.661  1.00  0.00    -0.356 OA
HETATM   41  C   UNL     1      37.827  -4.725  14.493  1.00  0.00     0.210 C 
ENDBRANCH  36  40
ENDBRANCH  28  32
ENDBRANCH   1  26
TORSDOF 8
ENDMDL
MODEL 4
REMARK VINA RESULT:      -8.9      2.014      2.527
REMARK  8 active torsions:
REMARK  status: ('A' for Active; 'I' for Inactive)
REMARK    1  A    between atoms: O_2  and  C_3 
REMARK    2  A    between atoms: C_5  and  O_6 
REMARK    3  A    between atoms: C_9  and  N_10 
REMARK       I    between atoms: N_10  and  C_11 
REMARK       I    between atoms: C_11  and  N_12 
REMARK    4  A    between atoms: N_12  and  C_13 
REMARK    5  A    between atoms: C_16  and  N_17 
REMARK    6  A    between atoms: N_20  and  C_22 
REMARK    7  A    between atoms: C_22  and  C_23 
REMARK    8  A    between atoms: C_25  and  C_26 
ROOT
HETATM    1  C   UNL     1      41.127  -8.577   7.241  1.00  0.00     0.054 A 
HETATM    2  C   UNL     1      42.169  -9.105   6.492  1.00  0.00     0.148 A 
HETATM    3  N   UNL     1      42.157 -10.343   5.918  1.00  0.00    -0.241 NA
HETATM    4  C   UNL     1      41.072 -11.126   6.086  1.00  0.00     0.125 A 
HETATM    5  C   UNL     1      39.964 -10.643   6.780  1.00  0.00     0.052 A 
HETATM    6  C   UNL     1      39.989  -9.367   7.354  1.00  0.00     0.035 A 
ENDROOT
BRANCH   4   7
HETATM    7  N   UNL     1      41.133 -12.440   5.630  1.00  0.00    -0.364 N 
HETATM    8  C   UNL     1      42.469 -12.921   5.260  1.00  0.00     0.152 C 
HETATM    9  C   UNL     1      42.649 -13.162   3.750  1.00  0.00     0.255 C 
HETATM   10  N   UNL     1      41.796 -14.360   3.325  1.00  0.00    -0.066 N 
HETATM   11  H   UNL     1      41.640 -14.893   4.188  1.00  0.00     0.280 HD
HETATM   12  C   UNL     1      40.427 -13.985   2.830  1.00  0.00     0.237 C 
HETATM   13  C   UNL     1      39.691 -12.981   3.714  1.00  0.00     0.047 C 
HETATM   14  C   UNL     1      39.922 -13.141   5.214  1.00  0.00     0.126 C 
BRANCH  10  15
HETATM   15  C   UNL     1      42.521 -15.359   2.447  1.00  0.00     0.273 C 
BRANCH  15  16
HETATM   16  C   UNL     1      43.102 -16.569   3.128  1.00  0.00    -0.032 A 
HETATM   17  C   UNL     1      43.078 -17.824   2.491  1.00  0.00     0.025 A 
HETATM   18  C   UNL     1      43.594 -18.971   3.119  1.00  0.00     0.048 A 
HETATM   19  C   UNL     1      44.136 -18.850   4.405  1.00  0.00     0.016 A 
HETATM   20  C   UNL     1      44.160 -17.614   5.049  1.00  0.00     0.001 A 
HETATM   21  C   UNL     1      43.647 -16.482   4.416  1.00  0.00     0.009 A 
BRANCH  18  22
HETATM   22  C   UNL     1      43.559 -20.322   2.440  1.00  0.00     0.417 C 
HETATM   23  F   UNL     1      42.337 -20.607   1.905  1.00  0.00    -0.166 F 
HETATM   24  F   UNL     1      44.445 -20.409   1.414  1.00  0.00    -0.166 F 
HETATM   25  F   UNL     1      43.847 -21.342   3.290  1.00  0.00    -0.166 F 
ENDBRANCH  18  22
ENDBRANCH  15  16
ENDBRANCH  10  15
ENDBRANCH   4   7
BRANCH   1  26
HETATM   26  N   UNL     1      41.136  -7.336   7.913  1.00  0.00    -0.307 N 
HETATM   27  C   UNL     1      41.747  -7.056   9.127  1.00  0.00     0.325 C 
HETATM   28  N   UNL     1      41.500  -5.745   9.506  1.00  0.00    -0.309 N 
HETATM   29  O   UNL     1      42.392  -7.873   9.773  1.00  0.00    -0.247 OA
HETATM   30  H   UNL     1      41.094  -5.141   8.807  1.00  0.00     0.170 HD
HETATM   31  H   UNL     1      40.517  -6.627   7.550  1.00  0.00     0.170 HD
BRANCH  28  32
HETATM   32  C   UNL     1      41.845  -5.111  10.722  1.00  0.00     0.041 A 
HETATM   33  C   UNL     1      41.596  -5.656  11.988  1.00  0.00     0.066 A 
HETATM   34  C   UNL     1      41.974  -4.969  13.149  1.00  0.00     0.073 A 
HETATM   35  C   UNL     1      42.584  -3.720  13.044  1.00  0.00     0.073 A 
HETATM   36  C   UNL     1      42.804  -3.162  11.789  1.00  0.00     0.073 A 
HETATM   37  C   UNL     1      42.458  -3.856  10.631  1.00  0.00     0.066 A 
BRANCH  34  38
HETATM   38  O   UNL     1      41.800  -5.408  14.435  1.00  0.00    -0.356 OA
HETATM   39  C   UNL     1      41.742  -6.816  14.632  1.00  0.00     0.210 C 
ENDBRANCH  34  38
BRANCH  36  40
HETATM   40  O   UNL     1      43.440  -1.955  11.683  1.00  0.00    -0.356 OA
HETATM   41  C   UNL     1      42.925  -1.040  12.651  1.00  0.00     0.210 C 
ENDBRANCH  36  40
ENDBRANCH  28  32
ENDBRANCH   1  26
TORSDOF 8
ENDMDL
MODEL 5
REMARK VINA RESULT:      -8.8      1.603      2.235
REMARK  8 active torsions:
REMARK  status: ('A' for Active; 'I' for Inactive)
REMARK    1  A    between atoms: O_2  and  C_3 
REMARK    2  A    between atoms: C_5  and  O_6 
REMARK    3  A    between atoms: C_9  and  N_10 
REMARK       I    between atoms: N_10  and  C_11 
REMARK       I    between atoms: C_11  and  N_12 
REMARK    4  A    between atoms: N_12  and  C_13 
REMARK    5  A    between atoms: C_16  and  N_17 
REMARK    6  A    between atoms: N_20  and  C_22 
REMARK    7  A    between atoms: C_22  and  C_23 
REMARK    8  A    between atoms: C_25  and  C_26 
ROOT
HETATM    1  C   UNL     1      40.679  -8.801   7.478  1.00  0.00     0.054 A 
HETATM    2  C   UNL     1      41.808  -9.252   6.809  1.00  0.00     0.148 A 
HETATM    3  N   UNL     1      41.896 -10.454   6.169  1.00  0.00    -0.241 NA
HETATM    4  C   UNL     1      40.829 -11.278   6.185  1.00  0.00     0.125 A 
HETATM    5  C   UNL     1      39.642 -10.870   6.790  1.00  0.00     0.052 A 
HETATM    6  C   UNL     1      39.565  -9.630   7.434  1.00  0.00     0.035 A 
ENDROOT
BRANCH   4   7
HETATM    7  N   UNL     1      40.981 -12.561   5.666  1.00  0.00    -0.364 N 
HETATM    8  C   UNL     1      42.366 -13.010   5.481  1.00  0.00     0.152 C 
HETATM    9  C   UNL     1      42.784 -13.155   4.006  1.00  0.00     0.255 C 
HETATM   10  N   UNL     1      42.027 -14.329   3.381  1.00  0.00    -0.066 N 
HETATM   11  H   UNL     1      41.746 -14.916   4.174  1.00  0.00     0.280 HD
HETATM   12  C   UNL     1      40.745 -13.933   2.701  1.00  0.00     0.237 C 
HETATM   13  C   UNL     1      39.865 -12.991   3.518  1.00  0.00     0.047 C 
HETATM   14  C   UNL     1      39.861 -13.242   5.023  1.00  0.00     0.126 C 
BRANCH  10  15
HETATM   15  C   UNL     1      42.895 -15.267   2.568  1.00  0.00     0.273 C 
BRANCH  15  16
HETATM   16  C   UNL     1      43.328 -16.545   3.235  1.00  0.00    -0.032 A 
HETATM   17  C   UNL     1      43.258 -17.768   2.542  1.00  0.00     0.025 A 
HETATM   18  C   UNL     1      43.634 -18.977   3.155  1.00  0.00     0.048 A 
HETATM   19  C   UNL     1      44.081 -18.950   4.482  1.00  0.00     0.016 A 
HETATM   20  C   UNL     1      44.150 -17.746   5.181  1.00  0.00     0.001 A 
HETATM   21  C   UNL     1      43.775 -16.552   4.563  1.00  0.00     0.009 A 
BRANCH  18  22
HETATM   22  C   UNL     1      43.548 -20.293   2.415  1.00  0.00     0.417 C 
HETATM   23  F   UNL     1      43.740 -21.367   3.232  1.00  0.00    -0.166 F 
HETATM   24  F   UNL     1      42.335 -20.480   1.831  1.00  0.00    -0.166 F 
HETATM   25  F   UNL     1      44.475 -20.398   1.428  1.00  0.00    -0.166 F 
ENDBRANCH  18  22
ENDBRANCH  15  16
ENDBRANCH  10  15
ENDBRANCH   4   7
BRANCH   1  26
HETATM   26  N   UNL     1      40.578  -7.601   8.216  1.00  0.00    -0.307 N 
HETATM   27  C   UNL     1      41.197  -7.317   9.425  1.00  0.00     0.325 C 
HETATM   28  N   UNL     1      40.824  -6.062   9.880  1.00  0.00    -0.309 N 
HETATM   29  O   UNL     1      41.949  -8.090  10.006  1.00  0.00    -0.247 OA
HETATM   30  H   UNL     1      40.330  -5.471   9.227  1.00  0.00     0.170 HD
HETATM   31  H   UNL     1      39.873  -6.947   7.910  1.00  0.00     0.170 HD
BRANCH  28  32
HETATM   32  C   UNL     1      41.141  -5.456  11.118  1.00  0.00     0.041 A 
HETATM   33  C   UNL     1      42.112  -4.459  11.277  1.00  0.00     0.066 A 
HETATM   34  C   UNL     1      42.363  -3.901  12.538  1.00  0.00     0.073 A 
HETATM   35  C   UNL     1      41.656  -4.359  13.649  1.00  0.00     0.073 A 
HETATM   36  C   UNL     1      40.714  -5.371  13.498  1.00  0.00     0.073 A 
HETATM   37  C   UNL     1      40.438  -5.906  12.242  1.00  0.00     0.066 A 
BRANCH  34  38
HETATM   38  O   UNL     1      43.272  -2.913  12.811  1.00  0.00    -0.356 OA
HETATM   39  C   UNL     1      42.868  -1.575  12.542  1.00  0.00     0.210 C 
ENDBRANCH  34  38
BRANCH  36  40
HETATM   40  O   UNL     1      39.989  -5.791  14.580  1.00  0.00    -0.356 OA
HETATM   41  C   UNL     1      38.607  -5.474  14.400  1.00  0.00     0.210 C 
ENDBRANCH  36  40
ENDBRANCH  28  32
ENDBRANCH   1  26
TORSDOF 8
ENDMDL
MODEL 6
REMARK VINA RESULT:      -8.8      2.797      4.430
REMARK  8 active torsions:
REMARK  status: ('A' for Active; 'I' for Inactive)
REMARK    1  A    between atoms: O_2  and  C_3 
REMARK    2  A    between atoms: C_5  and  O_6 
REMARK    3  A    between atoms: C_9  and  N_10 
REMARK       I    between atoms: N_10  and  C_11 
REMARK       I    between atoms: C_11  and  N_12 
REMARK    4  A    between atoms: N_12  and  C_13 
REMARK    5  A    between atoms: C_16  and  N_17 
REMARK    6  A    between atoms: N_20  and  C_22 
REMARK    7  A    between atoms: C_22  and  C_23 
REMARK    8  A    between atoms: C_25  and  C_26 
ROOT
HETATM    1  C   UNL     1      43.223  -8.466  11.682  1.00  0.00     0.054 A 
HETATM    2  C   UNL     1      42.857  -7.704  10.581  1.00  0.00     0.148 A 
HETATM    3  N   UNL     1      42.927  -8.133   9.288  1.00  0.00    -0.241 NA
HETATM    4  C   UNL     1      43.388  -9.376   9.040  1.00  0.00     0.125 A 
HETATM    5  C   UNL     1      43.723 -10.220  10.098  1.00  0.00     0.052 A 
HETATM    6  C   UNL     1      43.637  -9.767  11.419  1.00  0.00     0.035 A 
ENDROOT
BRANCH   4   7
HETATM    7  N   UNL     1      43.601  -9.746   7.715  1.00  0.00    -0.364 N 
HETATM    8  C   UNL     1      42.413  -9.725   6.853  1.00  0.00     0.152 C 
HETATM    9  C   UNL     1      41.945 -11.120   6.401  1.00  0.00     0.255 C 
HETATM   10  N   UNL     1      42.977 -11.710   5.436  1.00  0.00    -0.066 N 
HETATM   11  H   UNL     1      43.488 -10.900   5.067  1.00  0.00     0.280 HD
HETATM   12  C   UNL     1      44.013 -12.569   6.106  1.00  0.00     0.237 C 
HETATM   13  C   UNL     1      44.621 -11.956   7.365  1.00  0.00     0.047 C 
HETATM   14  C   UNL     1      44.821 -10.444   7.323  1.00  0.00     0.126 C 
BRANCH  10  15
HETATM   15  C   UNL     1      42.380 -12.321   4.185  1.00  0.00     0.273 C 
BRANCH  15  16
HETATM   16  C   UNL     1      42.001 -13.776   4.251  1.00  0.00    -0.032 A 
HETATM   17  C   UNL     1      42.689 -14.727   3.474  1.00  0.00     0.025 A 
HETATM   18  C   UNL     1      42.334 -16.087   3.503  1.00  0.00     0.048 A 
HETATM   19  C   UNL     1      41.272 -16.491   4.322  1.00  0.00     0.016 A 
HETATM   20  C   UNL     1      40.579 -15.558   5.092  1.00  0.00     0.001 A 
HETATM   21  C   UNL     1      40.940 -14.211   5.057  1.00  0.00     0.009 A 
BRANCH  18  22
HETATM   22  C   UNL     1      43.065 -17.108   2.659  1.00  0.00     0.417 C 
HETATM   23  F   UNL     1      42.261 -18.135   2.265  1.00  0.00    -0.166 F 
HETATM   24  F   UNL     1      43.570 -16.570   1.517  1.00  0.00    -0.166 F 
HETATM   25  F   UNL     1      44.110 -17.676   3.315  1.00  0.00    -0.166 F 
ENDBRANCH  18  22
ENDBRANCH  15  16
ENDBRANCH  10  15
ENDBRANCH   4   7
BRANCH   1  26
HETATM   26  N   UNL     1      43.240  -8.029  13.024  1.00  0.00    -0.307 N 
HETATM   27  C   UNL     1      42.141  -7.871  13.857  1.00  0.00     0.325 C 
HETATM   28  N   UNL     1      42.533  -7.372  15.090  1.00  0.00    -0.309 N 
HETATM   29  O   UNL     1      40.989  -8.121  13.525  1.00  0.00    -0.247 OA
HETATM   30  H   UNL     1      43.524  -7.365  15.282  1.00  0.00     0.170 HD
HETATM   31  H   UNL     1      44.114  -7.656  13.361  1.00  0.00     0.170 HD
BRANCH  28  32
HETATM   32  C   UNL     1      41.710  -6.965  16.165  1.00  0.00     0.041 A 
HETATM   33  C   UNL     1      40.989  -7.849  16.979  1.00  0.00     0.066 A 
HETATM   34  C   UNL     1      40.199  -7.369  18.032  1.00  0.00     0.073 A 
HETATM   35  C   UNL     1      40.112  -5.995  18.258  1.00  0.00     0.073 A 
HETATM   36  C   UNL     1      40.801  -5.114  17.432  1.00  0.00     0.073 A 
HETATM   37  C   UNL     1      41.613  -5.589  16.404  1.00  0.00     0.066 A 
BRANCH  34  38
HETATM   38  O   UNL     1      39.467  -8.134  18.900  1.00  0.00    -0.356 OA
HETATM   39  C   UNL     1      40.196  -8.917  19.839  1.00  0.00     0.210 C 
ENDBRANCH  34  38
BRANCH  36  40
HETATM   40  O   UNL     1      40.750  -3.769  17.679  1.00  0.00    -0.356 OA
HETATM   41  C   UNL     1      39.392  -3.343  17.803  1.00  0.00     0.210 C 
ENDBRANCH  36  40
ENDBRANCH  28  32
ENDBRANCH   1  26
TORSDOF 8
ENDMDL
MODEL 7
REMARK VINA RESULT:      -8.8      1.736      2.905
REMARK  8 active torsions:
REMARK  status: ('A' for Active; 'I' for Inactive)
REMARK    1  A    between atoms: O_2  and  C_3 
REMARK    2  A    between atoms: C_5  and  O_6 
REMARK    3  A    between atoms: C_9  and  N_10 
REMARK       I    between atoms: N_10  and  C_11 
REMARK       I    between atoms: C_11  and  N_12 
REMARK    4  A    between atoms: N_12  and  C_13 
REMARK    5  A    between atoms: C_16  and  N_17 
REMARK    6  A    between atoms: N_20  and  C_22 
REMARK    7  A    between atoms: C_22  and  C_23 
REMARK    8  A    between atoms: C_25  and  C_26 
ROOT
HETATM    1  C   UNL     1      42.668  -8.006   9.642  1.00  0.00     0.054 A 
HETATM    2  C   UNL     1      43.767  -8.808   9.368  1.00  0.00     0.148 A 
HETATM    3  N   UNL     1      43.866  -9.639   8.290  1.00  0.00    -0.241 NA
HETATM    4  C   UNL     1      42.833  -9.708   7.425  1.00  0.00     0.125 A 
HETATM    5  C   UNL     1      41.718  -8.891   7.605  1.00  0.00     0.052 A 
HETATM    6  C   UNL     1      41.637  -8.037   8.711  1.00  0.00     0.035 A 
ENDROOT
BRANCH   4   7
HETATM    7  N   UNL     1      42.880 -10.669   6.420  1.00  0.00    -0.364 N 
HETATM    8  C   UNL     1      41.587 -11.031   5.827  1.00  0.00     0.152 C 
HETATM    9  C   UNL     1      41.125 -12.460   6.162  1.00  0.00     0.255 C 
HETATM   10  N   UNL     1      42.042 -13.465   5.460  1.00  0.00    -0.066 N 
HETATM   11  H   UNL     1      42.462 -12.942   4.683  1.00  0.00     0.280 HD
HETATM   12  C   UNL     1      43.196 -13.927   6.304  1.00  0.00     0.237 C 
HETATM   13  C   UNL     1      43.940 -12.804   7.023  1.00  0.00     0.047 C 
HETATM   14  C   UNL     1      44.066 -11.501   6.240  1.00  0.00     0.126 C 
BRANCH  10  15
HETATM   15  C   UNL     1      41.309 -14.582   4.746  1.00  0.00     0.273 C 
BRANCH  15  16
HETATM   16  C   UNL     1      42.048 -15.282   3.637  1.00  0.00    -0.032 A 
HETATM   17  C   UNL     1      42.428 -16.630   3.774  1.00  0.00     0.025 A 
HETATM   18  C   UNL     1      43.139 -17.294   2.760  1.00  0.00     0.048 A 
HETATM   19  C   UNL     1      43.474 -16.590   1.597  1.00  0.00     0.016 A 
HETATM   20  C   UNL     1      43.108 -15.252   1.450  1.00  0.00     0.001 A 
HETATM   21  C   UNL     1      42.401 -14.602   2.463  1.00  0.00     0.009 A 
BRANCH  18  22
HETATM   22  C   UNL     1      43.558 -18.741   2.912  1.00  0.00     0.417 C 
HETATM   23  F   UNL     1      42.720 -19.599   2.264  1.00  0.00    -0.166 F 
HETATM   24  F   UNL     1      44.798 -18.976   2.408  1.00  0.00    -0.166 F 
HETATM   25  F   UNL     1      43.582 -19.143   4.209  1.00  0.00    -0.166 F 
ENDBRANCH  18  22
ENDBRANCH  15  16
ENDBRANCH  10  15
ENDBRANCH   4   7
BRANCH   1  26
HETATM   26  N   UNL     1      42.499  -7.196  10.785  1.00  0.00    -0.307 N 
HETATM   27  C   UNL     1      41.870  -7.556  11.969  1.00  0.00     0.325 C 
HETATM   28  N   UNL     1      41.844  -6.487  12.851  1.00  0.00    -0.309 N 
HETATM   29  O   UNL     1      41.390  -8.663  12.180  1.00  0.00    -0.247 OA
HETATM   30  H   UNL     1      42.416  -5.689  12.613  1.00  0.00     0.170 HD
HETATM   31  H   UNL     1      42.724  -6.219  10.678  1.00  0.00     0.170 HD
BRANCH  28  32
HETATM   32  C   UNL     1      41.197  -6.409  14.106  1.00  0.00     0.041 A 
HETATM   33  C   UNL     1      39.867  -6.005  14.279  1.00  0.00     0.066 A 
HETATM   34  C   UNL     1      39.293  -5.961  15.557  1.00  0.00     0.073 A 
HETATM   35  C   UNL     1      40.061  -6.301  16.670  1.00  0.00     0.073 A 
HETATM   36  C   UNL     1      41.391  -6.672  16.504  1.00  0.00     0.073 A 
HETATM   37  C   UNL     1      41.956  -6.748  15.233  1.00  0.00     0.066 A 
BRANCH  34  38
HETATM   38  O   UNL     1      38.005  -5.600  15.846  1.00  0.00    -0.356 OA
HETATM   39  C   UNL     1      37.550  -4.360  15.316  1.00  0.00     0.210 C 
ENDBRANCH  34  38
BRANCH  36  40
HETATM   40  O   UNL     1      42.133  -7.047  17.591  1.00  0.00    -0.356 OA
HETATM   41  C   UNL     1      41.282  -7.254  18.720  1.00  0.00     0.210 C 
ENDBRANCH  36  40
ENDBRANCH  28  32
ENDBRANCH   1  26
TORSDOF 8
ENDMDL
MODEL 8
REMARK VINA RESULT:      -8.8      6.835     13.632
REMARK  8 active torsions:
REMARK  status: ('A' for Active; 'I' for Inactive)
REMARK    1  A    between atoms: O_2  and  C_3 
REMARK    2  A    between atoms: C_5  and  O_6 
REMARK    3  A    between atoms: C_9  and  N_10 
REMARK       I    between atoms: N_10  and  C_11 
REMARK       I    between atoms: C_11  and  N_12 
REMARK    4  A    between atoms: N_12  and  C_13 
REMARK    5  A    between atoms: C_16  and  N_17 
REMARK    6  A    between atoms: N_20  and  C_22 
REMARK    7  A    between atoms: C_22  and  C_23 
REMARK    8  A    between atoms: C_25  and  C_26 
ROOT
HETATM    1  C   UNL     1      42.716 -10.512   6.722  1.00  0.00     0.054 A 
HETATM    2  C   UNL     1      41.640  -9.645   6.844  1.00  0.00     0.148 A 
HETATM    3  N   UNL     1      41.381  -8.888   7.949  1.00  0.00    -0.241 NA
HETATM    4  C   UNL     1      42.208  -8.982   9.010  1.00  0.00     0.125 A 
HETATM    5  C   UNL     1      43.341  -9.791   8.941  1.00  0.00     0.052 A 
HETATM    6  C   UNL     1      43.598 -10.554   7.796  1.00  0.00     0.035 A 
ENDROOT
BRANCH   4   7
HETATM    7  N   UNL     1      41.849  -8.327  10.184  1.00  0.00    -0.364 N 
HETATM    8  C   UNL     1      42.942  -7.652  10.894  1.00  0.00     0.152 C 
HETATM    9  C   UNL     1      43.311  -8.306  12.238  1.00  0.00     0.255 C 
HETATM   10  N   UNL     1      42.166  -8.099  13.232  1.00  0.00    -0.066 N 
HETATM   11  H   UNL     1      41.649  -7.288  12.874  1.00  0.00     0.280 HD
HETATM   12  C   UNL     1      41.173  -9.228  13.260  1.00  0.00     0.237 C 
HETATM   13  C   UNL     1      40.721  -9.702  11.881  1.00  0.00     0.047 C 
HETATM   14  C   UNL     1      40.570  -8.606  10.831  1.00  0.00     0.126 C 
BRANCH  10  15
HETATM   15  C   UNL     1      42.609  -7.629  14.602  1.00  0.00     0.273 C 
BRANCH  15  16
HETATM   16  C   UNL     1      41.542  -7.089  15.516  1.00  0.00    -0.032 A 
HETATM   17  C   UNL     1      41.295  -7.698  16.760  1.00  0.00     0.025 A 
HETATM   18  C   UNL     1      40.286  -7.224  17.617  1.00  0.00     0.048 A 
HETATM   19  C   UNL     1      39.517  -6.126  17.213  1.00  0.00     0.016 A 
HETATM   20  C   UNL     1      39.748  -5.517  15.980  1.00  0.00     0.001 A 
HETATM   21  C   UNL     1      40.752  -5.995  15.137  1.00  0.00     0.009 A 
BRANCH  18  22
HETATM   22  C   UNL     1      40.013  -7.887  18.950  1.00  0.00     0.417 C 
HETATM   23  F   UNL     1      39.984  -6.996  19.981  1.00  0.00    -0.166 F 
HETATM   24  F   UNL     1      38.813  -8.525  18.974  1.00  0.00    -0.166 F 
HETATM   25  F   UNL     1      40.952  -8.812  19.276  1.00  0.00    -0.166 F 
ENDBRANCH  18  22
ENDBRANCH  15  16
ENDBRANCH  10  15
ENDBRANCH   4   7
BRANCH   1  26
HETATM   26  N   UNL     1      42.971 -11.367   5.628  1.00  0.00    -0.307 N 
HETATM   27  C   UNL     1      42.249 -12.498   5.275  1.00  0.00     0.325 C 
HETATM   28  N   UNL     1      42.823 -13.118   4.175  1.00  0.00    -0.309 N 
HETATM   29  O   UNL     1      41.258 -12.892   5.876  1.00  0.00    -0.247 OA
HETATM   30  H   UNL     1      43.537 -12.600   3.684  1.00  0.00     0.170 HD
HETATM   31  H   UNL     1      43.847 -11.227   5.146  1.00  0.00     0.170 HD
BRANCH  28  32
HETATM   32  C   UNL     1      42.461 -14.351   3.584  1.00  0.00     0.041 A 
HETATM   33  C   UNL     1      41.393 -14.510   2.692  1.00  0.00     0.066 A 
HETATM   34  C   UNL     1      41.101 -15.764   2.141  1.00  0.00     0.073 A 
HETATM   35  C   UNL     1      41.867 -16.872   2.504  1.00  0.00     0.073 A 
HETATM   36  C   UNL     1      42.908 -16.724   3.415  1.00  0.00     0.073 A 
HETATM   37  C   UNL     1      43.221 -15.472   3.940  1.00  0.00     0.066 A 
BRANCH  34  38
HETATM   38  O   UNL     1      40.099 -16.036   1.249  1.00  0.00    -0.356 OA
HETATM   39  C   UNL     1      39.886 -15.086   0.212  1.00  0.00     0.210 C 
ENDBRANCH  34  38
BRANCH  36  40
HETATM   40  O   UNL     1      43.687 -17.801   3.739  1.00  0.00    -0.356 OA
HETATM   41  C   UNL     1      43.663 -18.018   5.151  1.00  0.00     0.210 C 
ENDBRANCH  36  40
ENDBRANCH  28  32
ENDBRANCH   1  26
TORSDOF 8
ENDMDL
MODEL 9
REMARK VINA RESULT:      -8.7      1.150      1.637
REMARK  8 active torsions:
REMARK  status: ('A' for Active; 'I' for Inactive)
REMARK    1  A    between atoms: O_2  and  C_3 
REMARK    2  A    between atoms: C_5  and  O_6 
REMARK    3  A    between atoms: C_9  and  N_10 
REMARK       I    between atoms: N_10  and  C_11 
REMARK       I    between atoms: C_11  and  N_12 
REMARK    4  A    between atoms: N_12  and  C_13 
REMARK    5  A    between atoms: C_16  and  N_17 
REMARK    6  A    between atoms: N_20  and  C_22 
REMARK    7  A    between atoms: C_22  and  C_23 
REMARK    8  A    between atoms: C_25  and  C_26 
ROOT
HETATM    1  C   UNL     1      41.710  -9.231   8.027  1.00  0.00     0.054 A 
HETATM    2  C   UNL     1      40.604  -9.248   7.189  1.00  0.00     0.148 A 
HETATM    3  N   UNL     1      40.485 -10.040   6.085  1.00  0.00    -0.241 NA
HETATM    4  C   UNL     1      41.505 -10.861   5.761  1.00  0.00     0.125 A 
HETATM    5  C   UNL     1      42.626 -10.939   6.585  1.00  0.00     0.052 A 
HETATM    6  C   UNL     1      42.728 -10.126   7.720  1.00  0.00     0.035 A 
ENDROOT
BRANCH   4   7
HETATM    7  N   UNL     1      41.439 -11.547   4.551  1.00  0.00    -0.364 N 
HETATM    8  C   UNL     1      40.771 -12.853   4.598  1.00  0.00     0.152 C 
HETATM    9  C   UNL     1      41.718 -14.046   4.383  1.00  0.00     0.255 C 
HETATM   10  N   UNL     1      42.215 -14.041   2.935  1.00  0.00    -0.066 N 
HETATM   11  H   UNL     1      41.517 -13.495   2.418  1.00  0.00     0.280 HD
HETATM   12  C   UNL     1      43.517 -13.316   2.741  1.00  0.00     0.237 C 
HETATM   13  C   UNL     1      43.586 -11.953   3.426  1.00  0.00     0.047 C 
HETATM   14  C   UNL     1      42.285 -11.157   3.427  1.00  0.00     0.126 C 
BRANCH  10  15
HETATM   15  C   UNL     1      42.150 -15.391   2.250  1.00  0.00     0.273 C 
BRANCH  15  16
HETATM   16  C   UNL     1      42.880 -16.528   2.914  1.00  0.00    -0.032 A 
HETATM   17  C   UNL     1      42.851 -17.817   2.351  1.00  0.00     0.025 A 
HETATM   18  C   UNL     1      43.506 -18.898   2.968  1.00  0.00     0.048 A 
HETATM   19  C   UNL     1      44.194 -18.675   4.167  1.00  0.00     0.016 A 
HETATM   20  C   UNL     1      44.225 -17.403   4.738  1.00  0.00     0.001 A 
HETATM   21  C   UNL     1      43.572 -16.338   4.117  1.00  0.00     0.009 A 
BRANCH  18  22
HETATM   22  C   UNL     1      43.466 -20.287   2.369  1.00  0.00     0.417 C 
HETATM   23  F   UNL     1      42.285 -20.553   1.742  1.00  0.00    -0.166 F 
HETATM   24  F   UNL     1      44.435 -20.476   1.435  1.00  0.00    -0.166 F 
HETATM   25  F   UNL     1      43.628 -21.262   3.300  1.00  0.00    -0.166 F 
ENDBRANCH  18  22
ENDBRANCH  15  16
ENDBRANCH  10  15
ENDBRANCH   4   7
BRANCH   1  26
HETATM   26  N   UNL     1      41.901  -8.371   9.130  1.00  0.00    -0.307 N 
HETATM   27  C   UNL     1      41.220  -8.411  10.339  1.00  0.00     0.325 C 
HETATM   28  N   UNL     1      41.635  -7.378  11.166  1.00  0.00    -0.309 N 
HETATM   29  O   UNL     1      40.359  -9.238  10.611  1.00  0.00    -0.247 OA
HETATM   30  H   UNL     1      42.460  -6.872  10.880  1.00  0.00     0.170 HD
HETATM   31  H   UNL     1      42.481  -7.561   8.970  1.00  0.00     0.170 HD
BRANCH  28  32
HETATM   32  C   UNL     1      41.107  -7.006  12.423  1.00  0.00     0.041 A 
HETATM   33  C   UNL     1      40.156  -5.993  12.606  1.00  0.00     0.066 A 
HETATM   34  C   UNL     1      39.675  -5.686  13.886  1.00  0.00     0.073 A 
HETATM   35  C   UNL     1      40.164  -6.380  14.991  1.00  0.00     0.073 A 
HETATM   36  C   UNL     1      41.131  -7.364  14.816  1.00  0.00     0.073 A 
HETATM   37  C   UNL     1      41.589  -7.694  13.543  1.00  0.00     0.066 A 
BRANCH  34  38
HETATM   38  O   UNL     1      38.737  -4.734  14.184  1.00  0.00    -0.356 OA
HETATM   39  C   UNL     1      38.118  -4.819  15.462  1.00  0.00     0.210 C 
ENDBRANCH  34  38
BRANCH  36  40
HETATM   40  O   UNL     1      41.581  -8.076  15.896  1.00  0.00    -0.356 OA
HETATM   41  C   UNL     1      40.900  -7.656  17.080  1.00  0.00     0.210 C 
ENDBRANCH  36  40
ENDBRANCH  28  32
ENDBRANCH   1  26
TORSDOF 8
ENDMDL
MODEL 10
REMARK VINA RESULT:      -8.6      3.175      5.023
REMARK  8 active torsions:
REMARK  status: ('A' for Active; 'I' for Inactive)
REMARK    1  A    between atoms: O_2  and  C_3 
REMARK    2  A    between atoms: C_5  and  O_6 
REMARK    3  A    between atoms: C_9  and  N_10 
REMARK       I    between atoms: N_10  and  C_11 
REMARK       I    between atoms: C_11  and  N_12 
REMARK    4  A    between atoms: N_12  and  C_13 
REMARK    5  A    between atoms: C_16  and  N_17 
REMARK    6  A    between atoms: N_20  and  C_22 
REMARK    7  A    between atoms: C_22  and  C_23 
REMARK    8  A    between atoms: C_25  and  C_26 
ROOT
HETATM    1  C   UNL     1      42.217  -9.489  12.339  1.00  0.00     0.054 A 
HETATM    2  C   UNL     1      41.285  -9.617  11.319  1.00  0.00     0.148 A 
HETATM    3  N   UNL     1      41.600  -9.696   9.993  1.00  0.00    -0.241 NA
HETATM    4  C   UNL     1      42.897  -9.639   9.629  1.00  0.00     0.125 A 
HETATM    5  C   UNL     1      43.892  -9.567  10.602  1.00  0.00     0.052 A 
HETATM    6  C   UNL     1      43.553  -9.495  11.957  1.00  0.00     0.035 A 
ENDROOT
BRANCH   4   7
HETATM    7  N   UNL     1      43.195  -9.565   8.271  1.00  0.00    -0.364 N 
HETATM    8  C   UNL     1      42.042  -9.613   7.365  1.00  0.00     0.152 C 
HETATM    9  C   UNL     1      41.959 -10.902   6.528  1.00  0.00     0.255 C 
HETATM   10  N   UNL     1      43.107 -10.921   5.516  1.00  0.00    -0.066 N 
HETATM   11  H   UNL     1      43.384  -9.939   5.411  1.00  0.00     0.280 HD
HETATM   12  C   UNL     1      44.336 -11.636   6.004  1.00  0.00     0.237 C 
HETATM   13  C   UNL     1      44.763 -11.257   7.421  1.00  0.00     0.047 C 
HETATM   14  C   UNL     1      44.556  -9.792   7.794  1.00  0.00     0.126 C 
BRANCH  10  15
HETATM   15  C   UNL     1      42.689 -11.297   4.109  1.00  0.00     0.273 C 
BRANCH  15  16
HETATM   16  C   UNL     1      42.694 -12.763   3.765  1.00  0.00    -0.032 A 
HETATM   17  C   UNL     1      42.082 -13.696   4.622  1.00  0.00     0.025 A 
HETATM   18  C   UNL     1      42.096 -15.072   4.332  1.00  0.00     0.048 A 
HETATM   19  C   UNL     1      42.739 -15.510   3.167  1.00  0.00     0.016 A 
HETATM   20  C   UNL     1      43.355 -14.595   2.313  1.00  0.00     0.001 A 
HETATM   21  C   UNL     1      43.333 -13.232   2.610  1.00  0.00     0.009 A 
BRANCH  18  22
HETATM   22  C   UNL     1      41.448 -16.078   5.258  1.00  0.00     0.417 C 
HETATM   23  F   UNL     1      42.207 -17.197   5.430  1.00  0.00    -0.166 F 
HETATM   24  F   UNL     1      41.237 -15.574   6.502  1.00  0.00    -0.166 F 
HETATM   25  F   UNL     1      40.241 -16.505   4.802  1.00  0.00    -0.166 F 
ENDBRANCH  18  22
ENDBRANCH  15  16
ENDBRANCH  10  15
ENDBRANCH   4   7
BRANCH   1  26
HETATM   26  N   UNL     1      41.925  -9.325  13.711  1.00  0.00    -0.307 N 
HETATM   27  C   UNL     1      41.690  -8.126  14.370  1.00  0.00     0.325 C 
HETATM   28  N   UNL     1      41.491  -8.347  15.725  1.00  0.00    -0.309 N 
HETATM   29  O   UNL     1      41.685  -7.033  13.820  1.00  0.00    -0.247 OA
HETATM   30  H   UNL     1      41.362  -9.305  16.014  1.00  0.00     0.170 HD
HETATM   31  H   UNL     1      42.045 -10.140  14.294  1.00  0.00     0.170 HD
BRANCH  28  32
HETATM   32  C   UNL     1      41.340  -7.384  16.750  1.00  0.00     0.041 A 
HETATM   33  C   UNL     1      41.790  -6.061  16.656  1.00  0.00     0.066 A 
HETATM   34  C   UNL     1      41.596  -5.163  17.713  1.00  0.00     0.073 A 
HETATM   35  C   UNL     1      40.969  -5.597  18.881  1.00  0.00     0.073 A 
HETATM   36  C   UNL     1      40.549  -6.918  18.989  1.00  0.00     0.073 A 
HETATM   37  C   UNL     1      40.712  -7.806  17.927  1.00  0.00     0.066 A 
BRANCH  34  38
HETATM   38  O   UNL     1      41.976  -3.847  17.729  1.00  0.00    -0.356 OA
HETATM   39  C   UNL     1      42.566  -3.363  18.930  1.00  0.00     0.210 C 
ENDBRANCH  34  38
BRANCH  36  40
HETATM   40  O   UNL     1      39.896  -7.334  20.117  1.00  0.00    -0.356 OA
HETATM   41  C   UNL     1      39.297  -8.612  19.896  1.00  0.00     0.210 C 
ENDBRANCH  36  40
ENDBRANCH  28  32
ENDBRANCH   1  26
TORSDOF 8
ENDMDL
