MODEL 1
REMARK VINA RESULT:      -9.5      0.000      0.000
REMARK  2 active torsions:
REMARK  status: ('A' for Active; 'I' for Inactive)
REMARK    1  A    between atoms: N_4  and  C_5 
REMARK    2  A    between atoms: C_15  and  C_16 
REMARK       I    between atoms: C_16  and  N_17 
ROOT
HETATM    1  C   UNL     1      46.546  -9.317   8.014  1.00  0.00     0.073 C 
HETATM    2  C   UNL     1      45.082  -9.485   8.177  1.00  0.00     0.069 C 
HETATM    3  N   UNL     1      44.408  -8.748   9.073  1.00  0.00    -0.170 NA
HETATM    4  N   UNL     1      43.117  -9.198   9.009  1.00  0.00    -0.216 N 
HETATM    5  C   UNL     1      42.964 -10.036   7.918  1.00  0.00     0.145 C 
HETATM    6  C   UNL     1      44.223 -10.318   7.438  1.00  0.00     0.087 C 
HETATM    7  N   UNL     1      41.839 -10.515   7.338  1.00  0.00    -0.349 N 
HETATM    8  C   UNL     1      41.980 -11.290   6.199  1.00  0.00     0.111 C 
HETATM    9  C   UNL     1      43.164 -11.666   5.663  1.00  0.00     0.099 C 
HETATM   10  C   UNL     1      44.429 -11.258   6.352  1.00  0.00     0.205 C 
HETATM   11  O   UNL     1      45.539 -11.676   6.044  1.00  0.00    -0.286 OA
HETATM   12  H   UNL     1      40.903 -10.171   7.548  1.00  0.00     0.167 HD
ENDROOT
BRANCH   9  13
HETATM   13  C   UNL     1      43.078 -12.542   4.467  1.00  0.00     0.264 C 
HETATM   14  N   UNL     1      42.852 -13.898   4.633  1.00  0.00    -0.309 N 
HETATM   15  C   UNL     1      42.565 -14.665   5.882  1.00  0.00     0.093 C 
HETATM   16  C   UNL     1      42.933 -14.846   3.578  1.00  0.00     0.044 A 
HETATM   17  C   UNL     1      42.054 -16.052   5.434  1.00  0.00     0.066 C 
HETATM   18  C   UNL     1      43.808 -14.802   6.764  1.00  0.00     0.033 C 
HETATM   19  C   UNL     1      42.530 -16.107   4.021  1.00  0.00    -0.029 A 
HETATM   20  C   UNL     1      42.531 -17.211   3.179  1.00  0.00     0.009 A 
HETATM   21  C   UNL     1      42.972 -17.042   1.867  1.00  0.00     0.001 A 
HETATM   22  C   UNL     1      43.386 -15.781   1.417  1.00  0.00     0.002 A 
HETATM   23  C   UNL     1      43.362 -14.674   2.271  1.00  0.00     0.030 A 
HETATM   24  O   UNL     1      43.299 -12.007   3.376  1.00  0.00    -0.267 OA
ENDBRANCH   9  13
BRANCH   4  25
HETATM   25  C   UNL     1      42.175  -8.820  10.007  1.00  0.00     0.060 A 
HETATM   26  C   UNL     1      42.030  -9.620  11.150  1.00  0.00     0.031 A 
HETATM   27  C   UNL     1      41.092  -9.286  12.130  1.00  0.00     0.002 A 
HETATM   28  C   UNL     1      40.281  -8.167  11.967  1.00  0.00     0.000 A 
HETATM   29  C   UNL     1      40.402  -7.379  10.823  1.00  0.00     0.002 A 
HETATM   30  C   UNL     1      41.344  -7.704   9.842  1.00  0.00     0.031 A 
ENDBRANCH   4  25
TORSDOF 2
ENDMDL
MODEL 2
REMARK VINA RESULT:      -9.4      3.467      5.443
REMARK  2 active torsions:
REMARK  status: ('A' for Active; 'I' for Inactive)
REMARK    1  A    between atoms: N_4  and  C_5 
REMARK    2  A    between atoms: C_15  and  C_16 
REMARK       I    between atoms: C_16  and  N_17 
ROOT
HETATM    1  C   UNL     1      42.258 -15.764   7.299  1.00  0.00     0.073 C 
HETATM    2  C   UNL     1      42.787 -14.481   6.775  1.00  0.00     0.069 C 
HETATM    3  N   UNL     1      43.621 -13.736   7.516  1.00  0.00    -0.170 NA
HETATM    4  N   UNL     1      43.855 -12.612   6.772  1.00  0.00    -0.216 N 
HETATM    5  C   UNL     1      43.354 -12.782   5.492  1.00  0.00     0.145 C 
HETATM    6  C   UNL     1      42.577 -13.918   5.504  1.00  0.00     0.087 C 
HETATM    7  N   UNL     1      43.556 -12.049   4.373  1.00  0.00    -0.349 N 
HETATM    8  C   UNL     1      42.978 -12.495   3.196  1.00  0.00     0.111 C 
HETATM    9  C   UNL     1      42.163 -13.571   3.096  1.00  0.00     0.099 C 
HETATM   10  C   UNL     1      41.816 -14.331   4.339  1.00  0.00     0.205 C 
HETATM   11  O   UNL     1      40.969 -15.214   4.385  1.00  0.00    -0.286 OA
HETATM   12  H   UNL     1      44.272 -11.327   4.289  1.00  0.00     0.167 HD
ENDROOT
BRANCH   9  13
HETATM   13  C   UNL     1      41.612 -13.835   1.742  1.00  0.00     0.264 C 
HETATM   14  N   UNL     1      40.554 -13.073   1.278  1.00  0.00    -0.309 N 
HETATM   15  C   UNL     1      39.891 -11.891   1.906  1.00  0.00     0.093 C 
HETATM   16  C   UNL     1      39.840 -13.360   0.085  1.00  0.00     0.044 A 
HETATM   17  C   UNL     1      39.029 -11.238   0.803  1.00  0.00     0.066 C 
HETATM   18  C   UNL     1      39.029 -12.292   3.105  1.00  0.00     0.033 C 
HETATM   19  C   UNL     1      38.917 -12.348  -0.188  1.00  0.00    -0.029 A 
HETATM   20  C   UNL     1      38.084 -12.400  -1.297  1.00  0.00     0.009 A 
HETATM   21  C   UNL     1      38.168 -13.511  -2.136  1.00  0.00     0.001 A 
HETATM   22  C   UNL     1      39.085 -14.534  -1.865  1.00  0.00     0.002 A 
HETATM   23  C   UNL     1      39.931 -14.460  -0.753  1.00  0.00     0.030 A 
HETATM   24  O   UNL     1      42.092 -14.795   1.132  1.00  0.00    -0.267 OA
ENDBRANCH   9  13
BRANCH   4  25
HETATM   25  C   UNL     1      44.491 -11.482   7.359  1.00  0.00     0.060 A 
HETATM   26  C   UNL     1      45.819 -11.186   7.013  1.00  0.00     0.031 A 
HETATM   27  C   UNL     1      46.474 -10.100   7.598  1.00  0.00     0.002 A 
HETATM   28  C   UNL     1      45.818  -9.314   8.541  1.00  0.00     0.000 A 
HETATM   29  C   UNL     1      44.506  -9.614   8.907  1.00  0.00     0.002 A 
HETATM   30  C   UNL     1      43.843 -10.696   8.321  1.00  0.00     0.031 A 
ENDBRANCH   4  25
TORSDOF 2
ENDMDL
MODEL 3
REMARK VINA RESULT:      -8.9      2.416      4.038
REMARK  2 active torsions:
REMARK  status: ('A' for Active; 'I' for Inactive)
REMARK    1  A    between atoms: N_4  and  C_5 
REMARK    2  A    between atoms: C_15  and  C_16 
REMARK       I    between atoms: C_16  and  N_17 
ROOT
HETATM    1  C   UNL     1      41.984 -10.800   2.308  1.00  0.00     0.073 C 
HETATM    2  C   UNL     1      41.853 -11.071   3.760  1.00  0.00     0.069 C 
HETATM    3  N   UNL     1      41.187 -10.218   4.553  1.00  0.00    -0.170 NA
HETATM    4  N   UNL     1      41.315 -10.729   5.816  1.00  0.00    -0.216 N 
HETATM    5  C   UNL     1      41.852 -12.003   5.756  1.00  0.00     0.145 C 
HETATM    6  C   UNL     1      42.301 -12.199   4.470  1.00  0.00     0.087 C 
HETATM    7  N   UNL     1      41.936 -12.959   6.711  1.00  0.00    -0.349 N 
HETATM    8  C   UNL     1      42.468 -14.185   6.351  1.00  0.00     0.111 C 
HETATM    9  C   UNL     1      42.978 -14.478   5.132  1.00  0.00     0.099 C 
HETATM   10  C   UNL     1      43.016 -13.403   4.089  1.00  0.00     0.205 C 
HETATM   11  O   UNL     1      43.596 -13.513   3.016  1.00  0.00    -0.286 OA
HETATM   12  H   UNL     1      41.444 -12.915   7.603  1.00  0.00     0.167 HD
ENDROOT
BRANCH   9  13
HETATM   13  C   UNL     1      43.544 -15.843   4.983  1.00  0.00     0.264 C 
HETATM   14  N   UNL     1      43.113 -16.647   3.943  1.00  0.00    -0.309 N 
HETATM   15  C   UNL     1      42.188 -16.324   2.815  1.00  0.00     0.093 C 
HETATM   16  C   UNL     1      43.450 -18.022   3.817  1.00  0.00     0.044 A 
HETATM   17  C   UNL     1      42.347 -17.461   1.781  1.00  0.00     0.066 C 
HETATM   18  C   UNL     1      40.736 -16.214   3.284  1.00  0.00     0.033 C 
HETATM   19  C   UNL     1      42.978 -18.533   2.607  1.00  0.00    -0.029 A 
HETATM   20  C   UNL     1      43.169 -19.860   2.250  1.00  0.00     0.009 A 
HETATM   21  C   UNL     1      43.830 -20.697   3.149  1.00  0.00     0.001 A 
HETATM   22  C   UNL     1      44.300 -20.195   4.369  1.00  0.00     0.002 A 
HETATM   23  C   UNL     1      44.117 -18.849   4.706  1.00  0.00     0.030 A 
HETATM   24  O   UNL     1      44.325 -16.214   5.866  1.00  0.00    -0.267 OA
ENDBRANCH   9  13
BRANCH   4  25
HETATM   25  C   UNL     1      40.953  -9.945   6.948  1.00  0.00     0.060 A 
HETATM   26  C   UNL     1      41.943  -9.206   7.614  1.00  0.00     0.031 A 
HETATM   27  C   UNL     1      41.618  -8.452   8.744  1.00  0.00     0.002 A 
HETATM   28  C   UNL     1      40.313  -8.445   9.228  1.00  0.00     0.000 A 
HETATM   29  C   UNL     1      39.328  -9.194   8.585  1.00  0.00     0.002 A 
HETATM   30  C   UNL     1      39.645  -9.946   7.450  1.00  0.00     0.031 A 
ENDBRANCH   4  25
TORSDOF 2
ENDMDL
MODEL 4
REMARK VINA RESULT:      -8.7      4.929      8.672
REMARK  2 active torsions:
REMARK  status: ('A' for Active; 'I' for Inactive)
REMARK    1  A    between atoms: N_4  and  C_5 
REMARK    2  A    between atoms: C_15  and  C_16 
REMARK       I    between atoms: C_16  and  N_17 
ROOT
HETATM    1  C   UNL     1      43.946 -13.976   6.382  1.00  0.00     0.073 C 
HETATM    2  C   UNL     1      43.346 -14.962   5.451  1.00  0.00     0.069 C 
HETATM    3  N   UNL     1      43.732 -16.247   5.478  1.00  0.00    -0.170 NA
HETATM    4  N   UNL     1      43.040 -16.851   4.464  1.00  0.00    -0.216 N 
HETATM    5  C   UNL     1      42.068 -15.991   3.980  1.00  0.00     0.145 C 
HETATM    6  C   UNL     1      42.315 -14.749   4.519  1.00  0.00     0.087 C 
HETATM    7  N   UNL     1      41.019 -16.235   3.160  1.00  0.00    -0.349 N 
HETATM    8  C   UNL     1      40.154 -15.189   2.892  1.00  0.00     0.111 C 
HETATM    9  C   UNL     1      40.318 -13.919   3.329  1.00  0.00     0.099 C 
HETATM   10  C   UNL     1      41.536 -13.586   4.135  1.00  0.00     0.205 C 
HETATM   11  O   UNL     1      41.861 -12.445   4.441  1.00  0.00    -0.286 OA
HETATM   12  H   UNL     1      40.703 -17.171   2.908  1.00  0.00     0.167 HD
ENDROOT
BRANCH   9  13
HETATM   13  C   UNL     1      39.292 -12.945   2.876  1.00  0.00     0.264 C 
HETATM   14  N   UNL     1      39.149 -12.690   1.523  1.00  0.00    -0.309 N 
HETATM   15  C   UNL     1      39.826 -13.338   0.360  1.00  0.00     0.093 C 
HETATM   16  C   UNL     1      38.333 -11.653   0.998  1.00  0.00     0.044 A 
HETATM   17  C   UNL     1      39.034 -12.914  -0.897  1.00  0.00     0.066 C 
HETATM   18  C   UNL     1      41.293 -12.916   0.246  1.00  0.00     0.033 C 
HETATM   19  C   UNL     1      38.288 -11.722  -0.395  1.00  0.00    -0.029 A 
HETATM   20  C   UNL     1      37.565 -10.809  -1.149  1.00  0.00     0.009 A 
HETATM   21  C   UNL     1      36.892  -9.786  -0.481  1.00  0.00     0.001 A 
HETATM   22  C   UNL     1      36.937  -9.704   0.916  1.00  0.00     0.002 A 
HETATM   23  C   UNL     1      37.656 -10.643   1.664  1.00  0.00     0.030 A 
HETATM   24  O   UNL     1      38.671 -12.349   3.761  1.00  0.00    -0.267 OA
ENDBRANCH   9  13
BRANCH   4  25
HETATM   25  C   UNL     1      43.395 -18.160   4.033  1.00  0.00     0.060 A 
HETATM   26  C   UNL     1      43.210 -18.512   2.687  1.00  0.00     0.031 A 
HETATM   27  C   UNL     1      43.523 -19.800   2.246  1.00  0.00     0.002 A 
HETATM   28  C   UNL     1      44.004 -20.748   3.145  1.00  0.00     0.000 A 
HETATM   29  C   UNL     1      44.168 -20.414   4.489  1.00  0.00     0.002 A 
HETATM   30  C   UNL     1      43.863 -19.125   4.935  1.00  0.00     0.031 A 
ENDBRANCH   4  25
TORSDOF 2
ENDMDL
MODEL 5
REMARK VINA RESULT:      -8.6      3.142      9.071
REMARK  2 active torsions:
REMARK  status: ('A' for Active; 'I' for Inactive)
REMARK    1  A    between atoms: N_4  and  C_5 
REMARK    2  A    between atoms: C_15  and  C_16 
REMARK       I    between atoms: C_16  and  N_17 
ROOT
HETATM    1  C   UNL     1      40.391 -14.553   0.418  1.00  0.00     0.073 C 
HETATM    2  C   UNL     1      41.035 -15.107   1.634  1.00  0.00     0.069 C 
HETATM    3  N   UNL     1      41.904 -16.126   1.539  1.00  0.00    -0.170 NA
HETATM    4  N   UNL     1      42.248 -16.424   2.830  1.00  0.00    -0.216 N 
HETATM    5  C   UNL     1      41.774 -15.442   3.683  1.00  0.00     0.145 C 
HETATM    6  C   UNL     1      40.909 -14.653   2.959  1.00  0.00     0.087 C 
HETATM    7  N   UNL     1      42.067 -15.200   4.982  1.00  0.00    -0.349 N 
HETATM    8  C   UNL     1      41.490 -14.091   5.577  1.00  0.00     0.111 C 
HETATM    9  C   UNL     1      40.596 -13.271   4.979  1.00  0.00     0.099 C 
HETATM   10  C   UNL     1      40.153 -13.582   3.583  1.00  0.00     0.205 C 
HETATM   11  O   UNL     1      39.238 -13.003   3.012  1.00  0.00    -0.286 OA
HETATM   12  H   UNL     1      42.839 -15.641   5.480  1.00  0.00     0.167 HD
ENDROOT
BRANCH   9  13
HETATM   13  C   UNL     1      40.067 -12.171   5.825  1.00  0.00     0.264 C 
HETATM   14  N   UNL     1      40.554 -10.886   5.653  1.00  0.00    -0.309 N 
HETATM   15  C   UNL     1      41.512 -10.365   4.632  1.00  0.00     0.093 C 
HETATM   16  C   UNL     1      40.254  -9.806   6.524  1.00  0.00     0.044 A 
HETATM   17  C   UNL     1      41.416  -8.825   4.692  1.00  0.00     0.066 C 
HETATM   18  C   UNL     1      42.944 -10.833   4.903  1.00  0.00     0.033 C 
HETATM   19  C   UNL     1      40.781  -8.614   6.026  1.00  0.00    -0.029 A 
HETATM   20  C   UNL     1      40.634  -7.410   6.702  1.00  0.00     0.009 A 
HETATM   21  C   UNL     1      39.960  -7.417   7.923  1.00  0.00     0.001 A 
HETATM   22  C   UNL     1      39.434  -8.610   8.434  1.00  0.00     0.002 A 
HETATM   23  C   UNL     1      39.574  -9.812   7.733  1.00  0.00     0.030 A 
HETATM   24  O   UNL     1      39.264 -12.493   6.706  1.00  0.00    -0.267 OA
ENDBRANCH   9  13
BRANCH   4  25
HETATM   25  C   UNL     1      42.953 -17.625   3.125  1.00  0.00     0.060 A 
HETATM   26  C   UNL     1      42.856 -18.711   2.243  1.00  0.00     0.031 A 
HETATM   27  C   UNL     1      43.516 -19.910   2.525  1.00  0.00     0.002 A 
HETATM   28  C   UNL     1      44.258 -20.039   3.696  1.00  0.00     0.000 A 
HETATM   29  C   UNL     1      44.341 -18.972   4.590  1.00  0.00     0.002 A 
HETATM   30  C   UNL     1      43.689 -17.768   4.310  1.00  0.00     0.031 A 
ENDBRANCH   4  25
TORSDOF 2
ENDMDL
MODEL 6
REMARK VINA RESULT:      -8.5      2.605      8.948
REMARK  2 active torsions:
REMARK  status: ('A' for Active; 'I' for Inactive)
REMARK    1  A    between atoms: N_4  and  C_5 
REMARK    2  A    between atoms: C_15  and  C_16 
REMARK       I    between atoms: C_16  and  N_17 
ROOT
HETATM    1  C   UNL     1      47.186  -9.829   7.708  1.00  0.00     0.073 C 
HETATM    2  C   UNL     1      45.807 -10.335   7.502  1.00  0.00     0.069 C 
HETATM    3  N   UNL     1      45.600 -11.535   6.939  1.00  0.00    -0.170 NA
HETATM    4  N   UNL     1      44.241 -11.655   6.841  1.00  0.00    -0.216 N 
HETATM    5  C   UNL     1      43.626 -10.640   7.553  1.00  0.00     0.145 C 
HETATM    6  C   UNL     1      44.600  -9.729   7.892  1.00  0.00     0.087 C 
HETATM    7  N   UNL     1      42.332 -10.496   7.925  1.00  0.00    -0.349 N 
HETATM    8  C   UNL     1      42.003  -9.399   8.704  1.00  0.00     0.111 C 
HETATM    9  C   UNL     1      42.865  -8.420   9.061  1.00  0.00     0.099 C 
HETATM   10  C   UNL     1      44.275  -8.482   8.561  1.00  0.00     0.205 C 
HETATM   11  O   UNL     1      45.086  -7.574   8.691  1.00  0.00    -0.286 OA
HETATM   12  H   UNL     1      41.637 -11.239   7.859  1.00  0.00     0.167 HD
ENDROOT
BRANCH   9  13
HETATM   13  C   UNL     1      42.282  -7.310   9.857  1.00  0.00     0.264 C 
HETATM   14  N   UNL     1      42.445  -7.300  11.232  1.00  0.00    -0.309 N 
HETATM   15  C   UNL     1      43.240  -8.222  12.097  1.00  0.00     0.093 C 
HETATM   16  C   UNL     1      41.779  -6.394  12.099  1.00  0.00     0.044 A 
HETATM   17  C   UNL     1      43.349  -7.538  13.478  1.00  0.00     0.066 C 
HETATM   18  C   UNL     1      42.581  -9.597  12.222  1.00  0.00     0.033 C 
HETATM   19  C   UNL     1      42.240  -6.541  13.408  1.00  0.00    -0.029 A 
HETATM   20  C   UNL     1      41.735  -5.776  14.451  1.00  0.00     0.009 A 
HETATM   21  C   UNL     1      40.724  -4.858  14.167  1.00  0.00     0.001 A 
HETATM   22  C   UNL     1      40.251  -4.708  12.857  1.00  0.00     0.002 A 
HETATM   23  C   UNL     1      40.782  -5.474  11.813  1.00  0.00     0.030 A 
HETATM   24  O   UNL     1      41.601  -6.487   9.237  1.00  0.00    -0.267 OA
ENDBRANCH   9  13
BRANCH   4  25
HETATM   25  C   UNL     1      43.667 -12.693   6.053  1.00  0.00     0.060 A 
HETATM   26  C   UNL     1      43.707 -14.014   6.525  1.00  0.00     0.031 A 
HETATM   27  C   UNL     1      43.177 -15.053   5.757  1.00  0.00     0.002 A 
HETATM   28  C   UNL     1      42.621 -14.785   4.509  1.00  0.00     0.000 A 
HETATM   29  C   UNL     1      42.598 -13.479   4.023  1.00  0.00     0.002 A 
HETATM   30  C   UNL     1      43.121 -12.433   4.789  1.00  0.00     0.031 A 
ENDBRANCH   4  25
TORSDOF 2
ENDMDL
MODEL 7
REMARK VINA RESULT:      -8.5      5.481      9.053
REMARK  2 active torsions:
REMARK  status: ('A' for Active; 'I' for Inactive)
REMARK    1  A    between atoms: N_4  and  C_5 
REMARK    2  A    between atoms: C_15  and  C_16 
REMARK       I    between atoms: C_16  and  N_17 
ROOT
HETATM    1  C   UNL     1      43.271 -11.602   3.430  1.00  0.00     0.073 C 
HETATM    2  C   UNL     1      42.841 -12.953   2.995  1.00  0.00     0.069 C 
HETATM    3  N   UNL     1      43.199 -14.040   3.696  1.00  0.00    -0.170 NA
HETATM    4  N   UNL     1      42.699 -15.101   2.991  1.00  0.00    -0.216 N 
HETATM    5  C   UNL     1      41.845 -14.648   2.001  1.00  0.00     0.145 C 
HETATM    6  C   UNL     1      42.003 -13.284   1.915  1.00  0.00     0.087 C 
HETATM    7  N   UNL     1      40.963 -15.329   1.232  1.00  0.00    -0.349 N 
HETATM    8  C   UNL     1      40.175 -14.602   0.355  1.00  0.00     0.111 C 
HETATM    9  C   UNL     1      40.272 -13.267   0.156  1.00  0.00     0.099 C 
HETATM   10  C   UNL     1      41.324 -12.502   0.898  1.00  0.00     0.205 C 
HETATM   11  O   UNL     1      41.601 -11.330   0.674  1.00  0.00    -0.286 OA
HETATM   12  H   UNL     1      40.686 -16.295   1.407  1.00  0.00     0.167 HD
ENDROOT
BRANCH   9  13
HETATM   13  C   UNL     1      39.361 -12.704  -0.872  1.00  0.00     0.264 C 
HETATM   14  N   UNL     1      38.461 -11.715  -0.514  1.00  0.00    -0.309 N 
HETATM   15  C   UNL     1      38.304 -11.004   0.790  1.00  0.00     0.093 C 
HETATM   16  C   UNL     1      37.429 -11.241  -1.367  1.00  0.00     0.044 A 
HETATM   17  C   UNL     1      37.403  -9.780   0.513  1.00  0.00     0.066 C 
HETATM   18  C   UNL     1      37.683 -11.906   1.859  1.00  0.00     0.033 C 
HETATM   19  C   UNL     1      36.767 -10.161  -0.782  1.00  0.00    -0.029 A 
HETATM   20  C   UNL     1      35.707  -9.525  -1.413  1.00  0.00     0.009 A 
HETATM   21  C   UNL     1      35.290 -10.008  -2.653  1.00  0.00     0.001 A 
HETATM   22  C   UNL     1      35.944 -11.097  -3.245  1.00  0.00     0.002 A 
HETATM   23  C   UNL     1      37.023 -11.716  -2.605  1.00  0.00     0.030 A 
HETATM   24  O   UNL     1      39.409 -13.221  -1.992  1.00  0.00    -0.267 OA
ENDBRANCH   9  13
BRANCH   4  25
HETATM   25  C   UNL     1      43.110 -16.428   3.303  1.00  0.00     0.060 A 
HETATM   26  C   UNL     1      43.513 -16.730   4.613  1.00  0.00     0.031 A 
HETATM   27  C   UNL     1      43.949 -18.017   4.937  1.00  0.00     0.002 A 
HETATM   28  C   UNL     1      44.004 -19.003   3.956  1.00  0.00     0.000 A 
HETATM   29  C   UNL     1      43.628 -18.705   2.647  1.00  0.00     0.002 A 
HETATM   30  C   UNL     1      43.184 -17.421   2.317  1.00  0.00     0.031 A 
ENDBRANCH   4  25
TORSDOF 2
ENDMDL
MODEL 8
REMARK VINA RESULT:      -8.4      5.610      9.387
REMARK  2 active torsions:
REMARK  status: ('A' for Active; 'I' for Inactive)
REMARK    1  A    between atoms: N_4  and  C_5 
REMARK    2  A    between atoms: C_15  and  C_16 
REMARK       I    between atoms: C_16  and  N_17 
ROOT
HETATM    1  C   UNL     1      39.619 -12.650   4.936  1.00  0.00     0.073 C 
HETATM    2  C   UNL     1      40.204 -13.590   3.949  1.00  0.00     0.069 C 
HETATM    3  N   UNL     1      40.836 -14.700   4.359  1.00  0.00    -0.170 NA
HETATM    4  N   UNL     1      41.301 -15.290   3.215  1.00  0.00    -0.216 N 
HETATM    5  C   UNL     1      40.752 -14.668   2.107  1.00  0.00     0.145 C 
HETATM    6  C   UNL     1      40.138 -13.517   2.546  1.00  0.00     0.087 C 
HETATM    7  N   UNL     1      40.739 -15.051   0.809  1.00  0.00    -0.349 N 
HETATM    8  C   UNL     1      40.047 -14.258  -0.091  1.00  0.00     0.111 C 
HETATM    9  C   UNL     1      39.443 -13.088   0.218  1.00  0.00     0.099 C 
HETATM   10  C   UNL     1      39.545 -12.570   1.619  1.00  0.00     0.205 C 
HETATM   11  O   UNL     1      39.175 -11.455   1.964  1.00  0.00    -0.286 OA
HETATM   12  H   UNL     1      41.011 -15.980   0.490  1.00  0.00     0.167 HD
ENDROOT
BRANCH   9  13
HETATM   13  C   UNL     1      38.802 -12.377  -0.918  1.00  0.00     0.264 C 
HETATM   14  N   UNL     1      39.558 -11.515  -1.694  1.00  0.00    -0.309 N 
HETATM   15  C   UNL     1      41.023 -11.232  -1.641  1.00  0.00     0.093 C 
HETATM   16  C   UNL     1      39.008 -10.654  -2.681  1.00  0.00     0.044 A 
HETATM   17  C   UNL     1      41.368 -10.477  -2.944  1.00  0.00     0.066 C 
HETATM   18  C   UNL     1      41.399 -10.398  -0.414  1.00  0.00     0.033 C 
HETATM   19  C   UNL     1      40.023 -10.003  -3.383  1.00  0.00    -0.029 A 
HETATM   20  C   UNL     1      39.745  -9.095  -4.395  1.00  0.00     0.009 A 
HETATM   21  C   UNL     1      38.409  -8.821  -4.688  1.00  0.00     0.001 A 
HETATM   22  C   UNL     1      37.384  -9.464  -3.983  1.00  0.00     0.002 A 
HETATM   23  C   UNL     1      37.680 -10.391  -2.977  1.00  0.00     0.030 A 
HETATM   24  O   UNL     1      37.585 -12.542  -1.054  1.00  0.00    -0.267 OA
ENDBRANCH   9  13
BRANCH   4  25
HETATM   25  C   UNL     1      42.244 -16.354   3.289  1.00  0.00     0.060 A 
HETATM   26  C   UNL     1      42.212 -17.367   2.317  1.00  0.00     0.031 A 
HETATM   27  C   UNL     1      43.107 -18.436   2.384  1.00  0.00     0.002 A 
HETATM   28  C   UNL     1      44.025 -18.514   3.428  1.00  0.00     0.000 A 
HETATM   29  C   UNL     1      44.049 -17.524   4.410  1.00  0.00     0.002 A 
HETATM   30  C   UNL     1      43.160 -16.448   4.345  1.00  0.00     0.031 A 
ENDBRANCH   4  25
TORSDOF 2
ENDMDL
MODEL 9
REMARK VINA RESULT:      -8.1      5.677      8.030
REMARK  2 active torsions:
REMARK  status: ('A' for Active; 'I' for Inactive)
REMARK    1  A    between atoms: N_4  and  C_5 
REMARK    2  A    between atoms: C_15  and  C_16 
REMARK       I    between atoms: C_16  and  N_17 
ROOT
HETATM    1  C   UNL     1      41.732  -9.723  -0.742  1.00  0.00     0.073 C 
HETATM    2  C   UNL     1      40.425 -10.184  -0.216  1.00  0.00     0.069 C 
HETATM    3  N   UNL     1      39.287  -9.883  -0.861  1.00  0.00    -0.170 NA
HETATM    4  N   UNL     1      38.287 -10.397  -0.081  1.00  0.00    -0.216 N 
HETATM    5  C   UNL     1      38.826 -11.205   0.905  1.00  0.00     0.145 C 
HETATM    6  C   UNL     1      40.186 -10.999   0.905  1.00  0.00     0.087 C 
HETATM    7  N   UNL     1      38.221 -12.085   1.737  1.00  0.00    -0.349 N 
HETATM    8  C   UNL     1      39.025 -12.821   2.591  1.00  0.00     0.111 C 
HETATM    9  C   UNL     1      40.365 -12.674   2.709  1.00  0.00     0.099 C 
HETATM   10  C   UNL     1      41.049 -11.621   1.893  1.00  0.00     0.205 C 
HETATM   11  O   UNL     1      42.222 -11.299   2.040  1.00  0.00    -0.286 OA
HETATM   12  H   UNL     1      37.257 -12.398   1.628  1.00  0.00     0.167 HD
ENDROOT
BRANCH   9  13
HETATM   13  C   UNL     1      41.018 -13.534   3.728  1.00  0.00     0.264 C 
HETATM   14  N   UNL     1      41.727 -14.652   3.320  1.00  0.00    -0.309 N 
HETATM   15  C   UNL     1      42.049 -15.117   1.938  1.00  0.00     0.093 C 
HETATM   16  C   UNL     1      42.231 -15.635   4.213  1.00  0.00     0.044 A 
HETATM   17  C   UNL     1      43.143 -16.197   2.086  1.00  0.00     0.066 C 
HETATM   18  C   UNL     1      40.818 -15.683   1.226  1.00  0.00     0.033 C 
HETATM   19  C   UNL     1      43.007 -16.569   3.525  1.00  0.00    -0.029 A 
HETATM   20  C   UNL     1      43.605 -17.641   4.173  1.00  0.00     0.009 A 
HETATM   21  C   UNL     1      43.393 -17.786   5.544  1.00  0.00     0.001 A 
HETATM   22  C   UNL     1      42.609 -16.858   6.241  1.00  0.00     0.002 A 
HETATM   23  C   UNL     1      42.028 -15.772   5.577  1.00  0.00     0.030 A 
HETATM   24  O   UNL     1      40.817 -13.238   4.909  1.00  0.00    -0.267 OA
ENDBRANCH   9  13
BRANCH   4  25
HETATM   25  C   UNL     1      36.931 -10.038  -0.326  1.00  0.00     0.060 A 
HETATM   26  C   UNL     1      36.445 -10.055  -1.642  1.00  0.00     0.031 A 
HETATM   27  C   UNL     1      35.127  -9.679  -1.911  1.00  0.00     0.002 A 
HETATM   28  C   UNL     1      34.292  -9.268  -0.875  1.00  0.00     0.000 A 
HETATM   29  C   UNL     1      34.774  -9.227   0.432  1.00  0.00     0.002 A 
HETATM   30  C   UNL     1      36.090  -9.607   0.709  1.00  0.00     0.031 A 
ENDBRANCH   4  25
TORSDOF 2
ENDMDL
MODEL 10
REMARK VINA RESULT:      -8.1      5.230      8.945
REMARK  2 active torsions:
REMARK  status: ('A' for Active; 'I' for Inactive)
REMARK    1  A    between atoms: N_4  and  C_5 
REMARK    2  A    between atoms: C_15  and  C_16 
REMARK       I    between atoms: C_16  and  N_17 
ROOT
HETATM    1  C   UNL     1      39.811 -13.086   5.510  1.00  0.00     0.073 C 
HETATM    2  C   UNL     1      40.578 -13.813   4.470  1.00  0.00     0.069 C 
HETATM    3  N   UNL     1      40.975 -15.078   4.678  1.00  0.00    -0.170 NA
HETATM    4  N   UNL     1      41.700 -15.413   3.567  1.00  0.00    -0.216 N 
HETATM    5  C   UNL     1      41.545 -14.442   2.593  1.00  0.00     0.145 C 
HETATM    6  C   UNL     1      40.924 -13.365   3.183  1.00  0.00     0.087 C 
HETATM    7  N   UNL     1      41.875 -14.463   1.280  1.00  0.00    -0.349 N 
HETATM    8  C   UNL     1      41.537 -13.362   0.512  1.00  0.00     0.111 C 
HETATM    9  C   UNL     1      40.965 -12.233   0.991  1.00  0.00     0.099 C 
HETATM   10  C   UNL     1      40.701 -12.126   2.461  1.00  0.00     0.205 C 
HETATM   11  O   UNL     1      40.338 -11.096   3.016  1.00  0.00    -0.286 OA
HETATM   12  H   UNL     1      42.153 -15.306   0.779  1.00  0.00     0.167 HD
ENDROOT
BRANCH   9  13
HETATM   13  C   UNL     1      40.737 -11.156  -0.007  1.00  0.00     0.264 C 
HETATM   14  N   UNL     1      39.614 -11.205  -0.815  1.00  0.00    -0.309 N 
HETATM   15  C   UNL     1      38.470 -12.164  -0.790  1.00  0.00     0.093 C 
HETATM   16  C   UNL     1      39.397 -10.334  -1.916  1.00  0.00     0.044 A 
HETATM   17  C   UNL     1      37.358 -11.539  -1.661  1.00  0.00     0.066 C 
HETATM   18  C   UNL     1      38.869 -13.542  -1.324  1.00  0.00     0.033 C 
HETATM   19  C   UNL     1      38.126 -10.538  -2.457  1.00  0.00    -0.029 A 
HETATM   20  C   UNL     1      37.675  -9.815  -3.553  1.00  0.00     0.009 A 
HETATM   21  C   UNL     1      38.537  -8.883  -4.131  1.00  0.00     0.001 A 
HETATM   22  C   UNL     1      39.816  -8.678  -3.598  1.00  0.00     0.002 A 
HETATM   23  C   UNL     1      40.251  -9.400  -2.482  1.00  0.00     0.030 A 
HETATM   24  O   UNL     1      41.626 -10.306  -0.110  1.00  0.00    -0.267 OA
ENDBRANCH   9  13
BRANCH   4  25
HETATM   25  C   UNL     1      42.494 -16.595   3.557  1.00  0.00     0.060 A 
HETATM   26  C   UNL     1      43.377 -16.836   4.620  1.00  0.00     0.031 A 
HETATM   27  C   UNL     1      44.188 -17.973   4.619  1.00  0.00     0.002 A 
HETATM   28  C   UNL     1      44.137 -18.865   3.552  1.00  0.00     0.000 A 
HETATM   29  C   UNL     1      43.280 -18.621   2.480  1.00  0.00     0.002 A 
HETATM   30  C   UNL     1      42.461 -17.488   2.478  1.00  0.00     0.031 A 
ENDBRANCH   4  25
TORSDOF 2
ENDMDL
