MODEL 1
REMARK VINA RESULT:      -8.3      0.000      0.000
REMARK  6 active torsions:
REMARK  status: ('A' for Active; 'I' for Inactive)
REMARK    1  A    between atoms: C_2  and  O_3 
REMARK    2  A    between atoms: O_3  and  C_4 
REMARK    3  A    between atoms: C_7  and  C_8 
REMARK       I    between atoms: N_11  and  C_12 
REMARK       I    between atoms: C_12  and  N_13 
REMARK    4  A    between atoms: N_13  and  C_14 
REMARK    5  A    between atoms: C_14  and  C_15 
REMARK    6  A    between atoms: C_15  and  C_16 
ROOT
HETATM    1  C   UNL     1      43.010 -14.326   5.064  1.00  0.00    -0.049 C 
HETATM    2  C   UNL     1      42.368 -13.028   4.639  1.00  0.00     0.059 C 
HETATM    3  C   UNL     1      42.065 -12.126   5.839  1.00  0.00     0.132 C 
HETATM    4  N   UNL     1      43.204 -12.047   6.745  1.00  0.00    -0.331 N 
HETATM    5  C   UNL     1      43.609 -10.800   7.191  1.00  0.00     0.318 C 
HETATM    6  N   UNL     1      44.607 -10.812   8.133  1.00  0.00    -0.338 N 
HETATM    7  O   UNL     1      43.139  -9.751   6.757  1.00  0.00    -0.247 OA
HETATM    8  C   UNL     1      43.691 -13.314   7.281  1.00  0.00     0.155 C 
HETATM    9  C   UNL     1      43.569 -14.433   6.286  1.00  0.00     0.001 C 
HETATM   10  H   UNL     1      44.526 -11.558   8.816  1.00  0.00     0.164 HD
ENDROOT
BRANCH   6  11
HETATM   11  C   UNL     1      45.071  -9.570   8.750  1.00  0.00     0.087 C 
HETATM   12  C   UNL     1      46.207  -8.971   7.924  1.00  0.00     0.032 C 
BRANCH  11  13
HETATM   13  C   UNL     1      45.459  -9.795  10.226  1.00  0.00     0.085 C 
BRANCH  13  14
HETATM   14  C   UNL     1      44.298 -10.050  11.143  1.00  0.00     0.058 A 
HETATM   15  N   UNL     1      43.897 -11.298  11.431  1.00  0.00    -0.179 NA
HETATM   16  N   UNL     1      42.853 -11.120  12.259  1.00  0.00    -0.282 N 
HETATM   17  H   UNL     1      42.373 -11.941  12.612  1.00  0.00     0.189 HD
HETATM   18  C   UNL     1      42.577  -9.808  12.521  1.00  0.00     0.026 A 
HETATM   19  C   UNL     1      41.472  -9.383  13.409  1.00  0.00     0.070 C 
HETATM   20  C   UNL     1      43.500  -9.085  11.801  1.00  0.00     0.055 A 
ENDBRANCH  13  14
ENDBRANCH  11  13
ENDBRANCH   6  11
BRANCH   1  21
HETATM   21  C   UNL     1      43.016 -15.466   4.122  1.00  0.00    -0.030 A 
HETATM   22  C   UNL     1      43.067 -15.273   2.736  1.00  0.00     0.014 A 
HETATM   23  C   UNL     1      43.106 -16.363   1.853  1.00  0.00     0.037 A 
HETATM   24  C   UNL     1      43.095 -17.666   2.346  1.00  0.00     0.068 A 
HETATM   25  C   UNL     1      43.036 -17.869   3.724  1.00  0.00     0.037 A 
HETATM   26  C   UNL     1      43.004 -16.783   4.603  1.00  0.00     0.014 A 
BRANCH  24  27
HETATM   27  O   UNL     1      43.130 -18.812   1.600  1.00  0.00    -0.352 OA
BRANCH  27  28
HETATM   28  C   UNL     1      42.931 -20.042   2.293  1.00  0.00     0.171 C 
HETATM   29  C   UNL     1      44.190 -20.875   2.134  1.00  0.00     0.034 C 
ENDBRANCH  27  28
ENDBRANCH  24  27
ENDBRANCH   1  21
TORSDOF 6
ENDMDL
MODEL 2
REMARK VINA RESULT:      -7.9      6.319     10.750
REMARK  6 active torsions:
REMARK  status: ('A' for Active; 'I' for Inactive)
REMARK    1  A    between atoms: C_2  and  O_3 
REMARK    2  A    between atoms: O_3  and  C_4 
REMARK    3  A    between atoms: C_7  and  C_8 
REMARK       I    between atoms: N_11  and  C_12 
REMARK       I    between atoms: C_12  and  N_13 
REMARK    4  A    between atoms: N_13  and  C_14 
REMARK    5  A    between atoms: C_14  and  C_15 
REMARK    6  A    between atoms: C_15  and  C_16 
ROOT
HETATM    1  C   UNL     1      42.385  -8.104  13.726  1.00  0.00    -0.049 C 
HETATM    2  C   UNL     1      42.550  -6.607  13.821  1.00  0.00     0.059 C 
HETATM    3  C   UNL     1      41.586  -5.995  14.841  1.00  0.00     0.132 C 
HETATM    4  N   UNL     1      41.581  -6.751  16.088  1.00  0.00    -0.331 N 
HETATM    5  C   UNL     1      41.691  -6.058  17.282  1.00  0.00     0.318 C 
HETATM    6  N   UNL     1      41.557  -6.821  18.415  1.00  0.00    -0.338 N 
HETATM    7  O   UNL     1      41.924  -4.853  17.336  1.00  0.00    -0.247 OA
HETATM    8  C   UNL     1      41.242  -8.166  15.982  1.00  0.00     0.155 C 
HETATM    9  C   UNL     1      41.753  -8.777  14.708  1.00  0.00     0.001 C 
HETATM   10  H   UNL     1      40.850  -7.545  18.348  1.00  0.00     0.164 HD
ENDROOT
BRANCH   6  11
HETATM   11  C   UNL     1      41.568  -6.204  19.740  1.00  0.00     0.087 C 
HETATM   12  C   UNL     1      43.003  -5.884  20.154  1.00  0.00     0.032 C 
BRANCH  11  13
HETATM   13  C   UNL     1      40.832  -7.088  20.769  1.00  0.00     0.085 C 
BRANCH  13  14
HETATM   14  C   UNL     1      41.166  -8.549  20.686  1.00  0.00     0.058 A 
HETATM   15  N   UNL     1      40.303  -9.433  20.161  1.00  0.00    -0.179 NA
HETATM   16  N   UNL     1      40.942 -10.611  20.263  1.00  0.00    -0.282 N 
HETATM   17  H   UNL     1      40.471 -11.445  19.929  1.00  0.00     0.189 HD
HETATM   18  C   UNL     1      42.185 -10.514  20.823  1.00  0.00     0.026 A 
HETATM   19  C   UNL     1      43.065 -11.686  21.028  1.00  0.00     0.070 C 
HETATM   20  C   UNL     1      42.356  -9.181  21.115  1.00  0.00     0.055 A 
ENDBRANCH  13  14
ENDBRANCH  11  13
ENDBRANCH   6  11
BRANCH   1  21
HETATM   21  C   UNL     1      42.929  -8.812  12.547  1.00  0.00    -0.030 A 
HETATM   22  C   UNL     1      43.357  -8.120  11.406  1.00  0.00     0.014 A 
HETATM   23  C   UNL     1      43.902  -8.800  10.307  1.00  0.00     0.037 A 
HETATM   24  C   UNL     1      44.028 -10.187  10.332  1.00  0.00     0.068 A 
HETATM   25  C   UNL     1      43.598 -10.887  11.459  1.00  0.00     0.037 A 
HETATM   26  C   UNL     1      43.061 -10.208  12.557  1.00  0.00     0.014 A 
BRANCH  24  27
HETATM   27  O   UNL     1      44.541 -10.970   9.335  1.00  0.00    -0.352 OA
BRANCH  27  28
HETATM   28  C   UNL     1      45.600 -10.418   8.557  1.00  0.00     0.171 C 
HETATM   29  C   UNL     1      45.606 -11.122   7.212  1.00  0.00     0.034 C 
ENDBRANCH  27  28
ENDBRANCH  24  27
ENDBRANCH   1  21
TORSDOF 6
ENDMDL
MODEL 3
REMARK VINA RESULT:      -7.9      2.885      9.867
REMARK  6 active torsions:
REMARK  status: ('A' for Active; 'I' for Inactive)
REMARK    1  A    between atoms: C_2  and  O_3 
REMARK    2  A    between atoms: O_3  and  C_4 
REMARK    3  A    between atoms: C_7  and  C_8 
REMARK       I    between atoms: N_11  and  C_12 
REMARK       I    between atoms: C_12  and  N_13 
REMARK    4  A    between atoms: N_13  and  C_14 
REMARK    5  A    between atoms: C_14  and  C_15 
REMARK    6  A    between atoms: C_15  and  C_16 
ROOT
HETATM    1  C   UNL     1      43.509 -10.953   7.416  1.00  0.00    -0.049 C 
HETATM    2  C   UNL     1      42.663 -10.324   6.335  1.00  0.00     0.059 C 
HETATM    3  C   UNL     1      42.989 -10.900   4.954  1.00  0.00     0.132 C 
HETATM    4  N   UNL     1      43.062 -12.356   4.989  1.00  0.00    -0.331 N 
HETATM    5  C   UNL     1      42.388 -13.076   4.017  1.00  0.00     0.318 C 
HETATM    6  N   UNL     1      42.600 -14.431   4.041  1.00  0.00    -0.338 N 
HETATM    7  O   UNL     1      41.626 -12.552   3.207  1.00  0.00    -0.247 OA
HETATM    8  C   UNL     1      44.023 -12.931   5.925  1.00  0.00     0.155 C 
HETATM    9  C   UNL     1      44.143 -12.119   7.183  1.00  0.00     0.001 C 
HETATM   10  H   UNL     1      43.555 -14.700   4.254  1.00  0.00     0.164 HD
ENDROOT
BRANCH   6  11
HETATM   11  C   UNL     1      42.017 -15.299   3.019  1.00  0.00     0.087 C 
HETATM   12  C   UNL     1      40.764 -15.979   3.568  1.00  0.00     0.032 C 
BRANCH  11  13
HETATM   13  C   UNL     1      43.058 -16.306   2.486  1.00  0.00     0.085 C 
BRANCH  13  14
HETATM   14  C   UNL     1      43.521 -17.315   3.496  1.00  0.00     0.058 A 
HETATM   15  N   UNL     1      43.934 -16.941   4.716  1.00  0.00    -0.179 NA
HETATM   16  N   UNL     1      44.266 -18.098   5.315  1.00  0.00    -0.282 N 
HETATM   17  H   UNL     1      44.619 -18.064   6.266  1.00  0.00     0.189 HD
HETATM   18  C   UNL     1      44.070 -19.199   4.530  1.00  0.00     0.026 A 
HETATM   19  C   UNL     1      44.366 -20.574   4.989  1.00  0.00     0.070 C 
HETATM   20  C   UNL     1      43.591 -18.719   3.333  1.00  0.00     0.055 A 
ENDBRANCH  13  14
ENDBRANCH  11  13
ENDBRANCH   6  11
BRANCH   1  21
HETATM   21  C   UNL     1      43.623 -10.271   8.723  1.00  0.00    -0.030 A 
HETATM   22  C   UNL     1      44.812 -10.293   9.462  1.00  0.00     0.014 A 
HETATM   23  C   UNL     1      44.919  -9.613  10.686  1.00  0.00     0.037 A 
HETATM   24  C   UNL     1      43.833  -8.901  11.190  1.00  0.00     0.068 A 
HETATM   25  C   UNL     1      42.641  -8.881  10.466  1.00  0.00     0.037 A 
HETATM   26  C   UNL     1      42.538  -9.551   9.244  1.00  0.00     0.014 A 
BRANCH  24  27
HETATM   27  O   UNL     1      43.801  -8.198  12.362  1.00  0.00    -0.352 OA
BRANCH  27  28
HETATM   28  C   UNL     1      42.670  -8.397  13.207  1.00  0.00     0.171 C 
HETATM   29  C   UNL     1      42.757  -7.395  14.344  1.00  0.00     0.034 C 
ENDBRANCH  27  28
ENDBRANCH  24  27
ENDBRANCH   1  21
TORSDOF 6
ENDMDL
MODEL 4
REMARK VINA RESULT:      -7.7      6.067      9.179
REMARK  6 active torsions:
REMARK  status: ('A' for Active; 'I' for Inactive)
REMARK    1  A    between atoms: C_2  and  O_3 
REMARK    2  A    between atoms: O_3  and  C_4 
REMARK    3  A    between atoms: C_7  and  C_8 
REMARK       I    between atoms: N_11  and  C_12 
REMARK       I    between atoms: C_12  and  N_13 
REMARK    4  A    between atoms: N_13  and  C_14 
REMARK    5  A    between atoms: C_14  and  C_15 
REMARK    6  A    between atoms: C_15  and  C_16 
ROOT
HETATM    1  C   UNL     1      42.555 -15.095   2.562  1.00  0.00    -0.049 C 
HETATM    2  C   UNL     1      42.667 -13.846   3.402  1.00  0.00     0.059 C 
HETATM    3  C   UNL     1      42.456 -12.581   2.567  1.00  0.00     0.132 C 
HETATM    4  N   UNL     1      41.290 -12.704   1.699  1.00  0.00    -0.331 N 
HETATM    5  C   UNL     1      40.377 -11.664   1.666  1.00  0.00     0.318 C 
HETATM    6  N   UNL     1      39.373 -11.797   0.740  1.00  0.00    -0.338 N 
HETATM    7  O   UNL     1      40.432 -10.702   2.429  1.00  0.00    -0.247 OA
HETATM    8  C   UNL     1      41.296 -13.829   0.769  1.00  0.00     0.155 C 
HETATM    9  C   UNL     1      41.959 -15.044   1.354  1.00  0.00     0.001 C 
HETATM   10  H   UNL     1      39.672 -12.196  -0.144  1.00  0.00     0.164 HD
ENDROOT
BRANCH   6  11
HETATM   11  C   UNL     1      38.390 -10.733   0.542  1.00  0.00     0.087 C 
HETATM   12  C   UNL     1      37.172 -10.977   1.431  1.00  0.00     0.032 C 
BRANCH  11  13
HETATM   13  C   UNL     1      38.021 -10.590  -0.950  1.00  0.00     0.085 C 
BRANCH  13  14
HETATM   14  C   UNL     1      38.426 -11.755  -1.805  1.00  0.00     0.058 A 
HETATM   15  N   UNL     1      39.665 -11.852  -2.312  1.00  0.00    -0.179 NA
HETATM   16  N   UNL     1      39.642 -13.001  -3.009  1.00  0.00    -0.282 N 
HETATM   17  H   UNL     1      40.485 -13.286  -3.496  1.00  0.00     0.189 HD
HETATM   18  C   UNL     1      38.440 -13.649  -2.959  1.00  0.00     0.026 A 
HETATM   19  C   UNL     1      38.192 -14.933  -3.652  1.00  0.00     0.070 C 
HETATM   20  C   UNL     1      37.624 -12.856  -2.186  1.00  0.00     0.055 A 
ENDBRANCH  13  14
ENDBRANCH  11  13
ENDBRANCH   6  11
BRANCH   1  21
HETATM   21  C   UNL     1      43.104 -16.364   3.087  1.00  0.00    -0.030 A 
HETATM   22  C   UNL     1      43.142 -17.527   2.308  1.00  0.00     0.014 A 
HETATM   23  C   UNL     1      43.697 -18.716   2.806  1.00  0.00     0.037 A 
HETATM   24  C   UNL     1      44.222 -18.759   4.096  1.00  0.00     0.068 A 
HETATM   25  C   UNL     1      44.181 -17.609   4.883  1.00  0.00     0.037 A 
HETATM   26  C   UNL     1      43.635 -16.422   4.383  1.00  0.00     0.014 A 
BRANCH  24  27
HETATM   27  O   UNL     1      44.790 -19.845   4.701  1.00  0.00    -0.352 OA
BRANCH  27  28
HETATM   28  C   UNL     1      43.906 -20.783   5.311  1.00  0.00     0.171 C 
HETATM   29  C   UNL     1      43.314 -20.130   6.547  1.00  0.00     0.034 C 
ENDBRANCH  27  28
ENDBRANCH  24  27
ENDBRANCH   1  21
TORSDOF 6
ENDMDL
MODEL 5
REMARK VINA RESULT:      -7.7      7.026      8.921
REMARK  6 active torsions:
REMARK  status: ('A' for Active; 'I' for Inactive)
REMARK    1  A    between atoms: C_2  and  O_3 
REMARK    2  A    between atoms: O_3  and  C_4 
REMARK    3  A    between atoms: C_7  and  C_8 
REMARK       I    between atoms: N_11  and  C_12 
REMARK       I    between atoms: C_12  and  N_13 
REMARK    4  A    between atoms: N_13  and  C_14 
REMARK    5  A    between atoms: C_14  and  C_15 
REMARK    6  A    between atoms: C_15  and  C_16 
ROOT
HETATM    1  C   UNL     1      41.889 -15.507   2.092  1.00  0.00    -0.049 C 
HETATM    2  C   UNL     1      40.486 -15.790   1.613  1.00  0.00     0.059 C 
HETATM    3  C   UNL     1      39.696 -14.500   1.379  1.00  0.00     0.132 C 
HETATM    4  N   UNL     1      40.478 -13.526   0.628  1.00  0.00    -0.331 N 
HETATM    5  C   UNL     1      39.886 -12.893  -0.452  1.00  0.00     0.318 C 
HETATM    6  N   UNL     1      40.639 -11.905  -1.035  1.00  0.00    -0.338 N 
HETATM    7  O   UNL     1      38.781 -13.208  -0.887  1.00  0.00    -0.247 OA
HETATM    8  C   UNL     1      41.758 -13.138   1.213  1.00  0.00     0.155 C 
HETATM    9  C   UNL     1      42.422 -14.280   1.928  1.00  0.00     0.001 C 
HETATM   10  H   UNL     1      41.159 -11.334  -0.376  1.00  0.00     0.164 HD
ENDROOT
BRANCH   6  11
HETATM   11  C   UNL     1      40.101 -11.099  -2.130  1.00  0.00     0.087 C 
HETATM   12  C   UNL     1      41.009 -11.211  -3.353  1.00  0.00     0.032 C 
BRANCH  11  13
HETATM   13  C   UNL     1      39.873  -9.639  -1.686  1.00  0.00     0.085 C 
BRANCH  13  14
HETATM   14  C   UNL     1      41.131  -8.841  -1.504  1.00  0.00     0.058 A 
HETATM   15  N   UNL     1      42.007  -9.132  -0.529  1.00  0.00    -0.179 NA
HETATM   16  N   UNL     1      42.979  -8.216  -0.682  1.00  0.00    -0.282 N 
HETATM   17  H   UNL     1      43.763  -8.234  -0.040  1.00  0.00     0.189 HD
HETATM   18  C   UNL     1      42.764  -7.357  -1.723  1.00  0.00     0.026 A 
HETATM   19  C   UNL     1      43.707  -6.272  -2.074  1.00  0.00     0.070 C 
HETATM   20  C   UNL     1      41.563  -7.736  -2.274  1.00  0.00     0.055 A 
ENDBRANCH  13  14
ENDBRANCH  11  13
ENDBRANCH   6  11
BRANCH   1  21
HETATM   21  C   UNL     1      42.659 -16.593   2.736  1.00  0.00    -0.030 A 
HETATM   22  C   UNL     1      42.786 -17.856   2.144  1.00  0.00     0.014 A 
HETATM   23  C   UNL     1      43.548 -18.867   2.749  1.00  0.00     0.037 A 
HETATM   24  C   UNL     1      44.196 -18.629   3.959  1.00  0.00     0.068 A 
HETATM   25  C   UNL     1      44.070 -17.378   4.561  1.00  0.00     0.037 A 
HETATM   26  C   UNL     1      43.316 -16.368   3.954  1.00  0.00     0.014 A 
BRANCH  24  27
HETATM   27  O   UNL     1      44.967 -19.521   4.651  1.00  0.00    -0.352 OA
BRANCH  27  28
HETATM   28  C   UNL     1      44.313 -20.677   5.170  1.00  0.00     0.171 C 
HETATM   29  C   UNL     1      43.450 -20.239   6.339  1.00  0.00     0.034 C 
ENDBRANCH  27  28
ENDBRANCH  24  27
ENDBRANCH   1  21
TORSDOF 6
ENDMDL
MODEL 6
REMARK VINA RESULT:      -7.5      2.170      3.100
REMARK  6 active torsions:
REMARK  status: ('A' for Active; 'I' for Inactive)
REMARK    1  A    between atoms: C_2  and  O_3 
REMARK    2  A    between atoms: O_3  and  C_4 
REMARK    3  A    between atoms: C_7  and  C_8 
REMARK       I    between atoms: N_11  and  C_12 
REMARK       I    between atoms: C_12  and  N_13 
REMARK    4  A    between atoms: N_13  and  C_14 
REMARK    5  A    between atoms: C_14  and  C_15 
REMARK    6  A    between atoms: C_15  and  C_16 
ROOT
HETATM    1  C   UNL     1      42.401 -14.611   5.022  1.00  0.00    -0.049 C 
HETATM    2  C   UNL     1      40.916 -14.352   4.931  1.00  0.00     0.059 C 
HETATM    3  C   UNL     1      40.463 -13.293   5.938  1.00  0.00     0.132 C 
HETATM    4  N   UNL     1      41.349 -12.134   5.927  1.00  0.00    -0.331 N 
HETATM    5  C   UNL     1      40.785 -10.871   5.869  1.00  0.00     0.318 C 
HETATM    6  N   UNL     1      41.671  -9.829   5.983  1.00  0.00    -0.338 N 
HETATM    7  O   UNL     1      39.582 -10.683   5.695  1.00  0.00    -0.247 OA
HETATM    8  C   UNL     1      42.758 -12.398   6.196  1.00  0.00     0.155 C 
HETATM    9  C   UNL     1      43.204 -13.719   5.636  1.00  0.00     0.001 C 
HETATM   10  H   UNL     1      42.415  -9.988   6.654  1.00  0.00     0.164 HD
ENDROOT
BRANCH   6  11
HETATM   11  C   UNL     1      41.201  -8.446   6.023  1.00  0.00     0.087 C 
HETATM   12  C   UNL     1      41.317  -7.816   4.636  1.00  0.00     0.032 C 
BRANCH  11  13
HETATM   13  C   UNL     1      41.942  -7.639   7.110  1.00  0.00     0.085 C 
BRANCH  13  14
HETATM   14  C   UNL     1      42.619  -8.478   8.154  1.00  0.00     0.058 A 
HETATM   15  N   UNL     1      41.929  -9.354   8.900  1.00  0.00    -0.179 NA
HETATM   16  N   UNL     1      42.859  -9.898   9.704  1.00  0.00    -0.282 N 
HETATM   17  H   UNL     1      42.564 -10.600  10.375  1.00  0.00     0.189 HD
HETATM   18  C   UNL     1      44.119  -9.412   9.494  1.00  0.00     0.026 A 
HETATM   19  C   UNL     1      45.294  -9.873  10.266  1.00  0.00     0.070 C 
HETATM   20  C   UNL     1      43.993  -8.479   8.493  1.00  0.00     0.055 A 
ENDBRANCH  13  14
ENDBRANCH  11  13
ENDBRANCH   6  11
BRANCH   1  21
HETATM   21  C   UNL     1      42.951 -15.847   4.426  1.00  0.00    -0.030 A 
HETATM   22  C   UNL     1      43.842 -16.668   5.128  1.00  0.00     0.014 A 
HETATM   23  C   UNL     1      44.331 -17.857   4.565  1.00  0.00     0.037 A 
HETATM   24  C   UNL     1      43.934 -18.243   3.287  1.00  0.00     0.068 A 
HETATM   25  C   UNL     1      43.054 -17.428   2.575  1.00  0.00     0.037 A 
HETATM   26  C   UNL     1      42.561 -16.248   3.140  1.00  0.00     0.014 A 
BRANCH  24  27
HETATM   27  O   UNL     1      44.331 -19.371   2.623  1.00  0.00    -0.352 OA
BRANCH  27  28
HETATM   28  C   UNL     1      43.542 -20.544   2.809  1.00  0.00     0.171 C 
HETATM   29  C   UNL     1      43.862 -21.108   4.182  1.00  0.00     0.034 C 
ENDBRANCH  27  28
ENDBRANCH  24  27
ENDBRANCH   1  21
TORSDOF 6
ENDMDL
MODEL 7
REMARK VINA RESULT:      -7.4      2.906      3.327
REMARK  6 active torsions:
REMARK  status: ('A' for Active; 'I' for Inactive)
REMARK    1  A    between atoms: C_2  and  O_3 
REMARK    2  A    between atoms: O_3  and  C_4 
REMARK    3  A    between atoms: C_7  and  C_8 
REMARK       I    between atoms: N_11  and  C_12 
REMARK       I    between atoms: C_12  and  N_13 
REMARK    4  A    between atoms: N_13  and  C_14 
REMARK    5  A    between atoms: C_14  and  C_15 
REMARK    6  A    between atoms: C_15  and  C_16 
ROOT
HETATM    1  C   UNL     1      42.093 -14.205   4.191  1.00  0.00    -0.049 C 
HETATM    2  C   UNL     1      42.554 -13.112   3.257  1.00  0.00     0.059 C 
HETATM    3  C   UNL     1      41.637 -11.888   3.320  1.00  0.00     0.132 C 
HETATM    4  N   UNL     1      41.343 -11.514   4.699  1.00  0.00    -0.331 N 
HETATM    5  C   UNL     1      41.468 -10.185   5.065  1.00  0.00     0.318 C 
HETATM    6  N   UNL     1      41.061  -9.889   6.341  1.00  0.00    -0.338 N 
HETATM    7  O   UNL     1      41.940  -9.328   4.319  1.00  0.00    -0.247 OA
HETATM    8  C   UNL     1      40.730 -12.546   5.529  1.00  0.00     0.155 C 
HETATM    9  C   UNL     1      41.234 -13.919   5.190  1.00  0.00     0.001 C 
HETATM   10  H   UNL     1      40.229 -10.387   6.638  1.00  0.00     0.164 HD
ENDROOT
BRANCH   6  11
HETATM   11  C   UNL     1      41.060  -8.510   6.827  1.00  0.00     0.087 C 
HETATM   12  C   UNL     1      42.318  -8.248   7.652  1.00  0.00     0.032 C 
BRANCH  11  13
HETATM   13  C   UNL     1      39.762  -8.195   7.601  1.00  0.00     0.085 C 
BRANCH  13  14
HETATM   14  C   UNL     1      39.535  -9.055   8.810  1.00  0.00     0.058 A 
HETATM   15  N   UNL     1      38.827 -10.192   8.735  1.00  0.00    -0.179 NA
HETATM   16  N   UNL     1      38.840 -10.667   9.993  1.00  0.00    -0.282 N 
HETATM   17  H   UNL     1      38.351 -11.535  10.185  1.00  0.00     0.189 HD
HETATM   18  C   UNL     1      39.538  -9.883  10.868  1.00  0.00     0.026 A 
HETATM   19  C   UNL     1      39.684 -10.217  12.301  1.00  0.00     0.070 C 
HETATM   20  C   UNL     1      39.998  -8.820  10.126  1.00  0.00     0.055 A 
ENDBRANCH  13  14
ENDBRANCH  11  13
ENDBRANCH   6  11
BRANCH   1  21
HETATM   21  C   UNL     1      42.598 -15.580   3.991  1.00  0.00    -0.030 A 
HETATM   22  C   UNL     1      42.308 -16.309   2.831  1.00  0.00     0.014 A 
HETATM   23  C   UNL     1      42.822 -17.600   2.638  1.00  0.00     0.037 A 
HETATM   24  C   UNL     1      43.636 -18.183   3.606  1.00  0.00     0.068 A 
HETATM   25  C   UNL     1      43.925 -17.470   4.769  1.00  0.00     0.037 A 
HETATM   26  C   UNL     1      43.419 -16.180   4.957  1.00  0.00     0.014 A 
BRANCH  24  27
HETATM   27  O   UNL     1      44.201 -19.427   3.544  1.00  0.00    -0.352 OA
BRANCH  27  28
HETATM   28  C   UNL     1      44.622 -20.010   4.776  1.00  0.00     0.171 C 
HETATM   29  C   UNL     1      43.701 -21.178   5.077  1.00  0.00     0.034 C 
ENDBRANCH  27  28
ENDBRANCH  24  27
ENDBRANCH   1  21
TORSDOF 6
ENDMDL
MODEL 8
REMARK VINA RESULT:      -7.3      2.379      3.122
REMARK  6 active torsions:
REMARK  status: ('A' for Active; 'I' for Inactive)
REMARK    1  A    between atoms: C_2  and  O_3 
REMARK    2  A    between atoms: O_3  and  C_4 
REMARK    3  A    between atoms: C_7  and  C_8 
REMARK       I    between atoms: N_11  and  C_12 
REMARK       I    between atoms: C_12  and  N_13 
REMARK    4  A    between atoms: N_13  and  C_14 
REMARK    5  A    between atoms: C_14  and  C_15 
REMARK    6  A    between atoms: C_15  and  C_16 
ROOT
HETATM    1  C   UNL     1      43.332 -13.218   5.783  1.00  0.00    -0.049 C 
HETATM    2  C   UNL     1      44.667 -13.062   6.471  1.00  0.00     0.059 C 
HETATM    3  C   UNL     1      44.883 -11.632   6.971  1.00  0.00     0.132 C 
HETATM    4  N   UNL     1      43.705 -11.128   7.668  1.00  0.00    -0.331 N 
HETATM    5  C   UNL     1      43.877 -10.509   8.895  1.00  0.00     0.318 C 
HETATM    6  N   UNL     1      42.743  -9.956   9.434  1.00  0.00    -0.338 N 
HETATM    7  O   UNL     1      44.956 -10.481   9.484  1.00  0.00    -0.247 OA
HETATM    8  C   UNL     1      42.459 -11.127   6.909  1.00  0.00     0.155 C 
HETATM    9  C   UNL     1      42.364 -12.300   5.975  1.00  0.00     0.001 C 
HETATM   10  H   UNL     1      42.136  -9.507   8.756  1.00  0.00     0.164 HD
ENDROOT
BRANCH   6  11
HETATM   11  C   UNL     1      42.799  -9.199  10.684  1.00  0.00     0.087 C 
HETATM   12  C   UNL     1      42.170 -10.013  11.813  1.00  0.00     0.032 C 
BRANCH  11  13
HETATM   13  C   UNL     1      42.154  -7.807  10.519  1.00  0.00     0.085 C 
BRANCH  13  14
HETATM   14  C   UNL     1      40.686  -7.761  10.828  1.00  0.00     0.058 A 
HETATM   15  N   UNL     1      39.797  -8.450  10.094  1.00  0.00    -0.179 NA
HETATM   16  N   UNL     1      38.614  -8.159  10.662  1.00  0.00    -0.282 N 
HETATM   17  H   UNL     1      37.776  -8.570  10.265  1.00  0.00     0.189 HD
HETATM   18  C   UNL     1      38.711  -7.320  11.736  1.00  0.00     0.026 A 
HETATM   19  C   UNL     1      37.534  -6.872  12.512  1.00  0.00     0.070 C 
HETATM   20  C   UNL     1      40.051  -7.038  11.865  1.00  0.00     0.055 A 
ENDBRANCH  13  14
ENDBRANCH  11  13
ENDBRANCH   6  11
BRANCH   1  21
HETATM   21  C   UNL     1      43.109 -14.387   4.905  1.00  0.00    -0.030 A 
HETATM   22  C   UNL     1      42.881 -14.243   3.532  1.00  0.00     0.014 A 
HETATM   23  C   UNL     1      42.705 -15.362   2.704  1.00  0.00     0.037 A 
HETATM   24  C   UNL     1      42.755 -16.646   3.240  1.00  0.00     0.068 A 
HETATM   25  C   UNL     1      42.973 -16.801   4.609  1.00  0.00     0.037 A 
HETATM   26  C   UNL     1      43.156 -15.686   5.432  1.00  0.00     0.014 A 
BRANCH  24  27
HETATM   27  O   UNL     1      42.601 -17.816   2.550  1.00  0.00    -0.352 OA
BRANCH  27  28
HETATM   28  C   UNL     1      43.577 -18.832   2.771  1.00  0.00     0.171 C 
HETATM   29  C   UNL     1      43.160 -20.059   1.981  1.00  0.00     0.034 C 
ENDBRANCH  27  28
ENDBRANCH  24  27
ENDBRANCH   1  21
TORSDOF 6
ENDMDL
MODEL 9
REMARK VINA RESULT:      -7.3      2.725      3.674
REMARK  6 active torsions:
REMARK  status: ('A' for Active; 'I' for Inactive)
REMARK    1  A    between atoms: C_2  and  O_3 
REMARK    2  A    between atoms: O_3  and  C_4 
REMARK    3  A    between atoms: C_7  and  C_8 
REMARK       I    between atoms: N_11  and  C_12 
REMARK       I    between atoms: C_12  and  N_13 
REMARK    4  A    between atoms: N_13  and  C_14 
REMARK    5  A    between atoms: C_14  and  C_15 
REMARK    6  A    between atoms: C_15  and  C_16 
ROOT
HETATM    1  C   UNL     1      43.302 -13.324   5.646  1.00  0.00    -0.049 C 
HETATM    2  C   UNL     1      44.526 -13.274   6.528  1.00  0.00     0.059 C 
HETATM    3  C   UNL     1      44.807 -11.854   7.027  1.00  0.00     0.132 C 
HETATM    4  N   UNL     1      43.595 -11.215   7.524  1.00  0.00    -0.331 N 
HETATM    5  C   UNL     1      43.640 -10.572   8.750  1.00  0.00     0.318 C 
HETATM    6  N   UNL     1      42.500  -9.893   9.097  1.00  0.00    -0.338 N 
HETATM    7  O   UNL     1      44.615 -10.628   9.497  1.00  0.00    -0.247 OA
HETATM    8  C   UNL     1      42.484 -11.120   6.582  1.00  0.00     0.155 C 
HETATM    9  C   UNL     1      42.414 -12.310   5.669  1.00  0.00     0.001 C 
HETATM   10  H   UNL     1      42.051  -9.412   8.324  1.00  0.00     0.164 HD
ENDROOT
BRANCH   6  11
HETATM   11  C   UNL     1      42.442  -9.102  10.325  1.00  0.00     0.087 C 
HETATM   12  C   UNL     1      41.152  -9.411  11.083  1.00  0.00     0.032 C 
BRANCH  11  13
HETATM   13  C   UNL     1      42.612  -7.598  10.025  1.00  0.00     0.085 C 
BRANCH  13  14
HETATM   14  C   UNL     1      42.043  -7.158   8.707  1.00  0.00     0.058 A 
HETATM   15  N   UNL     1      42.801  -7.110   7.601  1.00  0.00    -0.179 NA
HETATM   16  N   UNL     1      41.958  -6.675   6.648  1.00  0.00    -0.282 N 
HETATM   17  H   UNL     1      42.316  -6.552   5.707  1.00  0.00     0.189 HD
HETATM   18  C   UNL     1      40.687  -6.455   7.099  1.00  0.00     0.026 A 
HETATM   19  C   UNL     1      39.596  -5.977   6.221  1.00  0.00     0.070 C 
HETATM   20  C   UNL     1      40.713  -6.755   8.441  1.00  0.00     0.055 A 
ENDBRANCH  13  14
ENDBRANCH  11  13
ENDBRANCH   6  11
BRANCH   1  21
HETATM   21  C   UNL     1      43.098 -14.496   4.769  1.00  0.00    -0.030 A 
HETATM   22  C   UNL     1      42.849 -14.354   3.398  1.00  0.00     0.014 A 
HETATM   23  C   UNL     1      42.691 -15.476   2.569  1.00  0.00     0.037 A 
HETATM   24  C   UNL     1      42.780 -16.760   3.102  1.00  0.00     0.068 A 
HETATM   25  C   UNL     1      43.020 -16.912   4.467  1.00  0.00     0.037 A 
HETATM   26  C   UNL     1      43.184 -15.795   5.291  1.00  0.00     0.014 A 
BRANCH  24  27
HETATM   27  O   UNL     1      42.648 -17.932   2.411  1.00  0.00    -0.352 OA
BRANCH  27  28
HETATM   28  C   UNL     1      43.562 -18.979   2.729  1.00  0.00     0.171 C 
HETATM   29  C   UNL     1      43.158 -20.208   1.935  1.00  0.00     0.034 C 
ENDBRANCH  27  28
ENDBRANCH  24  27
ENDBRANCH   1  21
TORSDOF 6
ENDMDL
MODEL 10
REMARK VINA RESULT:      -7.3      2.326      3.581
REMARK  6 active torsions:
REMARK  status: ('A' for Active; 'I' for Inactive)
REMARK    1  A    between atoms: C_2  and  O_3 
REMARK    2  A    between atoms: O_3  and  C_4 
REMARK    3  A    between atoms: C_7  and  C_8 
REMARK       I    between atoms: N_11  and  C_12 
REMARK       I    between atoms: C_12  and  N_13 
REMARK    4  A    between atoms: N_13  and  C_14 
REMARK    5  A    between atoms: C_14  and  C_15 
REMARK    6  A    between atoms: C_15  and  C_16 
ROOT
HETATM    1  C   UNL     1      43.570 -12.127   6.067  1.00  0.00    -0.049 C 
HETATM    2  C   UNL     1      44.880 -12.295   6.797  1.00  0.00     0.059 C 
HETATM    3  C   UNL     1      45.254 -11.038   7.586  1.00  0.00     0.132 C 
HETATM    4  N   UNL     1      44.120 -10.532   8.350  1.00  0.00    -0.331 N 
HETATM    5  C   UNL     1      44.312 -10.202   9.680  1.00  0.00     0.318 C 
HETATM    6  N   UNL     1      43.235  -9.621  10.300  1.00  0.00    -0.338 N 
HETATM    7  O   UNL     1      45.357 -10.439  10.283  1.00  0.00    -0.247 OA
HETATM    8  C   UNL     1      42.920 -10.209   7.583  1.00  0.00     0.155 C 
HETATM    9  C   UNL     1      42.719 -11.145   6.426  1.00  0.00     0.001 C 
HETATM   10  H   UNL     1      42.722  -8.967   9.718  1.00  0.00     0.164 HD
ENDROOT
BRANCH   6  11
HETATM   11  C   UNL     1      43.329  -9.147  11.680  1.00  0.00     0.087 C 
HETATM   12  C   UNL     1      42.612 -10.120  12.615  1.00  0.00     0.032 C 
BRANCH  11  13
HETATM   13  C   UNL     1      42.806  -7.701  11.808  1.00  0.00     0.085 C 
BRANCH  13  14
HETATM   14  C   UNL     1      42.253  -7.357  13.160  1.00  0.00     0.058 A 
HETATM   15  N   UNL     1      40.936  -7.185  13.352  1.00  0.00    -0.179 NA
HETATM   16  N   UNL     1      40.834  -6.891  14.660  1.00  0.00    -0.282 N 
HETATM   17  H   UNL     1      39.912  -6.710  15.043  1.00  0.00     0.189 HD
HETATM   18  C   UNL     1      42.033  -6.879  15.315  1.00  0.00     0.026 A 
HETATM   19  C   UNL     1      42.155  -6.582  16.759  1.00  0.00     0.070 C 
HETATM   20  C   UNL     1      42.979  -7.174  14.360  1.00  0.00     0.055 A 
ENDBRANCH  13  14
ENDBRANCH  11  13
ENDBRANCH   6  11
BRANCH   1  21
HETATM   21  C   UNL     1      43.240 -13.054   4.962  1.00  0.00    -0.030 A 
HETATM   22  C   UNL     1      43.313 -12.656   3.622  1.00  0.00     0.014 A 
HETATM   23  C   UNL     1      43.031 -13.555   2.582  1.00  0.00     0.037 A 
HETATM   24  C   UNL     1      42.670 -14.869   2.869  1.00  0.00     0.068 A 
HETATM   25  C   UNL     1      42.586 -15.274   4.201  1.00  0.00     0.037 A 
HETATM   26  C   UNL     1      42.875 -14.380   5.236  1.00  0.00     0.014 A 
BRANCH  24  27
HETATM   27  O   UNL     1      42.372 -15.843   1.957  1.00  0.00    -0.352 OA
BRANCH  27  28
HETATM   28  C   UNL     1      41.926 -17.097   2.469  1.00  0.00     0.171 C 
HETATM   29  C   UNL     1      43.009 -18.124   2.192  1.00  0.00     0.034 C 
ENDBRANCH  27  28
ENDBRANCH  24  27
ENDBRANCH   1  21
TORSDOF 6
ENDMDL
