MODEL 1
REMARK VINA RESULT:      -8.1      0.000      0.000
REMARK  7 active torsions:
REMARK  status: ('A' for Active; 'I' for Inactive)
REMARK    1  A    between atoms: C_3  and  C_4 
REMARK    2  A    between atoms: C_4  and  N_5 
REMARK    3  A    between atoms: N_5  and  C_6 
REMARK    4  A    between atoms: C_13  and  C_14 
REMARK       I    between atoms: C_14  and  N_15 
REMARK    5  A    between atoms: C_19  and  O_20 
REMARK    6  A    between atoms: O_20  and  C_21 
REMARK    7  A    between atoms: C_21  and  C_22 
ROOT
HETATM    1  C   UNL     1      42.405 -16.135   6.443  1.00  0.00     0.029 A 
HETATM    2  C   UNL     1      43.130 -14.945   6.245  1.00  0.00     0.045 A 
HETATM    3  C   UNL     1      42.466 -13.705   6.150  1.00  0.00     0.030 A 
HETATM    4  C   UNL     1      41.082 -13.683   6.243  1.00  0.00     0.063 A 
HETATM    5  N   UNL     1      40.731 -12.368   6.120  1.00  0.00    -0.277 N 
HETATM    6  H   UNL     1      39.795 -11.980   6.143  1.00  0.00     0.189 HD
HETATM    7  N   UNL     1      41.765 -11.530   5.936  1.00  0.00    -0.168 NA
HETATM    8  C   UNL     1      42.846 -12.344   5.950  1.00  0.00     0.156 A 
HETATM    9  C   UNL     1      40.317 -14.837   6.415  1.00  0.00     0.034 A 
HETATM   10  C   UNL     1      41.008 -16.056   6.493  1.00  0.00     0.031 A 
ENDROOT
BRANCH   1  11
HETATM   11  N   UNL     1      43.112 -17.333   6.452  1.00  0.00    -0.386 N 
HETATM   12  H   UNL     1      42.558 -18.146   6.701  1.00  0.00     0.160 HD
BRANCH  11  13
HETATM   13  C   UNL     1      44.237 -17.616   5.567  1.00  0.00     0.161 C 
BRANCH  13  14
HETATM   14  C   UNL     1      43.915 -18.572   4.435  1.00  0.00    -0.007 A 
HETATM   15  C   UNL     1      44.142 -19.955   4.564  1.00  0.00     0.011 A 
HETATM   16  C   UNL     1      43.885 -20.825   3.506  1.00  0.00     0.001 A 
HETATM   17  C   UNL     1      43.415 -20.327   2.296  1.00  0.00     0.003 A 
HETATM   18  C   UNL     1      43.201 -18.956   2.141  1.00  0.00     0.037 A 
HETATM   19  C   UNL     1      43.444 -18.076   3.202  1.00  0.00     0.076 A 
BRANCH  19  20
HETATM   20  O   UNL     1      43.281 -16.718   3.124  1.00  0.00    -0.350 OA
BRANCH  20  21
HETATM   21  C   UNL     1      42.408 -16.214   2.114  1.00  0.00     0.180 C 
BRANCH  21  22
HETATM   22  C   UNL     1      41.068 -15.987   2.745  1.00  0.00     0.010 A 
HETATM   23  C   UNL     1      40.404 -14.635   2.684  1.00  0.00     0.007 A 
HETATM   24  C   UNL     1      39.847 -15.782   1.884  1.00  0.00     0.007 A 
ENDBRANCH  21  22
ENDBRANCH  20  21
ENDBRANCH  19  20
ENDBRANCH  13  14
ENDBRANCH  11  13
ENDBRANCH   1  11
BRANCH   8  25
HETATM   25  C   UNL     1      44.205 -11.816   5.768  1.00  0.00     0.270 C 
HETATM   26  N   UNL     1      44.998 -11.920   6.878  1.00  0.00    -0.365 N 
HETATM   27  H   UNL     1      44.602 -12.328   7.718  1.00  0.00     0.159 HD
HETATM   28  H   UNL     1      45.940 -11.568   6.857  1.00  0.00     0.159 HD
HETATM   29  O   UNL     1      44.627 -11.317   4.729  1.00  0.00    -0.266 OA
ENDBRANCH   8  25
TORSDOF 7
ENDMDL
MODEL 2
REMARK VINA RESULT:      -7.8      3.436      5.562
REMARK  7 active torsions:
REMARK  status: ('A' for Active; 'I' for Inactive)
REMARK    1  A    between atoms: C_3  and  C_4 
REMARK    2  A    between atoms: C_4  and  N_5 
REMARK    3  A    between atoms: N_5  and  C_6 
REMARK    4  A    between atoms: C_13  and  C_14 
REMARK       I    between atoms: C_14  and  N_15 
REMARK    5  A    between atoms: C_19  and  O_20 
REMARK    6  A    between atoms: O_20  and  C_21 
REMARK    7  A    between atoms: C_21  and  C_22 
ROOT
HETATM    1  C   UNL     1      40.999 -15.146   2.332  1.00  0.00     0.029 A 
HETATM    2  C   UNL     1      40.671 -15.108   0.964  1.00  0.00     0.045 A 
HETATM    3  C   UNL     1      39.913 -14.044   0.435  1.00  0.00     0.030 A 
HETATM    4  C   UNL     1      39.487 -13.039   1.292  1.00  0.00     0.063 A 
HETATM    5  N   UNL     1      38.792 -12.163   0.508  1.00  0.00    -0.277 N 
HETATM    6  H   UNL     1      38.338 -11.306   0.802  1.00  0.00     0.189 HD
HETATM    7  N   UNL     1      38.712 -12.516  -0.786  1.00  0.00    -0.168 NA
HETATM    8  C   UNL     1      39.400 -13.680  -0.846  1.00  0.00     0.156 A 
HETATM    9  C   UNL     1      39.765 -13.044   2.659  1.00  0.00     0.034 A 
HETATM   10  C   UNL     1      40.511 -14.125   3.157  1.00  0.00     0.031 A 
ENDROOT
BRANCH   1  11
HETATM   11  N   UNL     1      41.683 -16.260   2.806  1.00  0.00    -0.386 N 
HETATM   12  H   UNL     1      41.104 -16.928   3.305  1.00  0.00     0.160 HD
BRANCH  11  13
HETATM   13  C   UNL     1      42.841 -16.844   2.137  1.00  0.00     0.161 C 
BRANCH  13  14
HETATM   14  C   UNL     1      43.318 -18.149   2.743  1.00  0.00    -0.007 A 
HETATM   15  C   UNL     1      43.134 -19.373   2.073  1.00  0.00     0.011 A 
HETATM   16  C   UNL     1      43.535 -20.575   2.652  1.00  0.00     0.001 A 
HETATM   17  C   UNL     1      44.110 -20.578   3.918  1.00  0.00     0.003 A 
HETATM   18  C   UNL     1      44.285 -19.377   4.609  1.00  0.00     0.037 A 
HETATM   19  C   UNL     1      43.897 -18.163   4.029  1.00  0.00     0.076 A 
BRANCH  19  20
HETATM   20  O   UNL     1      44.013 -16.946   4.648  1.00  0.00    -0.350 OA
BRANCH  20  21
HETATM   21  C   UNL     1      44.211 -16.940   6.060  1.00  0.00     0.180 C 
BRANCH  21  22
HETATM   22  C   UNL     1      43.985 -15.540   6.543  1.00  0.00     0.010 A 
HETATM   23  C   UNL     1      42.794 -14.743   6.075  1.00  0.00     0.007 A 
HETATM   24  C   UNL     1      42.856 -15.236   7.495  1.00  0.00     0.007 A 
ENDBRANCH  21  22
ENDBRANCH  20  21
ENDBRANCH  19  20
ENDBRANCH  13  14
ENDBRANCH  11  13
ENDBRANCH   1  11
BRANCH   8  25
HETATM   25  C   UNL     1      39.546 -14.419  -2.107  1.00  0.00     0.270 C 
HETATM   26  N   UNL     1      38.671 -15.462  -2.247  1.00  0.00    -0.365 N 
HETATM   27  H   UNL     1      38.018 -15.649  -1.495  1.00  0.00     0.159 HD
HETATM   28  H   UNL     1      38.708 -16.041  -3.070  1.00  0.00     0.159 HD
HETATM   29  O   UNL     1      40.370 -14.158  -2.978  1.00  0.00    -0.266 OA
ENDBRANCH   8  25
TORSDOF 7
ENDMDL
MODEL 3
REMARK VINA RESULT:      -7.6      4.250      6.858
REMARK  7 active torsions:
REMARK  status: ('A' for Active; 'I' for Inactive)
REMARK    1  A    between atoms: C_3  and  C_4 
REMARK    2  A    between atoms: C_4  and  N_5 
REMARK    3  A    between atoms: N_5  and  C_6 
REMARK    4  A    between atoms: C_13  and  C_14 
REMARK       I    between atoms: C_14  and  N_15 
REMARK    5  A    between atoms: C_19  and  O_20 
REMARK    6  A    between atoms: O_20  and  C_21 
REMARK    7  A    between atoms: C_21  and  C_22 
ROOT
HETATM    1  C   UNL     1      40.812 -14.375   0.993  1.00  0.00     0.029 A 
HETATM    2  C   UNL     1      40.191 -14.712  -0.225  1.00  0.00     0.045 A 
HETATM    3  C   UNL     1      39.291 -13.822  -0.844  1.00  0.00     0.030 A 
HETATM    4  C   UNL     1      39.020 -12.611  -0.224  1.00  0.00     0.063 A 
HETATM    5  N   UNL     1      38.133 -11.973  -1.044  1.00  0.00    -0.277 N 
HETATM    6  H   UNL     1      37.718 -11.059  -0.903  1.00  0.00     0.189 HD
HETATM    7  N   UNL     1      37.787 -12.670  -2.139  1.00  0.00    -0.168 NA
HETATM    8  C   UNL     1      38.495 -13.818  -2.028  1.00  0.00     0.156 A 
HETATM    9  C   UNL     1      39.590 -12.241   0.995  1.00  0.00     0.034 A 
HETATM   10  C   UNL     1      40.473 -13.156   1.591  1.00  0.00     0.031 A 
ENDROOT
BRANCH   1  11
HETATM   11  N   UNL     1      41.631 -15.327   1.590  1.00  0.00    -0.386 N 
HETATM   12  H   UNL     1      42.513 -14.964   1.937  1.00  0.00     0.160 HD
BRANCH  11  13
HETATM   13  C   UNL     1      41.126 -16.487   2.318  1.00  0.00     0.161 C 
BRANCH  13  14
HETATM   14  C   UNL     1      41.506 -16.516   3.786  1.00  0.00    -0.007 A 
HETATM   15  C   UNL     1      40.634 -16.020   4.772  1.00  0.00     0.011 A 
HETATM   16  C   UNL     1      41.004 -16.008   6.116  1.00  0.00     0.001 A 
HETATM   17  C   UNL     1      42.258 -16.474   6.495  1.00  0.00     0.003 A 
HETATM   18  C   UNL     1      43.147 -16.952   5.529  1.00  0.00     0.037 A 
HETATM   19  C   UNL     1      42.778 -16.980   4.179  1.00  0.00     0.076 A 
BRANCH  19  20
HETATM   20  O   UNL     1      43.598 -17.412   3.170  1.00  0.00    -0.350 OA
BRANCH  20  21
HETATM   21  C   UNL     1      44.431 -18.539   3.432  1.00  0.00     0.180 C 
BRANCH  21  22
HETATM   22  C   UNL     1      43.637 -19.772   3.126  1.00  0.00     0.010 A 
HETATM   23  C   UNL     1      42.736 -19.831   1.918  1.00  0.00     0.007 A 
HETATM   24  C   UNL     1      44.003 -20.641   1.950  1.00  0.00     0.007 A 
ENDBRANCH  21  22
ENDBRANCH  20  21
ENDBRANCH  19  20
ENDBRANCH  13  14
ENDBRANCH  11  13
ENDBRANCH   1  11
BRANCH   8  25
HETATM   25  C   UNL     1      38.394 -14.881  -3.037  1.00  0.00     0.270 C 
HETATM   26  N   UNL     1      38.310 -16.142  -2.512  1.00  0.00    -0.365 N 
HETATM   27  H   UNL     1      38.334 -16.248  -1.505  1.00  0.00     0.159 HD
HETATM   28  H   UNL     1      38.257 -16.939  -3.126  1.00  0.00     0.159 HD
HETATM   29  O   UNL     1      38.386 -14.694  -4.250  1.00  0.00    -0.266 OA
ENDBRANCH   8  25
TORSDOF 7
ENDMDL
MODEL 4
REMARK VINA RESULT:      -7.5      4.491      6.746
REMARK  7 active torsions:
REMARK  status: ('A' for Active; 'I' for Inactive)
REMARK    1  A    between atoms: C_3  and  C_4 
REMARK    2  A    between atoms: C_4  and  N_5 
REMARK    3  A    between atoms: N_5  and  C_6 
REMARK    4  A    between atoms: C_13  and  C_14 
REMARK       I    between atoms: C_14  and  N_15 
REMARK    5  A    between atoms: C_19  and  O_20 
REMARK    6  A    between atoms: O_20  and  C_21 
REMARK    7  A    between atoms: C_21  and  C_22 
ROOT
HETATM    1  C   UNL     1      40.836 -14.051   0.667  1.00  0.00     0.029 A 
HETATM    2  C   UNL     1      40.176 -14.500  -0.492  1.00  0.00     0.045 A 
HETATM    3  C   UNL     1      39.222 -13.688  -1.138  1.00  0.00     0.030 A 
HETATM    4  C   UNL     1      38.939 -12.440  -0.601  1.00  0.00     0.063 A 
HETATM    5  N   UNL     1      37.998 -11.895  -1.428  1.00  0.00    -0.277 N 
HETATM    6  H   UNL     1      37.560 -10.985  -1.340  1.00  0.00     0.189 HD
HETATM    7  N   UNL     1      37.628 -12.685  -2.449  1.00  0.00    -0.168 NA
HETATM    8  C   UNL     1      38.376 -13.800  -2.282  1.00  0.00     0.156 A 
HETATM    9  C   UNL     1      39.548 -11.960   0.558  1.00  0.00     0.034 A 
HETATM   10  C   UNL     1      40.484 -12.799   1.184  1.00  0.00     0.031 A 
ENDROOT
BRANCH   1  11
HETATM   11  N   UNL     1      41.710 -14.929   1.299  1.00  0.00    -0.386 N 
HETATM   12  H   UNL     1      42.536 -14.490   1.692  1.00  0.00     0.160 HD
BRANCH  11  13
HETATM   13  C   UNL     1      41.280 -16.139   1.992  1.00  0.00     0.161 C 
BRANCH  13  14
HETATM   14  C   UNL     1      42.382 -16.839   2.765  1.00  0.00    -0.007 A 
HETATM   15  C   UNL     1      42.976 -18.017   2.278  1.00  0.00     0.011 A 
HETATM   16  C   UNL     1      43.958 -18.682   3.012  1.00  0.00     0.001 A 
HETATM   17  C   UNL     1      44.348 -18.190   4.253  1.00  0.00     0.003 A 
HETATM   18  C   UNL     1      43.756 -17.033   4.764  1.00  0.00     0.037 A 
HETATM   19  C   UNL     1      42.780 -16.352   4.028  1.00  0.00     0.076 A 
BRANCH  19  20
HETATM   20  O   UNL     1      42.136 -15.225   4.466  1.00  0.00    -0.350 OA
BRANCH  20  21
HETATM   21  C   UNL     1      42.941 -14.150   4.948  1.00  0.00     0.180 C 
BRANCH  21  22
HETATM   22  C   UNL     1      42.566 -12.922   4.175  1.00  0.00     0.010 A 
HETATM   23  C   UNL     1      43.181 -11.585   4.501  1.00  0.00     0.007 A 
HETATM   24  C   UNL     1      43.552 -12.290   3.225  1.00  0.00     0.007 A 
ENDBRANCH  21  22
ENDBRANCH  20  21
ENDBRANCH  19  20
ENDBRANCH  13  14
ENDBRANCH  11  13
ENDBRANCH   1  11
BRANCH   8  25
HETATM   25  C   UNL     1      38.267 -14.942  -3.200  1.00  0.00     0.270 C 
HETATM   26  N   UNL     1      38.267 -16.160  -2.577  1.00  0.00    -0.365 N 
HETATM   27  H   UNL     1      38.351 -16.187  -1.567  1.00  0.00     0.159 HD
HETATM   28  H   UNL     1      38.216 -17.004  -3.125  1.00  0.00     0.159 HD
HETATM   29  O   UNL     1      38.185 -14.851  -4.421  1.00  0.00    -0.266 OA
ENDBRANCH   8  25
TORSDOF 7
ENDMDL
MODEL 5
REMARK VINA RESULT:      -7.4      2.178      3.993
REMARK  7 active torsions:
REMARK  status: ('A' for Active; 'I' for Inactive)
REMARK    1  A    between atoms: C_3  and  C_4 
REMARK    2  A    between atoms: C_4  and  N_5 
REMARK    3  A    between atoms: N_5  and  C_6 
REMARK    4  A    between atoms: C_13  and  C_14 
REMARK       I    between atoms: C_14  and  N_15 
REMARK    5  A    between atoms: C_19  and  O_20 
REMARK    6  A    between atoms: O_20  and  C_21 
REMARK    7  A    between atoms: C_21  and  C_22 
ROOT
HETATM    1  C   UNL     1      41.259 -15.401   2.056  1.00  0.00     0.029 A 
HETATM    2  C   UNL     1      41.024 -14.784   3.299  1.00  0.00     0.045 A 
HETATM    3  C   UNL     1      40.303 -13.576   3.378  1.00  0.00     0.030 A 
HETATM    4  C   UNL     1      39.839 -13.000   2.204  1.00  0.00     0.063 A 
HETATM    5  N   UNL     1      39.188 -11.863   2.590  1.00  0.00    -0.277 N 
HETATM    6  H   UNL     1      38.721 -11.192   1.991  1.00  0.00     0.189 HD
HETATM    7  N   UNL     1      39.201 -11.635   3.915  1.00  0.00    -0.168 NA
HETATM    8  C   UNL     1      39.890 -12.687   4.415  1.00  0.00     0.156 A 
HETATM    9  C   UNL     1      40.067 -13.559   0.947  1.00  0.00     0.034 A 
HETATM   10  C   UNL     1      40.800 -14.756   0.902  1.00  0.00     0.031 A 
ENDROOT
BRANCH   1  11
HETATM   11  N   UNL     1      42.042 -16.550   2.039  1.00  0.00    -0.386 N 
HETATM   12  H   UNL     1      42.139 -16.979   1.124  1.00  0.00     0.160 HD
BRANCH  11  13
HETATM   13  C   UNL     1      43.172 -16.774   2.934  1.00  0.00     0.161 C 
BRANCH  13  14
HETATM   14  C   UNL     1      43.490 -18.236   3.183  1.00  0.00    -0.007 A 
HETATM   15  C   UNL     1      43.250 -19.211   2.197  1.00  0.00     0.011 A 
HETATM   16  C   UNL     1      43.504 -20.559   2.444  1.00  0.00     0.001 A 
HETATM   17  C   UNL     1      43.983 -20.958   3.687  1.00  0.00     0.003 A 
HETATM   18  C   UNL     1      44.210 -20.009   4.687  1.00  0.00     0.037 A 
HETATM   19  C   UNL     1      43.970 -18.652   4.442  1.00  0.00     0.076 A 
BRANCH  19  20
HETATM   20  O   UNL     1      44.146 -17.663   5.374  1.00  0.00    -0.350 OA
BRANCH  20  21
HETATM   21  C   UNL     1      43.547 -17.849   6.655  1.00  0.00     0.180 C 
BRANCH  21  22
HETATM   22  C   UNL     1      43.338 -16.494   7.259  1.00  0.00     0.010 A 
HETATM   23  C   UNL     1      43.166 -15.276   6.386  1.00  0.00     0.007 A 
HETATM   24  C   UNL     1      41.994 -15.816   7.160  1.00  0.00     0.007 A 
ENDBRANCH  21  22
ENDBRANCH  20  21
ENDBRANCH  19  20
ENDBRANCH  13  14
ENDBRANCH  11  13
ENDBRANCH   1  11
BRANCH   8  25
HETATM   25  C   UNL     1      40.145 -12.819   5.856  1.00  0.00     0.270 C 
HETATM   26  N   UNL     1      41.125 -11.988   6.328  1.00  0.00    -0.365 N 
HETATM   27  H   UNL     1      41.594 -11.373   5.672  1.00  0.00     0.159 HD
HETATM   28  H   UNL     1      41.385 -12.020   7.300  1.00  0.00     0.159 HD
HETATM   29  O   UNL     1      39.556 -13.596   6.602  1.00  0.00    -0.266 OA
ENDBRANCH   8  25
TORSDOF 7
ENDMDL
MODEL 6
REMARK VINA RESULT:      -6.9     14.857     16.915
REMARK  7 active torsions:
REMARK  status: ('A' for Active; 'I' for Inactive)
REMARK    1  A    between atoms: C_3  and  C_4 
REMARK    2  A    between atoms: C_4  and  N_5 
REMARK    3  A    between atoms: N_5  and  C_6 
REMARK    4  A    between atoms: C_13  and  C_14 
REMARK       I    between atoms: C_14  and  N_15 
REMARK    5  A    between atoms: C_19  and  O_20 
REMARK    6  A    between atoms: O_20  and  C_21 
REMARK    7  A    between atoms: C_21  and  C_22 
ROOT
HETATM    1  C   UNL     1      46.654 -28.419  -2.151  1.00  0.00     0.029 A 
HETATM    2  C   UNL     1      47.877 -29.091  -2.334  1.00  0.00     0.045 A 
HETATM    3  C   UNL     1      48.705 -29.391  -1.234  1.00  0.00     0.030 A 
HETATM    4  C   UNL     1      48.296 -29.001   0.033  1.00  0.00     0.063 A 
HETATM    5  N   UNL     1      49.282 -29.423   0.879  1.00  0.00    -0.277 N 
HETATM    6  H   UNL     1      49.314 -29.309   1.886  1.00  0.00     0.189 HD
HETATM    7  N   UNL     1      50.310 -30.040   0.273  1.00  0.00    -0.168 NA
HETATM    8  C   UNL     1      49.968 -30.026  -1.036  1.00  0.00     0.156 A 
HETATM    9  C   UNL     1      47.105 -28.312   0.263  1.00  0.00     0.034 A 
HETATM   10  C   UNL     1      46.310 -28.017  -0.856  1.00  0.00     0.031 A 
ENDROOT
BRANCH   1  11
HETATM   11  N   UNL     1      45.920 -28.085  -3.284  1.00  0.00    -0.386 N 
HETATM   12  H   UNL     1      46.477 -27.945  -4.120  1.00  0.00     0.160 HD
BRANCH  11  13
HETATM   13  C   UNL     1      44.561 -28.556  -3.535  1.00  0.00     0.161 C 
BRANCH  13  14
HETATM   14  C   UNL     1      44.465 -30.032  -3.869  1.00  0.00    -0.007 A 
HETATM   15  C   UNL     1      44.574 -30.486  -5.197  1.00  0.00     0.011 A 
HETATM   16  C   UNL     1      44.441 -31.839  -5.505  1.00  0.00     0.001 A 
HETATM   17  C   UNL     1      44.179 -32.758  -4.495  1.00  0.00     0.003 A 
HETATM   18  C   UNL     1      44.048 -32.326  -3.173  1.00  0.00     0.037 A 
HETATM   19  C   UNL     1      44.192 -30.972  -2.854  1.00  0.00     0.076 A 
BRANCH  19  20
HETATM   20  O   UNL     1      44.057 -30.464  -1.588  1.00  0.00    -0.350 OA
BRANCH  20  21
HETATM   21  C   UNL     1      43.891 -31.393  -0.518  1.00  0.00     0.180 C 
BRANCH  21  22
HETATM   22  C   UNL     1      43.818 -30.609   0.756  1.00  0.00     0.010 A 
HETATM   23  C   UNL     1      42.894 -29.425   0.885  1.00  0.00     0.007 A 
HETATM   24  C   UNL     1      42.596 -30.695   1.635  1.00  0.00     0.007 A 
ENDBRANCH  21  22
ENDBRANCH  20  21
ENDBRANCH  19  20
ENDBRANCH  13  14
ENDBRANCH  11  13
ENDBRANCH   1  11
BRANCH   8  25
HETATM   25  C   UNL     1      50.844 -30.605  -2.063  1.00  0.00     0.270 C 
HETATM   26  N   UNL     1      50.300 -31.673  -2.724  1.00  0.00    -0.365 N 
HETATM   27  H   UNL     1      49.371 -31.982  -2.460  1.00  0.00     0.159 HD
HETATM   28  H   UNL     1      50.833 -32.150  -3.433  1.00  0.00     0.159 HD
HETATM   29  O   UNL     1      51.971 -30.198  -2.331  1.00  0.00    -0.266 OA
ENDBRANCH   8  25
TORSDOF 7
ENDMDL
MODEL 7
REMARK VINA RESULT:      -6.8      2.030      3.534
REMARK  7 active torsions:
REMARK  status: ('A' for Active; 'I' for Inactive)
REMARK    1  A    between atoms: C_3  and  C_4 
REMARK    2  A    between atoms: C_4  and  N_5 
REMARK    3  A    between atoms: N_5  and  C_6 
REMARK    4  A    between atoms: C_13  and  C_14 
REMARK       I    between atoms: C_14  and  N_15 
REMARK    5  A    between atoms: C_19  and  O_20 
REMARK    6  A    between atoms: O_20  and  C_21 
REMARK    7  A    between atoms: C_21  and  C_22 
ROOT
HETATM    1  C   UNL     1      42.706 -15.280   1.799  1.00  0.00     0.029 A 
HETATM    2  C   UNL     1      43.275 -14.302   2.637  1.00  0.00     0.045 A 
HETATM    3  C   UNL     1      42.804 -12.974   2.616  1.00  0.00     0.030 A 
HETATM    4  C   UNL     1      41.776 -12.646   1.743  1.00  0.00     0.063 A 
HETATM    5  N   UNL     1      41.538 -11.317   1.946  1.00  0.00    -0.277 N 
HETATM    6  H   UNL     1      40.848 -10.741   1.477  1.00  0.00     0.189 HD
HETATM    7  N   UNL     1      42.333 -10.741   2.864  1.00  0.00    -0.168 NA
HETATM    8  C   UNL     1      43.123 -11.755   3.286  1.00  0.00     0.156 A 
HETATM    9  C   UNL     1      41.197 -13.573   0.876  1.00  0.00     0.034 A 
HETATM   10  C   UNL     1      41.698 -14.884   0.913  1.00  0.00     0.031 A 
ENDROOT
BRANCH   1  11
HETATM   11  N   UNL     1      43.265 -16.553   1.814  1.00  0.00    -0.386 N 
HETATM   12  H   UNL     1      44.219 -16.590   2.159  1.00  0.00     0.160 HD
BRANCH  11  13
HETATM   13  C   UNL     1      42.495 -17.773   2.035  1.00  0.00     0.161 C 
BRANCH  13  14
HETATM   14  C   UNL     1      43.177 -18.785   2.935  1.00  0.00    -0.007 A 
HETATM   15  C   UNL     1      43.385 -20.111   2.511  1.00  0.00     0.011 A 
HETATM   16  C   UNL     1      43.972 -21.051   3.357  1.00  0.00     0.001 A 
HETATM   17  C   UNL     1      44.344 -20.687   4.646  1.00  0.00     0.003 A 
HETATM   18  C   UNL     1      44.130 -19.381   5.094  1.00  0.00     0.037 A 
HETATM   19  C   UNL     1      43.552 -18.428   4.247  1.00  0.00     0.076 A 
BRANCH  19  20
HETATM   20  O   UNL     1      43.288 -17.135   4.615  1.00  0.00    -0.350 OA
BRANCH  20  21
HETATM   21  C   UNL     1      42.317 -16.926   5.639  1.00  0.00     0.180 C 
BRANCH  21  22
HETATM   22  C   UNL     1      41.934 -15.478   5.611  1.00  0.00     0.010 A 
HETATM   23  C   UNL     1      40.691 -14.992   6.312  1.00  0.00     0.007 A 
HETATM   24  C   UNL     1      42.047 -14.636   6.856  1.00  0.00     0.007 A 
ENDBRANCH  21  22
ENDBRANCH  20  21
ENDBRANCH  19  20
ENDBRANCH  13  14
ENDBRANCH  11  13
ENDBRANCH   1  11
BRANCH   8  25
HETATM   25  C   UNL     1      44.162 -11.544   4.303  1.00  0.00     0.270 C 
HETATM   26  N   UNL     1      43.714 -11.661   5.590  1.00  0.00    -0.365 N 
HETATM   27  H   UNL     1      42.733 -11.866   5.744  1.00  0.00     0.159 HD
HETATM   28  H   UNL     1      44.349 -11.514   6.358  1.00  0.00     0.159 HD
HETATM   29  O   UNL     1      45.336 -11.281   4.059  1.00  0.00    -0.266 OA
ENDBRANCH   8  25
TORSDOF 7
ENDMDL
MODEL 8
REMARK VINA RESULT:      -6.7      3.054      6.184
REMARK  7 active torsions:
REMARK  status: ('A' for Active; 'I' for Inactive)
REMARK    1  A    between atoms: C_3  and  C_4 
REMARK    2  A    between atoms: C_4  and  N_5 
REMARK    3  A    between atoms: N_5  and  C_6 
REMARK    4  A    between atoms: C_13  and  C_14 
REMARK       I    between atoms: C_14  and  N_15 
REMARK    5  A    between atoms: C_19  and  O_20 
REMARK    6  A    between atoms: O_20  and  C_21 
REMARK    7  A    between atoms: C_21  and  C_22 
ROOT
HETATM    1  C   UNL     1      42.440 -16.169   2.344  1.00  0.00     0.029 A 
HETATM    2  C   UNL     1      42.242 -15.959   3.722  1.00  0.00     0.045 A 
HETATM    3  C   UNL     1      42.783 -16.850   4.671  1.00  0.00     0.030 A 
HETATM    4  C   UNL     1      43.505 -17.944   4.219  1.00  0.00     0.063 A 
HETATM    5  N   UNL     1      43.897 -18.610   5.346  1.00  0.00    -0.277 N 
HETATM    6  H   UNL     1      44.447 -19.460   5.394  1.00  0.00     0.189 HD
HETATM    7  N   UNL     1      43.478 -18.055   6.495  1.00  0.00    -0.168 NA
HETATM    8  C   UNL     1      42.785 -16.965   6.093  1.00  0.00     0.156 A 
HETATM    9  C   UNL     1      43.709 -18.209   2.865  1.00  0.00     0.034 A 
HETATM   10  C   UNL     1      43.146 -17.309   1.945  1.00  0.00     0.031 A 
ENDROOT
BRANCH   1  11
HETATM   11  N   UNL     1      41.818 -15.297   1.458  1.00  0.00    -0.386 N 
HETATM   12  H   UNL     1      42.354 -15.094   0.621  1.00  0.00     0.160 HD
BRANCH  11  13
HETATM   13  C   UNL     1      40.371 -15.217   1.282  1.00  0.00     0.161 C 
BRANCH  13  14
HETATM   14  C   UNL     1      39.931 -14.336   0.129  1.00  0.00    -0.007 A 
HETATM   15  C   UNL     1      39.459 -14.894  -1.074  1.00  0.00     0.011 A 
HETATM   16  C   UNL     1      39.096 -14.082  -2.147  1.00  0.00     0.001 A 
HETATM   17  C   UNL     1      39.216 -12.700  -2.043  1.00  0.00     0.003 A 
HETATM   18  C   UNL     1      39.700 -12.127  -0.865  1.00  0.00     0.037 A 
HETATM   19  C   UNL     1      40.054 -12.934   0.222  1.00  0.00     0.076 A 
BRANCH  19  20
HETATM   20  O   UNL     1      40.557 -12.453   1.402  1.00  0.00    -0.350 OA
BRANCH  20  21
HETATM   21  C   UNL     1      41.654 -11.545   1.331  1.00  0.00     0.180 C 
BRANCH  21  22
HETATM   22  C   UNL     1      42.147 -11.319   2.728  1.00  0.00     0.010 A 
HETATM   23  C   UNL     1      41.987 -12.381   3.786  1.00  0.00     0.007 A 
HETATM   24  C   UNL     1      43.353 -12.066   3.240  1.00  0.00     0.007 A 
ENDBRANCH  21  22
ENDBRANCH  20  21
ENDBRANCH  19  20
ENDBRANCH  13  14
ENDBRANCH  11  13
ENDBRANCH   1  11
BRANCH   8  25
HETATM   25  C   UNL     1      42.138 -16.068   7.061  1.00  0.00     0.270 C 
HETATM   26  N   UNL     1      40.798 -15.892   6.848  1.00  0.00    -0.365 N 
HETATM   27  H   UNL     1      40.367 -16.365   6.062  1.00  0.00     0.159 HD
HETATM   28  H   UNL     1      40.271 -15.278   7.448  1.00  0.00     0.159 HD
HETATM   29  O   UNL     1      42.715 -15.507   7.987  1.00  0.00    -0.266 OA
ENDBRANCH   8  25
TORSDOF 7
ENDMDL
MODEL 9
REMARK VINA RESULT:      -6.7      3.808      5.633
REMARK  7 active torsions:
REMARK  status: ('A' for Active; 'I' for Inactive)
REMARK    1  A    between atoms: C_3  and  C_4 
REMARK    2  A    between atoms: C_4  and  N_5 
REMARK    3  A    between atoms: N_5  and  C_6 
REMARK    4  A    between atoms: C_13  and  C_14 
REMARK       I    between atoms: C_14  and  N_15 
REMARK    5  A    between atoms: C_19  and  O_20 
REMARK    6  A    between atoms: O_20  and  C_21 
REMARK    7  A    between atoms: C_21  and  C_22 
ROOT
HETATM    1  C   UNL     1      40.955 -14.278   0.472  1.00  0.00     0.029 A 
HETATM    2  C   UNL     1      41.308 -12.916   0.507  1.00  0.00     0.045 A 
HETATM    3  C   UNL     1      40.547 -11.958  -0.192  1.00  0.00     0.030 A 
HETATM    4  C   UNL     1      39.449 -12.386  -0.925  1.00  0.00     0.063 A 
HETATM    5  N   UNL     1      38.920 -11.255  -1.479  1.00  0.00    -0.277 N 
HETATM    6  H   UNL     1      38.105 -11.191  -2.078  1.00  0.00     0.189 HD
HETATM    7  N   UNL     1      39.587 -10.125  -1.186  1.00  0.00    -0.168 NA
HETATM    8  C   UNL     1      40.598 -10.546  -0.391  1.00  0.00     0.156 A 
HETATM    9  C   UNL     1      39.074 -13.726  -1.011  1.00  0.00     0.034 A 
HETATM   10  C   UNL     1      39.860 -14.657  -0.313  1.00  0.00     0.031 A 
ENDROOT
BRANCH   1  11
HETATM   11  N   UNL     1      41.789 -15.183   1.121  1.00  0.00    -0.386 N 
HETATM   12  H   UNL     1      42.673 -14.792   1.431  1.00  0.00     0.160 HD
BRANCH  11  13
HETATM   13  C   UNL     1      41.303 -16.295   1.930  1.00  0.00     0.161 C 
BRANCH  13  14
HETATM   14  C   UNL     1      42.381 -17.003   2.728  1.00  0.00    -0.007 A 
HETATM   15  C   UNL     1      42.954 -18.205   2.271  1.00  0.00     0.011 A 
HETATM   16  C   UNL     1      43.913 -18.875   3.028  1.00  0.00     0.001 A 
HETATM   17  C   UNL     1      44.302 -18.367   4.263  1.00  0.00     0.003 A 
HETATM   18  C   UNL     1      43.732 -17.187   4.744  1.00  0.00     0.037 A 
HETATM   19  C   UNL     1      42.778 -16.500   3.984  1.00  0.00     0.076 A 
BRANCH  19  20
HETATM   20  O   UNL     1      42.156 -15.350   4.394  1.00  0.00    -0.350 OA
BRANCH  20  21
HETATM   21  C   UNL     1      42.933 -14.154   4.425  1.00  0.00     0.180 C 
BRANCH  21  22
HETATM   22  C   UNL     1      42.773 -13.545   5.785  1.00  0.00     0.010 A 
HETATM   23  C   UNL     1      42.766 -14.406   7.022  1.00  0.00     0.007 A 
HETATM   24  C   UNL     1      43.937 -13.504   6.742  1.00  0.00     0.007 A 
ENDBRANCH  21  22
ENDBRANCH  20  21
ENDBRANCH  19  20
ENDBRANCH  13  14
ENDBRANCH  11  13
ENDBRANCH   1  11
BRANCH   8  25
HETATM   25  C   UNL     1      41.587  -9.605   0.152  1.00  0.00     0.270 C 
HETATM   26  N   UNL     1      41.434  -9.342   1.486  1.00  0.00    -0.365 N 
HETATM   27  H   UNL     1      40.672  -9.789   1.982  1.00  0.00     0.159 HD
HETATM   28  H   UNL     1      42.053  -8.693   1.944  1.00  0.00     0.159 HD
HETATM   29  O   UNL     1      42.483  -9.079  -0.502  1.00  0.00    -0.266 OA
ENDBRANCH   8  25
TORSDOF 7
ENDMDL
MODEL 10
REMARK VINA RESULT:      -6.7      2.790      5.203
REMARK  7 active torsions:
REMARK  status: ('A' for Active; 'I' for Inactive)
REMARK    1  A    between atoms: C_3  and  C_4 
REMARK    2  A    between atoms: C_4  and  N_5 
REMARK    3  A    between atoms: N_5  and  C_6 
REMARK    4  A    between atoms: C_13  and  C_14 
REMARK       I    between atoms: C_14  and  N_15 
REMARK    5  A    between atoms: C_19  and  O_20 
REMARK    6  A    between atoms: O_20  and  C_21 
REMARK    7  A    between atoms: C_21  and  C_22 
ROOT
HETATM    1  C   UNL     1      43.753 -12.251   7.025  1.00  0.00     0.029 A 
HETATM    2  C   UNL     1      43.526 -11.095   7.795  1.00  0.00     0.045 A 
HETATM    3  C   UNL     1      44.517 -10.099   7.906  1.00  0.00     0.030 A 
HETATM    4  C   UNL     1      45.725 -10.287   7.252  1.00  0.00     0.063 A 
HETATM    5  N   UNL     1      46.469  -9.177   7.537  1.00  0.00    -0.277 N 
HETATM    6  H   UNL     1      47.410  -8.973   7.222  1.00  0.00     0.189 HD
HETATM    7  N   UNL     1      45.857  -8.287   8.337  1.00  0.00    -0.168 NA
HETATM    8  C   UNL     1      44.648  -8.845   8.575  1.00  0.00     0.156 A 
HETATM    9  C   UNL     1      46.008 -11.426   6.498  1.00  0.00     0.034 A 
HETATM   10  C   UNL     1      45.004 -12.404   6.417  1.00  0.00     0.031 A 
ENDROOT
BRANCH   1  11
HETATM   11  N   UNL     1      42.765 -13.231   7.016  1.00  0.00    -0.386 N 
HETATM   12  H   UNL     1      41.833 -12.885   6.815  1.00  0.00     0.160 HD
BRANCH  11  13
HETATM   13  C   UNL     1      42.999 -14.612   6.608  1.00  0.00     0.161 C 
BRANCH  13  14
HETATM   14  C   UNL     1      42.461 -14.956   5.233  1.00  0.00    -0.007 A 
HETATM   15  C   UNL     1      41.438 -14.192   4.640  1.00  0.00     0.011 A 
HETATM   16  C   UNL     1      40.916 -14.536   3.395  1.00  0.00     0.001 A 
HETATM   17  C   UNL     1      41.392 -15.661   2.730  1.00  0.00     0.003 A 
HETATM   18  C   UNL     1      42.393 -16.444   3.309  1.00  0.00     0.037 A 
HETATM   19  C   UNL     1      42.932 -16.098   4.553  1.00  0.00     0.076 A 
BRANCH  19  20
HETATM   20  O   UNL     1      43.899 -16.824   5.198  1.00  0.00    -0.350 OA
BRANCH  20  21
HETATM   21  C   UNL     1      43.565 -18.149   5.608  1.00  0.00     0.180 C 
BRANCH  21  22
HETATM   22  C   UNL     1      44.433 -19.094   4.835  1.00  0.00     0.010 A 
HETATM   23  C   UNL     1      44.245 -20.586   4.948  1.00  0.00     0.007 A 
HETATM   24  C   UNL     1      43.864 -19.876   3.677  1.00  0.00     0.007 A 
ENDBRANCH  21  22
ENDBRANCH  20  21
ENDBRANCH  19  20
ENDBRANCH  13  14
ENDBRANCH  11  13
ENDBRANCH   1  11
BRANCH   8  25
HETATM   25  C   UNL     1      43.655  -8.185   9.433  1.00  0.00     0.270 C 
HETATM   26  N   UNL     1      43.193  -6.996   8.938  1.00  0.00    -0.365 N 
HETATM   27  H   UNL     1      43.563  -6.663   8.055  1.00  0.00     0.159 HD
HETATM   28  H   UNL     1      42.524  -6.459   9.464  1.00  0.00     0.159 HD
HETATM   29  O   UNL     1      43.253  -8.627  10.505  1.00  0.00    -0.266 OA
ENDBRANCH   8  25
TORSDOF 7
ENDMDL
