MODEL 1
REMARK VINA RESULT:      -9.6      0.000      0.000
REMARK  7 active torsions:
REMARK  status: ('A' for Active; 'I' for Inactive)
REMARK    1  A    between atoms: C_3  and  C_4 
REMARK    2  A    between atoms: C_4  and  S_5 
REMARK    3  A    between atoms: S_5  and  C_6 
REMARK    4  A    between atoms: C_6  and  C_7 
REMARK    5  A    between atoms: C_16  and  C_17 
REMARK       I    between atoms: C_17  and  N_18 
REMARK    6  A    between atoms: N_18  and  C_19 
REMARK    7  A    between atoms: C_19  and  C_20 
ROOT
HETATM    1  C   UNL     1      40.590 -15.364   5.440  1.00  0.00     0.162 C 
HETATM    2  N   UNL     1      40.078 -16.104   4.254  1.00  0.00    -0.277 NA
HETATM    3  C   UNL     1      40.110 -15.373   3.052  1.00  0.00     0.036 A 
HETATM    4  C   UNL     1      40.023 -13.967   3.051  1.00  0.00     0.057 A 
HETATM    5  N   UNL     1      39.953 -13.278   4.269  1.00  0.00    -0.324 N 
HETATM    6  C   UNL     1      40.063 -13.918   5.479  1.00  0.00     0.240 C 
HETATM    7  O   UNL     1      39.822 -13.322   6.528  1.00  0.00    -0.271 OA
HETATM    8  C   UNL     1      40.063 -16.045   1.827  1.00  0.00     0.027 A 
HETATM    9  C   UNL     1      40.021 -15.329   0.627  1.00  0.00     0.019 A 
HETATM   10  C   UNL     1      40.000 -13.928   0.640  1.00  0.00     0.034 A 
HETATM   11  C   UNL     1      39.968 -13.244   1.860  1.00  0.00     0.048 A 
HETATM   12  H   UNL     1      40.453 -17.044   4.159  1.00  0.00     0.128 HD
HETATM   13  H   UNL     1      39.708 -12.297   4.300  1.00  0.00     0.169 HD
ENDROOT
BRANCH  10  14
HETATM   14  C   UNL     1      39.973 -13.203  -0.658  1.00  0.00     0.252 C 
HETATM   15  N   UNL     1      41.165 -12.649  -1.062  1.00  0.00    -0.353 N 
HETATM   16  H   UNL     1      42.014 -12.817  -0.541  1.00  0.00     0.163 HD
HETATM   17  O   UNL     1      38.941 -13.149  -1.316  1.00  0.00    -0.268 OA
BRANCH  15  18
HETATM   18  C   UNL     1      41.246 -11.858  -2.267  1.00  0.00     0.163 C 
BRANCH  18  19
HETATM   19  C   UNL     1      41.061 -10.391  -1.974  1.00  0.00    -0.019 A 
HETATM   20  C   UNL     1      39.960  -9.659  -2.448  1.00  0.00     0.042 A 
HETATM   21 CL   UNL     1      38.723 -10.392  -3.407  1.00  0.00    -0.084 Cl
HETATM   22  C   UNL     1      39.818  -8.303  -2.137  1.00  0.00     0.024 A 
HETATM   23  C   UNL     1      40.771  -7.661  -1.347  1.00  0.00     0.002 A 
HETATM   24  C   UNL     1      41.865  -8.375  -0.865  1.00  0.00     0.001 A 
HETATM   25  C   UNL     1      42.007  -9.729  -1.172  1.00  0.00     0.010 A 
ENDBRANCH  18  19
ENDBRANCH  15  18
ENDBRANCH  10  14
BRANCH   1  26
HETATM   26  C   UNL     1      42.133 -15.407   5.444  1.00  0.00     0.103 C 
BRANCH  26  27
HETATM   27  S   UNL     1      42.946 -16.821   6.267  1.00  0.00    -0.162 SA
BRANCH  27  28
HETATM   28  C   UNL     1      44.320 -17.123   5.111  1.00  0.00     0.112 C 
BRANCH  28  29
HETATM   29  C   UNL     1      44.054 -18.338   4.251  1.00  0.00    -0.043 A 
HETATM   30  C   UNL     1      43.618 -18.237   2.911  1.00  0.00    -0.055 A 
HETATM   31  C   UNL     1      43.410 -16.906   2.239  1.00  0.00     0.049 C 
HETATM   32  C   UNL     1      43.386 -19.411   2.174  1.00  0.00     0.007 A 
HETATM   33  C   UNL     1      43.561 -20.667   2.753  1.00  0.00     0.001 A 
HETATM   34  C   UNL     1      43.971 -20.770   4.077  1.00  0.00     0.001 A 
HETATM   35  C   UNL     1      44.215 -19.616   4.820  1.00  0.00     0.008 A 
ENDBRANCH  28  29
ENDBRANCH  27  28
ENDBRANCH  26  27
ENDBRANCH   1  26
TORSDOF 7
ENDMDL
MODEL 2
REMARK VINA RESULT:      -9.5      1.578      2.032
REMARK  7 active torsions:
REMARK  status: ('A' for Active; 'I' for Inactive)
REMARK    1  A    between atoms: C_3  and  C_4 
REMARK    2  A    between atoms: C_4  and  S_5 
REMARK    3  A    between atoms: S_5  and  C_6 
REMARK    4  A    between atoms: C_6  and  C_7 
REMARK    5  A    between atoms: C_16  and  C_17 
REMARK       I    between atoms: C_17  and  N_18 
REMARK    6  A    between atoms: N_18  and  C_19 
REMARK    7  A    between atoms: C_19  and  C_20 
ROOT
HETATM    1  C   UNL     1      40.583 -15.457   5.639  1.00  0.00     0.162 C 
HETATM    2  N   UNL     1      40.122 -16.173   4.418  1.00  0.00    -0.277 NA
HETATM    3  C   UNL     1      40.226 -15.425   3.230  1.00  0.00     0.036 A 
HETATM    4  C   UNL     1      40.159 -14.018   3.245  1.00  0.00     0.057 A 
HETATM    5  N   UNL     1      40.037 -13.345   4.468  1.00  0.00    -0.324 N 
HETATM    6  C   UNL     1      40.076 -14.004   5.673  1.00  0.00     0.240 C 
HETATM    7  O   UNL     1      39.790 -13.419   6.716  1.00  0.00    -0.271 OA
HETATM    8  C   UNL     1      40.232 -16.080   1.994  1.00  0.00     0.027 A 
HETATM    9  C   UNL     1      40.263 -15.346   0.805  1.00  0.00     0.019 A 
HETATM   10  C   UNL     1      40.262 -13.946   0.837  1.00  0.00     0.034 A 
HETATM   11  C   UNL     1      40.176 -13.278   2.063  1.00  0.00     0.048 A 
HETATM   12  H   UNL     1      40.487 -17.117   4.328  1.00  0.00     0.128 HD
HETATM   13  H   UNL     1      39.805 -12.362   4.500  1.00  0.00     0.169 HD
ENDROOT
BRANCH  10  14
HETATM   14  C   UNL     1      40.312 -13.203  -0.450  1.00  0.00     0.252 C 
HETATM   15  N   UNL     1      39.611 -13.761  -1.494  1.00  0.00    -0.353 N 
HETATM   16  H   UNL     1      39.029 -14.574  -1.348  1.00  0.00     0.163 HD
HETATM   17  O   UNL     1      40.924 -12.145  -0.532  1.00  0.00    -0.268 OA
BRANCH  15  18
HETATM   18  C   UNL     1      39.646 -13.172  -2.811  1.00  0.00     0.163 C 
BRANCH  18  19
HETATM   19  C   UNL     1      38.698 -12.005  -2.916  1.00  0.00    -0.019 A 
HETATM   20  C   UNL     1      39.129 -10.708  -3.236  1.00  0.00     0.042 A 
HETATM   21 CL   UNL     1      40.792 -10.349  -3.540  1.00  0.00    -0.084 Cl
HETATM   22  C   UNL     1      38.212  -9.657  -3.340  1.00  0.00     0.024 A 
HETATM   23  C   UNL     1      36.854  -9.888  -3.129  1.00  0.00     0.002 A 
HETATM   24  C   UNL     1      36.410 -11.171  -2.817  1.00  0.00     0.001 A 
HETATM   25  C   UNL     1      37.323 -12.221  -2.714  1.00  0.00     0.010 A 
ENDBRANCH  18  19
ENDBRANCH  15  18
ENDBRANCH  10  14
BRANCH   1  26
HETATM   26  C   UNL     1      42.123 -15.524   5.722  1.00  0.00     0.103 C 
BRANCH  26  27
HETATM   27  S   UNL     1      42.876 -17.034   6.419  1.00  0.00    -0.162 SA
BRANCH  27  28
HETATM   28  C   UNL     1      44.275 -17.257   5.274  1.00  0.00     0.112 C 
BRANCH  28  29
HETATM   29  C   UNL     1      44.047 -18.436   4.355  1.00  0.00    -0.043 A 
HETATM   30  C   UNL     1      43.681 -18.279   3.000  1.00  0.00    -0.055 A 
HETATM   31  C   UNL     1      43.514 -16.921   2.371  1.00  0.00     0.049 C 
HETATM   32  C   UNL     1      43.481 -19.421   2.206  1.00  0.00     0.007 A 
HETATM   33  C   UNL     1      43.620 -20.700   2.742  1.00  0.00     0.001 A 
HETATM   34  C   UNL     1      43.961 -20.858   4.081  1.00  0.00     0.001 A 
HETATM   35  C   UNL     1      44.173 -19.735   4.881  1.00  0.00     0.008 A 
ENDBRANCH  28  29
ENDBRANCH  27  28
ENDBRANCH  26  27
ENDBRANCH   1  26
TORSDOF 7
ENDMDL
MODEL 3
REMARK VINA RESULT:      -9.4      4.213      8.038
REMARK  7 active torsions:
REMARK  status: ('A' for Active; 'I' for Inactive)
REMARK    1  A    between atoms: C_3  and  C_4 
REMARK    2  A    between atoms: C_4  and  S_5 
REMARK    3  A    between atoms: S_5  and  C_6 
REMARK    4  A    between atoms: C_6  and  C_7 
REMARK    5  A    between atoms: C_16  and  C_17 
REMARK       I    between atoms: C_17  and  N_18 
REMARK    6  A    between atoms: N_18  and  C_19 
REMARK    7  A    between atoms: C_19  and  C_20 
ROOT
HETATM    1  C   UNL     1      40.066 -10.011   5.077  1.00  0.00     0.162 C 
HETATM    2  N   UNL     1      41.445 -10.469   4.750  1.00  0.00    -0.277 NA
HETATM    3  C   UNL     1      41.683 -11.832   5.007  1.00  0.00     0.036 A 
HETATM    4  C   UNL     1      40.970 -12.521   6.007  1.00  0.00     0.057 A 
HETATM    5  N   UNL     1      39.969 -11.854   6.727  1.00  0.00    -0.324 N 
HETATM    6  C   UNL     1      39.587 -10.569   6.429  1.00  0.00     0.240 C 
HETATM    7  O   UNL     1      38.839  -9.948   7.183  1.00  0.00    -0.271 OA
HETATM    8  C   UNL     1      42.751 -12.481   4.381  1.00  0.00     0.027 A 
HETATM    9  C   UNL     1      43.043 -13.815   4.682  1.00  0.00     0.019 A 
HETATM   10  C   UNL     1      42.284 -14.508   5.632  1.00  0.00     0.034 A 
HETATM   11  C   UNL     1      41.262 -13.848   6.323  1.00  0.00     0.048 A 
HETATM   12  H   UNL     1      41.773 -10.172   3.835  1.00  0.00     0.128 HD
HETATM   13  H   UNL     1      39.572 -12.260   7.564  1.00  0.00     0.169 HD
ENDROOT
BRANCH  10  14
HETATM   14  C   UNL     1      42.616 -15.931   5.911  1.00  0.00     0.252 C 
HETATM   15  N   UNL     1      43.808 -16.382   5.393  1.00  0.00    -0.353 N 
HETATM   16  H   UNL     1      44.446 -15.745   4.937  1.00  0.00     0.163 HD
HETATM   17  O   UNL     1      41.866 -16.621   6.590  1.00  0.00    -0.268 OA
BRANCH  15  18
HETATM   18  C   UNL     1      44.203 -17.763   5.533  1.00  0.00     0.163 C 
BRANCH  18  19
HETATM   19  C   UNL     1      43.908 -18.548   4.280  1.00  0.00    -0.019 A 
HETATM   20  C   UNL     1      43.961 -19.951   4.238  1.00  0.00     0.042 A 
HETATM   21 CL   UNL     1      44.369 -20.890   5.630  1.00  0.00    -0.084 Cl
HETATM   22  C   UNL     1      43.663 -20.640   3.058  1.00  0.00     0.024 A 
HETATM   23  C   UNL     1      43.305 -19.939   1.908  1.00  0.00     0.002 A 
HETATM   24  C   UNL     1      43.242 -18.548   1.936  1.00  0.00     0.001 A 
HETATM   25  C   UNL     1      43.538 -17.858   3.113  1.00  0.00     0.010 A 
ENDBRANCH  18  19
ENDBRANCH  15  18
ENDBRANCH  10  14
BRANCH   1  26
HETATM   26  C   UNL     1      39.110 -10.404   3.930  1.00  0.00     0.103 C 
BRANCH  26  27
HETATM   27  S   UNL     1      39.810 -10.559   2.251  1.00  0.00    -0.162 SA
BRANCH  27  28
HETATM   28  C   UNL     1      38.805 -11.934   1.606  1.00  0.00     0.112 C 
BRANCH  28  29
HETATM   29  C   UNL     1      39.582 -13.232   1.617  1.00  0.00    -0.043 A 
HETATM   30  C   UNL     1      40.385 -13.642   0.530  1.00  0.00    -0.055 A 
HETATM   31  C   UNL     1      40.541 -12.801  -0.709  1.00  0.00     0.049 C 
HETATM   32  C   UNL     1      41.075 -14.864   0.610  1.00  0.00     0.007 A 
HETATM   33  C   UNL     1      40.960 -15.681   1.733  1.00  0.00     0.001 A 
HETATM   34  C   UNL     1      40.155 -15.289   2.797  1.00  0.00     0.001 A 
HETATM   35  C   UNL     1      39.471 -14.075   2.739  1.00  0.00     0.008 A 
ENDBRANCH  28  29
ENDBRANCH  27  28
ENDBRANCH  26  27
ENDBRANCH   1  26
TORSDOF 7
ENDMDL
MODEL 4
REMARK VINA RESULT:      -9.3      2.859      4.333
REMARK  7 active torsions:
REMARK  status: ('A' for Active; 'I' for Inactive)
REMARK    1  A    between atoms: C_3  and  C_4 
REMARK    2  A    between atoms: C_4  and  S_5 
REMARK    3  A    between atoms: S_5  and  C_6 
REMARK    4  A    between atoms: C_6  and  C_7 
REMARK    5  A    between atoms: C_16  and  C_17 
REMARK       I    between atoms: C_17  and  N_18 
REMARK    6  A    between atoms: N_18  and  C_19 
REMARK    7  A    between atoms: C_19  and  C_20 
ROOT
HETATM    1  C   UNL     1      43.448 -13.146   6.873  1.00  0.00     0.162 C 
HETATM    2  N   UNL     1      42.047 -12.824   6.485  1.00  0.00    -0.277 NA
HETATM    3  C   UNL     1      41.894 -12.400   5.151  1.00  0.00     0.036 A 
HETATM    4  C   UNL     1      42.942 -11.754   4.467  1.00  0.00     0.057 A 
HETATM    5  N   UNL     1      44.177 -11.574   5.104  1.00  0.00    -0.324 N 
HETATM    6  C   UNL     1      44.439 -12.092   6.350  1.00  0.00     0.240 C 
HETATM    7  O   UNL     1      45.459 -11.772   6.959  1.00  0.00    -0.271 OA
HETATM    8  C   UNL     1      40.638 -12.466   4.540  1.00  0.00     0.027 A 
HETATM    9  C   UNL     1      40.457 -11.981   3.241  1.00  0.00     0.019 A 
HETATM   10  C   UNL     1      41.525 -11.400   2.548  1.00  0.00     0.034 A 
HETATM   11  C   UNL     1      42.767 -11.256   3.176  1.00  0.00     0.048 A 
HETATM   12  H   UNL     1      41.369 -13.530   6.759  1.00  0.00     0.128 HD
HETATM   13  H   UNL     1      44.880 -10.961   4.714  1.00  0.00     0.169 HD
ENDROOT
BRANCH  10  14
HETATM   14  C   UNL     1      41.295 -10.911   1.162  1.00  0.00     0.252 C 
HETATM   15  N   UNL     1      40.099 -11.275   0.588  1.00  0.00    -0.353 N 
HETATM   16  H   UNL     1      39.396 -11.762   1.126  1.00  0.00     0.163 HD
HETATM   17  O   UNL     1      42.128 -10.205   0.607  1.00  0.00    -0.268 OA
BRANCH  15  18
HETATM   18  C   UNL     1      39.794 -10.924  -0.779  1.00  0.00     0.163 C 
BRANCH  18  19
HETATM   19  C   UNL     1      39.324 -12.124  -1.561  1.00  0.00    -0.019 A 
HETATM   20  C   UNL     1      38.013 -12.241  -2.049  1.00  0.00     0.042 A 
HETATM   21 CL   UNL     1      36.830 -11.008  -1.789  1.00  0.00    -0.084 Cl
HETATM   22  C   UNL     1      37.624 -13.364  -2.786  1.00  0.00     0.024 A 
HETATM   23  C   UNL     1      38.540 -14.382  -3.048  1.00  0.00     0.002 A 
HETATM   24  C   UNL     1      39.845 -14.278  -2.576  1.00  0.00     0.001 A 
HETATM   25  C   UNL     1      40.236 -13.157  -1.842  1.00  0.00     0.010 A 
ENDBRANCH  18  19
ENDBRANCH  15  18
ENDBRANCH  10  14
BRANCH   1  26
HETATM   26  C   UNL     1      43.806 -14.561   6.371  1.00  0.00     0.103 C 
BRANCH  26  27
HETATM   27  S   UNL     1      42.434 -15.703   5.983  1.00  0.00    -0.162 SA
BRANCH  27  28
HETATM   28  C   UNL     1      42.942 -16.270   4.329  1.00  0.00     0.112 C 
BRANCH  28  29
HETATM   29  C   UNL     1      41.938 -15.857   3.276  1.00  0.00    -0.043 A 
HETATM   30  C   UNL     1      42.322 -15.241   2.065  1.00  0.00    -0.055 A 
HETATM   31  C   UNL     1      43.764 -14.973   1.728  1.00  0.00     0.049 C 
HETATM   32  C   UNL     1      41.332 -14.879   1.135  1.00  0.00     0.007 A 
HETATM   33  C   UNL     1      39.982 -15.102   1.401  1.00  0.00     0.001 A 
HETATM   34  C   UNL     1      39.599 -15.690   2.602  1.00  0.00     0.001 A 
HETATM   35  C   UNL     1      40.569 -16.065   3.531  1.00  0.00     0.008 A 
ENDBRANCH  28  29
ENDBRANCH  27  28
ENDBRANCH  26  27
ENDBRANCH   1  26
TORSDOF 7
ENDMDL
MODEL 5
REMARK VINA RESULT:      -9.3      6.611      9.193
REMARK  7 active torsions:
REMARK  status: ('A' for Active; 'I' for Inactive)
REMARK    1  A    between atoms: C_3  and  C_4 
REMARK    2  A    between atoms: C_4  and  S_5 
REMARK    3  A    between atoms: S_5  and  C_6 
REMARK    4  A    between atoms: C_6  and  C_7 
REMARK    5  A    between atoms: C_16  and  C_17 
REMARK       I    between atoms: C_17  and  N_18 
REMARK    6  A    between atoms: N_18  and  C_19 
REMARK    7  A    between atoms: C_19  and  C_20 
ROOT
HETATM    1  C   UNL     1      42.663 -11.276   3.237  1.00  0.00     0.162 C 
HETATM    2  N   UNL     1      43.994 -11.366   3.898  1.00  0.00    -0.277 NA
HETATM    3  C   UNL     1      43.962 -11.212   5.297  1.00  0.00     0.036 A 
HETATM    4  C   UNL     1      42.954 -10.454   5.924  1.00  0.00     0.057 A 
HETATM    5  N   UNL     1      41.935  -9.883   5.150  1.00  0.00    -0.324 N 
HETATM    6  C   UNL     1      41.825 -10.114   3.801  1.00  0.00     0.240 C 
HETATM    7  O   UNL     1      41.035  -9.465   3.117  1.00  0.00    -0.271 OA
HETATM    8  C   UNL     1      45.030 -11.675   6.072  1.00  0.00     0.027 A 
HETATM    9  C   UNL     1      45.045 -11.465   7.454  1.00  0.00     0.019 A 
HETATM   10  C   UNL     1      44.002 -10.765   8.075  1.00  0.00     0.034 A 
HETATM   11  C   UNL     1      42.967 -10.228   7.301  1.00  0.00     0.048 A 
HETATM   12  H   UNL     1      44.554 -12.159   3.597  1.00  0.00     0.128 HD
HETATM   13  H   UNL     1      41.310  -9.192   5.541  1.00  0.00     0.169 HD
ENDROOT
BRANCH  10  14
HETATM   14  C   UNL     1      44.047 -10.577   9.549  1.00  0.00     0.252 C 
HETATM   15  N   UNL     1      42.876 -10.161  10.138  1.00  0.00    -0.353 N 
HETATM   16  H   UNL     1      42.025 -10.086   9.597  1.00  0.00     0.163 HD
HETATM   17  O   UNL     1      45.073 -10.817  10.173  1.00  0.00    -0.268 OA
BRANCH  15  18
HETATM   18  C   UNL     1      42.816  -9.872  11.551  1.00  0.00     0.163 C 
BRANCH  18  19
HETATM   19  C   UNL     1      42.566  -8.407  11.801  1.00  0.00    -0.019 A 
HETATM   20  C   UNL     1      42.235  -7.903  13.070  1.00  0.00     0.042 A 
HETATM   21 CL   UNL     1      42.091  -8.933  14.450  1.00  0.00    -0.084 Cl
HETATM   22  C   UNL     1      42.028  -6.534  13.261  1.00  0.00     0.024 A 
HETATM   23  C   UNL     1      42.153  -5.649  12.191  1.00  0.00     0.002 A 
HETATM   24  C   UNL     1      42.486  -6.133  10.928  1.00  0.00     0.001 A 
HETATM   25  C   UNL     1      42.695  -7.499  10.735  1.00  0.00     0.010 A 
ENDBRANCH  18  19
ENDBRANCH  15  18
ENDBRANCH  10  14
BRANCH   1  26
HETATM   26  C   UNL     1      41.929 -12.626   3.378  1.00  0.00     0.103 C 
BRANCH  26  27
HETATM   27  S   UNL     1      42.761 -14.122   2.739  1.00  0.00    -0.162 SA
BRANCH  27  28
HETATM   28  C   UNL     1      42.735 -15.169   4.229  1.00  0.00     0.112 C 
BRANCH  28  29
HETATM   29  C   UNL     1      43.180 -16.580   3.913  1.00  0.00    -0.043 A 
HETATM   30  C   UNL     1      44.033 -17.312   4.768  1.00  0.00    -0.055 A 
HETATM   31  C   UNL     1      44.541 -16.745   6.066  1.00  0.00     0.049 C 
HETATM   32  C   UNL     1      44.410 -18.617   4.406  1.00  0.00     0.007 A 
HETATM   33  C   UNL     1      43.970 -19.187   3.213  1.00  0.00     0.001 A 
HETATM   34  C   UNL     1      43.145 -18.461   2.361  1.00  0.00     0.001 A 
HETATM   35  C   UNL     1      42.754 -17.168   2.708  1.00  0.00     0.008 A 
ENDBRANCH  28  29
ENDBRANCH  27  28
ENDBRANCH  26  27
ENDBRANCH   1  26
TORSDOF 7
ENDMDL
MODEL 6
REMARK VINA RESULT:      -8.8      5.767      8.712
REMARK  7 active torsions:
REMARK  status: ('A' for Active; 'I' for Inactive)
REMARK    1  A    between atoms: C_3  and  C_4 
REMARK    2  A    between atoms: C_4  and  S_5 
REMARK    3  A    between atoms: S_5  and  C_6 
REMARK    4  A    between atoms: C_6  and  C_7 
REMARK    5  A    between atoms: C_16  and  C_17 
REMARK       I    between atoms: C_17  and  N_18 
REMARK    6  A    between atoms: N_18  and  C_19 
REMARK    7  A    between atoms: C_19  and  C_20 
ROOT
HETATM    1  C   UNL     1      41.953 -13.325   3.298  1.00  0.00     0.162 C 
HETATM    2  N   UNL     1      43.239 -12.625   3.569  1.00  0.00    -0.277 NA
HETATM    3  C   UNL     1      43.355 -12.102   4.871  1.00  0.00     0.036 A 
HETATM    4  C   UNL     1      42.216 -11.717   5.606  1.00  0.00     0.057 A 
HETATM    5  N   UNL     1      40.942 -11.904   5.055  1.00  0.00    -0.324 N 
HETATM    6  C   UNL     1      40.751 -12.541   3.853  1.00  0.00     0.240 C 
HETATM    7  O   UNL     1      39.647 -12.534   3.310  1.00  0.00    -0.271 OA
HETATM    8  C   UNL     1      44.618 -11.802   5.390  1.00  0.00     0.027 A 
HETATM    9  C   UNL     1      44.743 -11.215   6.652  1.00  0.00     0.019 A 
HETATM   10  C   UNL     1      43.603 -10.897   7.401  1.00  0.00     0.034 A 
HETATM   11  C   UNL     1      42.332 -11.119   6.861  1.00  0.00     0.048 A 
HETATM   12  H   UNL     1      44.062 -13.142   3.272  1.00  0.00     0.128 HD
HETATM   13  H   UNL     1      40.126 -11.476   5.473  1.00  0.00     0.169 HD
ENDROOT
BRANCH  10  14
HETATM   14  C   UNL     1      43.780 -10.288   8.747  1.00  0.00     0.252 C 
HETATM   15  N   UNL     1      42.936  -9.246   9.050  1.00  0.00    -0.353 N 
HETATM   16  H   UNL     1      42.188  -8.988   8.422  1.00  0.00     0.163 HD
HETATM   17  O   UNL     1      44.615 -10.734   9.523  1.00  0.00    -0.268 OA
BRANCH  15  18
HETATM   18  C   UNL     1      43.061  -8.527  10.295  1.00  0.00     0.163 C 
BRANCH  18  19
HETATM   19  C   UNL     1      41.999  -8.945  11.280  1.00  0.00    -0.019 A 
HETATM   20  C   UNL     1      42.093  -8.671  12.654  1.00  0.00     0.042 A 
HETATM   21 CL   UNL     1      43.442  -7.823  13.324  1.00  0.00    -0.084 Cl
HETATM   22  C   UNL     1      41.075  -9.062  13.530  1.00  0.00     0.024 A 
HETATM   23  C   UNL     1      39.951  -9.729  13.045  1.00  0.00     0.002 A 
HETATM   24  C   UNL     1      39.841 -10.003  11.685  1.00  0.00     0.001 A 
HETATM   25  C   UNL     1      40.854  -9.611  10.808  1.00  0.00     0.010 A 
ENDBRANCH  18  19
ENDBRANCH  15  18
ENDBRANCH  10  14
BRANCH   1  26
HETATM   26  C   UNL     1      42.015 -14.754   3.877  1.00  0.00     0.103 C 
BRANCH  26  27
HETATM   27  S   UNL     1      41.645 -16.147   2.756  1.00  0.00    -0.162 SA
BRANCH  27  28
HETATM   28  C   UNL     1      43.331 -16.739   2.405  1.00  0.00     0.112 C 
BRANCH  28  29
HETATM   29  C   UNL     1      43.543 -18.138   2.938  1.00  0.00    -0.043 A 
HETATM   30  C   UNL     1      44.052 -18.385   4.232  1.00  0.00    -0.055 A 
HETATM   31  C   UNL     1      44.400 -17.268   5.180  1.00  0.00     0.049 C 
HETATM   32  C   UNL     1      44.227 -19.713   4.658  1.00  0.00     0.007 A 
HETATM   33  C   UNL     1      43.924 -20.782   3.817  1.00  0.00     0.001 A 
HETATM   34  C   UNL     1      43.440 -20.542   2.536  1.00  0.00     0.001 A 
HETATM   35  C   UNL     1      43.251 -19.231   2.100  1.00  0.00     0.008 A 
ENDBRANCH  28  29
ENDBRANCH  27  28
ENDBRANCH  26  27
ENDBRANCH   1  26
TORSDOF 7
ENDMDL
MODEL 7
REMARK VINA RESULT:      -8.5      5.280      8.067
REMARK  7 active torsions:
REMARK  status: ('A' for Active; 'I' for Inactive)
REMARK    1  A    between atoms: C_3  and  C_4 
REMARK    2  A    between atoms: C_4  and  S_5 
REMARK    3  A    between atoms: S_5  and  C_6 
REMARK    4  A    between atoms: C_6  and  C_7 
REMARK    5  A    between atoms: C_16  and  C_17 
REMARK       I    between atoms: C_17  and  N_18 
REMARK    6  A    between atoms: N_18  and  C_19 
REMARK    7  A    between atoms: C_19  and  C_20 
ROOT
HETATM    1  C   UNL     1      41.510 -13.685   2.443  1.00  0.00     0.162 C 
HETATM    2  N   UNL     1      42.090 -12.438   3.013  1.00  0.00    -0.277 NA
HETATM    3  C   UNL     1      41.498 -12.016   4.218  1.00  0.00     0.036 A 
HETATM    4  C   UNL     1      40.157 -12.328   4.520  1.00  0.00     0.057 A 
HETATM    5  N   UNL     1      39.413 -13.114   3.630  1.00  0.00    -0.324 N 
HETATM    6  C   UNL     1      39.972 -13.678   2.509  1.00  0.00     0.240 C 
HETATM    7  O   UNL     1      39.263 -14.211   1.657  1.00  0.00    -0.271 OA
HETATM    8  C   UNL     1      42.185 -11.137   5.061  1.00  0.00     0.027 A 
HETATM    9  C   UNL     1      41.580 -10.654   6.225  1.00  0.00     0.019 A 
HETATM   10  C   UNL     1      40.268 -11.025   6.546  1.00  0.00     0.034 A 
HETATM   11  C   UNL     1      39.541 -11.840   5.672  1.00  0.00     0.048 A 
HETATM   12  H   UNL     1      43.106 -12.430   3.044  1.00  0.00     0.128 HD
HETATM   13  H   UNL     1      38.410 -13.201   3.726  1.00  0.00     0.169 HD
ENDROOT
BRANCH  10  14
HETATM   14  C   UNL     1      39.666 -10.502   7.802  1.00  0.00     0.252 C 
HETATM   15  N   UNL     1      40.453  -9.643   8.533  1.00  0.00    -0.353 N 
HETATM   16  H   UNL     1      41.342  -9.326   8.173  1.00  0.00     0.163 HD
HETATM   17  O   UNL     1      38.525 -10.815   8.119  1.00  0.00    -0.268 OA
BRANCH  15  18
HETATM   18  C   UNL     1      40.008  -9.130   9.807  1.00  0.00     0.163 C 
BRANCH  18  19
HETATM   19  C   UNL     1      41.171  -8.868  10.730  1.00  0.00    -0.019 A 
HETATM   20  C   UNL     1      41.018  -8.739  12.119  1.00  0.00     0.042 A 
HETATM   21 CL   UNL     1      39.473  -8.874  12.883  1.00  0.00    -0.084 Cl
HETATM   22  C   UNL     1      42.127  -8.513  12.940  1.00  0.00     0.024 A 
HETATM   23  C   UNL     1      43.403  -8.418  12.386  1.00  0.00     0.002 A 
HETATM   24  C   UNL     1      43.571  -8.550  11.010  1.00  0.00     0.001 A 
HETATM   25  C   UNL     1      42.465  -8.777  10.189  1.00  0.00     0.010 A 
ENDBRANCH  18  19
ENDBRANCH  15  18
ENDBRANCH  10  14
BRANCH   1  26
HETATM   26  C   UNL     1      42.104 -14.907   3.174  1.00  0.00     0.103 C 
BRANCH  26  27
HETATM   27  S   UNL     1      41.766 -16.564   2.483  1.00  0.00    -0.162 SA
BRANCH  27  28
HETATM   28  C   UNL     1      43.466 -17.191   2.297  1.00  0.00     0.112 C 
BRANCH  28  29
HETATM   29  C   UNL     1      43.664 -18.473   3.074  1.00  0.00    -0.043 A 
HETATM   30  C   UNL     1      44.025 -18.481   4.440  1.00  0.00    -0.055 A 
HETATM   31  C   UNL     1      44.216 -17.210   5.222  1.00  0.00     0.049 C 
HETATM   32  C   UNL     1      44.198 -19.712   5.096  1.00  0.00     0.007 A 
HETATM   33  C   UNL     1      44.037 -20.917   4.415  1.00  0.00     0.001 A 
HETATM   34  C   UNL     1      43.700 -20.912   3.066  1.00  0.00     0.001 A 
HETATM   35  C   UNL     1      43.516 -19.700   2.401  1.00  0.00     0.008 A 
ENDBRANCH  28  29
ENDBRANCH  27  28
ENDBRANCH  26  27
ENDBRANCH   1  26
TORSDOF 7
ENDMDL
MODEL 8
REMARK VINA RESULT:      -8.3      5.030      7.744
REMARK  7 active torsions:
REMARK  status: ('A' for Active; 'I' for Inactive)
REMARK    1  A    between atoms: C_3  and  C_4 
REMARK    2  A    between atoms: C_4  and  S_5 
REMARK    3  A    between atoms: S_5  and  C_6 
REMARK    4  A    between atoms: C_6  and  C_7 
REMARK    5  A    between atoms: C_16  and  C_17 
REMARK       I    between atoms: C_17  and  N_18 
REMARK    6  A    between atoms: N_18  and  C_19 
REMARK    7  A    between atoms: C_19  and  C_20 
ROOT
HETATM    1  C   UNL     1      40.850 -14.787   3.116  1.00  0.00     0.162 C 
HETATM    2  N   UNL     1      40.134 -13.520   2.799  1.00  0.00    -0.277 NA
HETATM    3  C   UNL     1      40.016 -12.630   3.884  1.00  0.00     0.036 A 
HETATM    4  C   UNL     1      39.989 -13.100   5.212  1.00  0.00     0.057 A 
HETATM    5  N   UNL     1      40.133 -14.470   5.464  1.00  0.00    -0.324 N 
HETATM    6  C   UNL     1      40.397 -15.374   4.464  1.00  0.00     0.240 C 
HETATM    7  O   UNL     1      40.342 -16.584   4.683  1.00  0.00    -0.271 OA
HETATM    8  C   UNL     1      39.756 -11.277   3.648  1.00  0.00     0.027 A 
HETATM    9  C   UNL     1      39.565 -10.396   4.717  1.00  0.00     0.019 A 
HETATM   10  C   UNL     1      39.605 -10.865   6.036  1.00  0.00     0.034 A 
HETATM   11  C   UNL     1      39.786 -12.230   6.284  1.00  0.00     0.048 A 
HETATM   12  H   UNL     1      40.450 -13.068   1.945  1.00  0.00     0.128 HD
HETATM   13  H   UNL     1      39.937 -14.854   6.379  1.00  0.00     0.169 HD
ENDROOT
BRANCH  10  14
HETATM   14  C   UNL     1      39.413  -9.893   7.145  1.00  0.00     0.252 C 
HETATM   15  N   UNL     1      39.981 -10.236   8.349  1.00  0.00    -0.353 N 
HETATM   16  H   UNL     1      40.567 -11.055   8.428  1.00  0.00     0.163 HD
HETATM   17  O   UNL     1      38.807  -8.846   6.953  1.00  0.00    -0.268 OA
BRANCH  15  18
HETATM   18  C   UNL     1      39.799  -9.410   9.519  1.00  0.00     0.163 C 
BRANCH  18  19
HETATM   19  C   UNL     1      41.065  -9.325  10.333  1.00  0.00    -0.019 A 
HETATM   20  C   UNL     1      41.083  -9.526  11.723  1.00  0.00     0.042 A 
HETATM   21 CL   UNL     1      39.646  -9.891  12.610  1.00  0.00    -0.084 Cl
HETATM   22  C   UNL     1      42.283  -9.455  12.437  1.00  0.00     0.024 A 
HETATM   23  C   UNL     1      43.480  -9.187  11.773  1.00  0.00     0.002 A 
HETATM   24  C   UNL     1      43.478  -8.992  10.395  1.00  0.00     0.001 A 
HETATM   25  C   UNL     1      42.282  -9.064   9.680  1.00  0.00     0.010 A 
ENDBRANCH  18  19
ENDBRANCH  15  18
ENDBRANCH  10  14
BRANCH   1  26
HETATM   26  C   UNL     1      42.372 -14.536   3.088  1.00  0.00     0.103 C 
BRANCH  26  27
HETATM   27  S   UNL     1      43.375 -15.495   1.900  1.00  0.00    -0.162 SA
BRANCH  27  28
HETATM   28  C   UNL     1      42.555 -17.116   2.018  1.00  0.00     0.112 C 
BRANCH  28  29
HETATM   29  C   UNL     1      43.207 -17.984   3.071  1.00  0.00    -0.043 A 
HETATM   30  C   UNL     1      43.417 -19.369   2.886  1.00  0.00    -0.055 A 
HETATM   31  C   UNL     1      43.024 -20.073   1.615  1.00  0.00     0.049 C 
HETATM   32  C   UNL     1      44.024 -20.113   3.912  1.00  0.00     0.007 A 
HETATM   33  C   UNL     1      44.402 -19.509   5.110  1.00  0.00     0.001 A 
HETATM   34  C   UNL     1      44.179 -18.150   5.302  1.00  0.00     0.001 A 
HETATM   35  C   UNL     1      43.586 -17.394   4.291  1.00  0.00     0.008 A 
ENDBRANCH  28  29
ENDBRANCH  27  28
ENDBRANCH  26  27
ENDBRANCH   1  26
TORSDOF 7
ENDMDL
MODEL 9
REMARK VINA RESULT:      -8.3      5.170      8.244
REMARK  7 active torsions:
REMARK  status: ('A' for Active; 'I' for Inactive)
REMARK    1  A    between atoms: C_3  and  C_4 
REMARK    2  A    between atoms: C_4  and  S_5 
REMARK    3  A    between atoms: S_5  and  C_6 
REMARK    4  A    between atoms: C_6  and  C_7 
REMARK    5  A    between atoms: C_16  and  C_17 
REMARK       I    between atoms: C_17  and  N_18 
REMARK    6  A    between atoms: N_18  and  C_19 
REMARK    7  A    between atoms: C_19  and  C_20 
ROOT
HETATM    1  C   UNL     1      41.134 -16.781   4.985  1.00  0.00     0.162 C 
HETATM    2  N   UNL     1      40.188 -15.706   5.392  1.00  0.00    -0.277 NA
HETATM    3  C   UNL     1      40.796 -14.465   5.659  1.00  0.00     0.036 A 
HETATM    4  C   UNL     1      42.129 -14.387   6.108  1.00  0.00     0.057 A 
HETATM    5  N   UNL     1      42.883 -15.561   6.243  1.00  0.00    -0.324 N 
HETATM    6  C   UNL     1      42.399 -16.788   5.863  1.00  0.00     0.240 C 
HETATM    7  O   UNL     1      43.005 -17.819   6.154  1.00  0.00    -0.271 OA
HETATM    8  C   UNL     1      40.029 -13.296   5.641  1.00  0.00     0.027 A 
HETATM    9  C   UNL     1      40.603 -12.066   5.975  1.00  0.00     0.019 A 
HETATM   10  C   UNL     1      41.949 -11.995   6.357  1.00  0.00     0.034 A 
HETATM   11  C   UNL     1      42.707 -13.166   6.456  1.00  0.00     0.048 A 
HETATM   12  H   UNL     1      39.368 -15.628   4.797  1.00  0.00     0.128 HD
HETATM   13  H   UNL     1      43.769 -15.557   6.731  1.00  0.00     0.169 HD
ENDROOT
BRANCH  10  14
HETATM   14  C   UNL     1      42.527 -10.665   6.689  1.00  0.00     0.252 C 
HETATM   15  N   UNL     1      43.180 -10.578   7.896  1.00  0.00    -0.353 N 
HETATM   16  H   UNL     1      43.329 -11.402   8.462  1.00  0.00     0.163 HD
HETATM   17  O   UNL     1      42.434  -9.735   5.898  1.00  0.00    -0.268 OA
BRANCH  15  18
HETATM   18  C   UNL     1      43.717  -9.322   8.361  1.00  0.00     0.163 C 
BRANCH  18  19
HETATM   19  C   UNL     1      43.466  -9.130   9.835  1.00  0.00    -0.019 A 
HETATM   20  C   UNL     1      43.222  -7.868  10.402  1.00  0.00     0.042 A 
HETATM   21 CL   UNL     1      43.188  -6.430   9.444  1.00  0.00    -0.084 Cl
HETATM   22  C   UNL     1      42.977  -7.739  11.772  1.00  0.00     0.024 A 
HETATM   23  C   UNL     1      42.968  -8.865  12.593  1.00  0.00     0.002 A 
HETATM   24  C   UNL     1      43.203 -10.123  12.045  1.00  0.00     0.001 A 
HETATM   25  C   UNL     1      43.446 -10.256  10.677  1.00  0.00     0.010 A 
ENDBRANCH  18  19
ENDBRANCH  15  18
ENDBRANCH  10  14
BRANCH   1  26
HETATM   26  C   UNL     1      41.482 -16.618   3.490  1.00  0.00     0.103 C 
BRANCH  26  27
HETATM   27  S   UNL     1      43.236 -16.750   3.001  1.00  0.00    -0.162 SA
BRANCH  27  28
HETATM   28  C   UNL     1      43.241 -15.692   1.518  1.00  0.00     0.112 C 
BRANCH  28  29
HETATM   29  C   UNL     1      42.693 -14.317   1.826  1.00  0.00    -0.043 A 
HETATM   30  C   UNL     1      41.482 -13.843   1.274  1.00  0.00    -0.055 A 
HETATM   31  C   UNL     1      40.640 -14.688   0.355  1.00  0.00     0.049 C 
HETATM   32  C   UNL     1      41.038 -12.551   1.602  1.00  0.00     0.007 A 
HETATM   33  C   UNL     1      41.783 -11.728   2.444  1.00  0.00     0.001 A 
HETATM   34  C   UNL     1      42.985 -12.184   2.974  1.00  0.00     0.001 A 
HETATM   35  C   UNL     1      43.436 -13.468   2.668  1.00  0.00     0.008 A 
ENDBRANCH  28  29
ENDBRANCH  27  28
ENDBRANCH  26  27
ENDBRANCH   1  26
TORSDOF 7
ENDMDL
MODEL 10
REMARK VINA RESULT:      -8.2      2.067      2.746
REMARK  7 active torsions:
REMARK  status: ('A' for Active; 'I' for Inactive)
REMARK    1  A    between atoms: C_3  and  C_4 
REMARK    2  A    between atoms: C_4  and  S_5 
REMARK    3  A    between atoms: S_5  and  C_6 
REMARK    4  A    between atoms: C_6  and  C_7 
REMARK    5  A    between atoms: C_16  and  C_17 
REMARK       I    between atoms: C_17  and  N_18 
REMARK    6  A    between atoms: N_18  and  C_19 
REMARK    7  A    between atoms: C_19  and  C_20 
ROOT
HETATM    1  C   UNL     1      40.097 -13.565   3.607  1.00  0.00     0.162 C 
HETATM    2  N   UNL     1      39.413 -14.103   2.399  1.00  0.00    -0.277 NA
HETATM    3  C   UNL     1      39.839 -13.532   1.185  1.00  0.00     0.036 A 
HETATM    4  C   UNL     1      40.349 -12.220   1.136  1.00  0.00     0.057 A 
HETATM    5  N   UNL     1      40.484 -11.485   2.322  1.00  0.00    -0.324 N 
HETATM    6  C   UNL     1      40.223 -12.032   3.555  1.00  0.00     0.240 C 
HETATM    7  O   UNL     1      40.176 -11.322   4.558  1.00  0.00    -0.271 OA
HETATM    8  C   UNL     1      39.607 -14.203  -0.019  1.00  0.00     0.027 A 
HETATM    9  C   UNL     1      39.960 -13.615  -1.237  1.00  0.00     0.019 A 
HETATM   10  C   UNL     1      40.527 -12.335  -1.266  1.00  0.00     0.034 A 
HETATM   11  C   UNL     1      40.693 -11.620  -0.075  1.00  0.00     0.048 A 
HETATM   12  H   UNL     1      39.365 -15.117   2.367  1.00  0.00     0.128 HD
HETATM   13  H   UNL     1      40.671 -10.492   2.301  1.00  0.00     0.169 HD
ENDROOT
BRANCH  10  14
HETATM   14  C   UNL     1      40.904 -11.751  -2.581  1.00  0.00     0.252 C 
HETATM   15  N   UNL     1      40.781 -10.386  -2.690  1.00  0.00    -0.353 N 
HETATM   16  H   UNL     1      40.539  -9.824  -1.886  1.00  0.00     0.163 HD
HETATM   17  O   UNL     1      41.323 -12.470  -3.481  1.00  0.00    -0.268 OA
BRANCH  15  18
HETATM   18  C   UNL     1      41.045  -9.713  -3.940  1.00  0.00     0.163 C 
BRANCH  18  19
HETATM   19  C   UNL     1      41.601  -8.331  -3.712  1.00  0.00    -0.019 A 
HETATM   20  C   UNL     1      41.505  -7.311  -4.673  1.00  0.00     0.042 A 
HETATM   21 CL   UNL     1      40.734  -7.565  -6.198  1.00  0.00    -0.084 Cl
HETATM   22  C   UNL     1      42.020  -6.037  -4.412  1.00  0.00     0.024 A 
HETATM   23  C   UNL     1      42.633  -5.764  -3.191  1.00  0.00     0.002 A 
HETATM   24  C   UNL     1      42.730  -6.764  -2.226  1.00  0.00     0.001 A 
HETATM   25  C   UNL     1      42.216  -8.035  -2.483  1.00  0.00     0.010 A 
ENDBRANCH  18  19
ENDBRANCH  15  18
ENDBRANCH  10  14
BRANCH   1  26
HETATM   26  C   UNL     1      41.474 -14.244   3.761  1.00  0.00     0.103 C 
BRANCH  26  27
HETATM   27  S   UNL     1      41.511 -16.050   4.033  1.00  0.00    -0.162 SA
BRANCH  27  28
HETATM   28  C   UNL     1      43.031 -16.484   3.127  1.00  0.00     0.112 C 
BRANCH  28  29
HETATM   29  C   UNL     1      43.346 -17.956   3.263  1.00  0.00    -0.043 A 
HETATM   30  C   UNL     1      43.945 -18.499   4.421  1.00  0.00    -0.055 A 
HETATM   31  C   UNL     1      44.290 -17.648   5.614  1.00  0.00     0.049 C 
HETATM   32  C   UNL     1      44.214 -19.877   4.473  1.00  0.00     0.007 A 
HETATM   33  C   UNL     1      43.917 -20.707   3.394  1.00  0.00     0.001 A 
HETATM   34  C   UNL     1      43.346 -20.173   2.244  1.00  0.00     0.001 A 
HETATM   35  C   UNL     1      43.063 -18.809   2.179  1.00  0.00     0.008 A 
ENDBRANCH  28  29
ENDBRANCH  27  28
ENDBRANCH  26  27
ENDBRANCH   1  26
TORSDOF 7
ENDMDL
