MODEL 1
REMARK VINA RESULT:      -8.1      0.000      0.000
REMARK  6 active torsions:
REMARK  status: ('A' for Active; 'I' for Inactive)
REMARK    1  A    between atoms: C_2  and  O_3 
REMARK    2  A    between atoms: O_3  and  C_4 
REMARK    3  A    between atoms: C_7  and  N_8 
REMARK    4  A    between atoms: C_9  and  O_10 
REMARK    5  A    between atoms: C_9  and  C_11 
REMARK       I    between atoms: C_11  and  N_12 
REMARK    6  A    between atoms: N_12  and  C_13 
ROOT
HETATM    1  N   UNL     1      43.404 -12.500   4.898  1.00  0.00    -0.254 N 
HETATM    2  C   UNL     1      42.671 -13.752   5.126  1.00  0.00     0.256 C 
HETATM    3  C   UNL     1      43.032 -14.762   4.059  1.00  0.00     0.035 A 
HETATM    4  C   UNL     1      43.156 -14.261   2.765  1.00  0.00     0.048 A 
HETATM    5  N   UNL     1      43.115 -12.878   2.593  1.00  0.00    -0.308 N 
HETATM    6  C   UNL     1      43.339 -11.970   3.606  1.00  0.00     0.330 C 
HETATM    7  O   UNL     1      43.560 -10.805   3.279  1.00  0.00    -0.246 OA
HETATM    8  C   UNL     1      43.144 -16.143   4.275  1.00  0.00     0.034 A 
HETATM    9  C   UNL     1      43.358 -16.995   3.190  1.00  0.00     0.011 A 
HETATM   10 BR   UNL     1      43.509 -18.857   3.478  1.00  0.00    -0.051 Br
HETATM   11  C   UNL     1      43.446 -16.486   1.893  1.00  0.00     0.021 A 
HETATM   12  C   UNL     1      43.339 -15.110   1.678  1.00  0.00     0.031 A 
HETATM   13  H   UNL     1      43.204 -12.479   1.667  1.00  0.00     0.170 HD
ENDROOT
BRANCH   1  14
HETATM   14  C   UNL     1      43.919 -11.723   5.980  1.00  0.00     0.043 A 
HETATM   15  C   UNL     1      43.113 -10.837   6.700  1.00  0.00     0.032 A 
HETATM   16  C   UNL     1      43.652 -10.052   7.726  1.00  0.00     0.039 A 
HETATM   17  C   UNL     1      45.009 -10.125   8.044  1.00  0.00     0.068 A 
HETATM   18  C   UNL     1      45.825 -10.992   7.322  1.00  0.00     0.039 A 
HETATM   19  C   UNL     1      45.283 -11.778   6.297  1.00  0.00     0.032 A 
BRANCH  17  20
HETATM   20  O   UNL     1      45.409  -9.299   9.057  1.00  0.00    -0.352 OA
BRANCH  20  21
HETATM   21  C   UNL     1      45.262  -9.789  10.389  1.00  0.00     0.171 C 
HETATM   22  C   UNL     1      44.160  -8.992  11.064  1.00  0.00     0.034 C 
ENDBRANCH  20  21
ENDBRANCH  17  20
ENDBRANCH   1  14
BRANCH   2  23
HETATM   23  O   UNL     1      42.943 -14.322   6.409  1.00  0.00    -0.359 OA
HETATM   24  H   UNL     1      43.419 -15.151   6.207  1.00  0.00     0.213 HD
ENDBRANCH   2  23
BRANCH   2  25
HETATM   25  C   UNL     1      41.117 -13.409   5.150  1.00  0.00     0.279 C 
HETATM   26  N   UNL     1      40.682 -12.493   6.096  1.00  0.00    -0.352 N 
HETATM   27  H   UNL     1      41.342 -12.090   6.750  1.00  0.00     0.163 HD
HETATM   28  O   UNL     1      40.346 -13.863   4.296  1.00  0.00    -0.268 OA
BRANCH  26  29
HETATM   29  C   UNL     1      39.313 -12.104   6.213  1.00  0.00     0.084 A 
HETATM   30  C   UNL     1      38.919 -10.968   7.116  1.00  0.00     0.027 A 
HETATM   31  C   UNL     1      38.836 -10.802   5.628  1.00  0.00     0.027 A 
ENDBRANCH  26  29
ENDBRANCH   2  25
TORSDOF 6
ENDMDL
MODEL 2
REMARK VINA RESULT:      -7.9      3.064      4.828
REMARK  6 active torsions:
REMARK  status: ('A' for Active; 'I' for Inactive)
REMARK    1  A    between atoms: C_2  and  O_3 
REMARK    2  A    between atoms: O_3  and  C_4 
REMARK    3  A    between atoms: C_7  and  N_8 
REMARK    4  A    between atoms: C_9  and  O_10 
REMARK    5  A    between atoms: C_9  and  C_11 
REMARK       I    between atoms: C_11  and  N_12 
REMARK    6  A    between atoms: N_12  and  C_13 
ROOT
HETATM    1  N   UNL     1      41.270 -12.890   4.155  1.00  0.00    -0.254 N 
HETATM    2  C   UNL     1      41.686 -13.495   2.883  1.00  0.00     0.256 C 
HETATM    3  C   UNL     1      40.849 -12.943   1.751  1.00  0.00     0.035 A 
HETATM    4  C   UNL     1      39.493 -12.777   2.024  1.00  0.00     0.048 A 
HETATM    5  N   UNL     1      39.064 -12.958   3.338  1.00  0.00    -0.308 N 
HETATM    6  C   UNL     1      39.900 -12.915   4.433  1.00  0.00     0.330 C 
HETATM    7  O   UNL     1      39.373 -12.800   5.539  1.00  0.00    -0.246 OA
HETATM    8  C   UNL     1      41.324 -12.695   0.455  1.00  0.00     0.034 A 
HETATM    9  C   UNL     1      40.431 -12.305  -0.544  1.00  0.00     0.011 A 
HETATM   10 BR   UNL     1      41.069 -11.970  -2.291  1.00  0.00    -0.051 Br
HETATM   11  C   UNL     1      39.069 -12.175  -0.268  1.00  0.00     0.021 A 
HETATM   12  C   UNL     1      38.594 -12.418   1.023  1.00  0.00     0.031 A 
HETATM   13  H   UNL     1      38.085 -12.844   3.573  1.00  0.00     0.170 HD
ENDROOT
BRANCH   1  14
HETATM   14  C   UNL     1      42.214 -12.549   5.171  1.00  0.00     0.043 A 
HETATM   15  C   UNL     1      42.723 -13.505   6.054  1.00  0.00     0.032 A 
HETATM   16  C   UNL     1      43.613 -13.137   7.070  1.00  0.00     0.039 A 
HETATM   17  C   UNL     1      43.999 -11.806   7.236  1.00  0.00     0.068 A 
HETATM   18  C   UNL     1      43.485 -10.843   6.371  1.00  0.00     0.039 A 
HETATM   19  C   UNL     1      42.596 -11.214   5.353  1.00  0.00     0.032 A 
BRANCH  17  20
HETATM   20  O   UNL     1      44.862 -11.580   8.271  1.00  0.00    -0.352 OA
BRANCH  20  21
HETATM   21  C   UNL     1      45.574 -10.344   8.264  1.00  0.00     0.171 C 
HETATM   22  C   UNL     1      45.449  -9.721   9.643  1.00  0.00     0.034 C 
ENDBRANCH  20  21
ENDBRANCH  17  20
ENDBRANCH   1  14
BRANCH   2  23
HETATM   23  O   UNL     1      43.066 -13.260   2.590  1.00  0.00    -0.359 OA
HETATM   24  H   UNL     1      43.052 -12.551   1.918  1.00  0.00     0.213 HD
ENDBRANCH   2  23
BRANCH   2  25
HETATM   25  C   UNL     1      41.561 -15.075   3.030  1.00  0.00     0.279 C 
HETATM   26  N   UNL     1      42.698 -15.770   3.416  1.00  0.00    -0.352 N 
HETATM   27  H   UNL     1      43.567 -15.273   3.568  1.00  0.00     0.163 HD
HETATM   28  O   UNL     1      40.472 -15.647   2.905  1.00  0.00    -0.268 OA
BRANCH  26  29
HETATM   29  C   UNL     1      42.709 -17.188   3.584  1.00  0.00     0.084 A 
HETATM   30  C   UNL     1      43.497 -18.060   2.646  1.00  0.00     0.027 A 
HETATM   31  C   UNL     1      43.949 -17.891   4.066  1.00  0.00     0.027 A 
ENDBRANCH  26  29
ENDBRANCH   2  25
TORSDOF 6
ENDMDL
MODEL 3
REMARK VINA RESULT:      -7.7      3.620      7.075
REMARK  6 active torsions:
REMARK  status: ('A' for Active; 'I' for Inactive)
REMARK    1  A    between atoms: C_2  and  O_3 
REMARK    2  A    between atoms: O_3  and  C_4 
REMARK    3  A    between atoms: C_7  and  N_8 
REMARK    4  A    between atoms: C_9  and  O_10 
REMARK    5  A    between atoms: C_9  and  C_11 
REMARK       I    between atoms: C_11  and  N_12 
REMARK    6  A    between atoms: N_12  and  C_13 
ROOT
HETATM    1  N   UNL     1      40.947 -13.550   2.177  1.00  0.00    -0.254 N 
HETATM    2  C   UNL     1      42.297 -13.882   2.653  1.00  0.00     0.256 C 
HETATM    3  C   UNL     1      42.230 -15.036   3.627  1.00  0.00     0.035 A 
HETATM    4  C   UNL     1      41.168 -15.009   4.529  1.00  0.00     0.048 A 
HETATM    5  N   UNL     1      40.181 -14.043   4.347  1.00  0.00    -0.308 N 
HETATM    6  C   UNL     1      39.970 -13.372   3.160  1.00  0.00     0.330 C 
HETATM    7  O   UNL     1      38.906 -12.768   3.037  1.00  0.00    -0.246 OA
HETATM    8  C   UNL     1      43.200 -16.043   3.739  1.00  0.00     0.034 A 
HETATM    9  C   UNL     1      43.099 -16.988   4.760  1.00  0.00     0.011 A 
HETATM   10 BR   UNL     1      44.405 -18.345   4.912  1.00  0.00    -0.051 Br
HETATM   11  C   UNL     1      42.050 -16.931   5.679  1.00  0.00     0.021 A 
HETATM   12  C   UNL     1      41.080 -15.933   5.567  1.00  0.00     0.031 A 
HETATM   13  H   UNL     1      39.393 -13.995   4.981  1.00  0.00     0.170 HD
ENDROOT
BRANCH   1  14
HETATM   14  C   UNL     1      40.702 -13.158   0.826  1.00  0.00     0.043 A 
HETATM   15  C   UNL     1      40.916 -11.849   0.387  1.00  0.00     0.032 A 
HETATM   16  C   UNL     1      40.625 -11.479  -0.931  1.00  0.00     0.039 A 
HETATM   17  C   UNL     1      40.097 -12.405  -1.834  1.00  0.00     0.068 A 
HETATM   18  C   UNL     1      39.864 -13.708  -1.402  1.00  0.00     0.039 A 
HETATM   19  C   UNL     1      40.159 -14.077  -0.083  1.00  0.00     0.032 A 
BRANCH  17  20
HETATM   20  O   UNL     1      39.847 -11.913  -3.084  1.00  0.00    -0.352 OA
BRANCH  20  21
HETATM   21  C   UNL     1      39.157 -10.668  -3.164  1.00  0.00     0.171 C 
HETATM   22  C   UNL     1      37.685 -10.926  -2.895  1.00  0.00     0.034 C 
ENDBRANCH  20  21
ENDBRANCH  17  20
ENDBRANCH   1  14
BRANCH   2  23
HETATM   23  O   UNL     1      43.184 -14.231   1.587  1.00  0.00    -0.359 OA
HETATM   24  H   UNL     1      43.608 -15.058   1.889  1.00  0.00     0.213 HD
ENDBRANCH   2  23
BRANCH   2  25
HETATM   25  C   UNL     1      42.924 -12.567   3.295  1.00  0.00     0.279 C 
HETATM   26  N   UNL     1      43.352 -12.645   4.613  1.00  0.00    -0.352 N 
HETATM   27  H   UNL     1      43.237 -13.507   5.131  1.00  0.00     0.163 HD
HETATM   28  O   UNL     1      43.116 -11.551   2.618  1.00  0.00    -0.268 OA
BRANCH  26  29
HETATM   29  C   UNL     1      43.934 -11.534   5.296  1.00  0.00     0.084 A 
HETATM   30  C   UNL     1      43.629 -11.289   6.747  1.00  0.00     0.027 A 
HETATM   31  C   UNL     1      44.996 -11.750   6.339  1.00  0.00     0.027 A 
ENDBRANCH  26  29
ENDBRANCH   2  25
TORSDOF 6
ENDMDL
MODEL 4
REMARK VINA RESULT:      -7.5      4.143      6.265
REMARK  6 active torsions:
REMARK  status: ('A' for Active; 'I' for Inactive)
REMARK    1  A    between atoms: C_2  and  O_3 
REMARK    2  A    between atoms: O_3  and  C_4 
REMARK    3  A    between atoms: C_7  and  N_8 
REMARK    4  A    between atoms: C_9  and  O_10 
REMARK    5  A    between atoms: C_9  and  C_11 
REMARK       I    between atoms: C_11  and  N_12 
REMARK    6  A    between atoms: N_12  and  C_13 
ROOT
HETATM    1  N   UNL     1      41.771 -14.464   2.152  1.00  0.00    -0.254 N 
HETATM    2  C   UNL     1      40.375 -14.470   1.696  1.00  0.00     0.256 C 
HETATM    3  C   UNL     1      40.286 -13.889   0.302  1.00  0.00     0.035 A 
HETATM    4  C   UNL     1      41.087 -12.777   0.055  1.00  0.00     0.048 A 
HETATM    5  N   UNL     1      42.014 -12.410   1.029  1.00  0.00    -0.308 N 
HETATM    6  C   UNL     1      42.460 -13.254   2.024  1.00  0.00     0.330 C 
HETATM    7  O   UNL     1      43.473 -12.918   2.636  1.00  0.00    -0.246 OA
HETATM    8  C   UNL     1      39.397 -14.329  -0.689  1.00  0.00     0.034 A 
HETATM    9  C   UNL     1      39.314 -13.636  -1.897  1.00  0.00     0.011 A 
HETATM   10 BR   UNL     1      38.116 -14.227  -3.235  1.00  0.00    -0.051 Br
HETATM   11  C   UNL     1      40.097 -12.502  -2.121  1.00  0.00     0.021 A 
HETATM   12  C   UNL     1      40.986 -12.066  -1.137  1.00  0.00     0.031 A 
HETATM   13  H   UNL     1      42.615 -11.608   0.883  1.00  0.00     0.170 HD
ENDROOT
BRANCH   1  14
HETATM   14  C   UNL     1      42.312 -15.532   2.930  1.00  0.00     0.043 A 
HETATM   15  C   UNL     1      42.300 -15.507   4.327  1.00  0.00     0.032 A 
HETATM   16  C   UNL     1      42.877 -16.545   5.067  1.00  0.00     0.039 A 
HETATM   17  C   UNL     1      43.494 -17.621   4.428  1.00  0.00     0.068 A 
HETATM   18  C   UNL     1      43.527 -17.649   3.036  1.00  0.00     0.039 A 
HETATM   19  C   UNL     1      42.946 -16.610   2.297  1.00  0.00     0.032 A 
BRANCH  17  20
HETATM   20  O   UNL     1      44.028 -18.560   5.265  1.00  0.00    -0.352 OA
BRANCH  20  21
HETATM   21  C   UNL     1      44.418 -19.802   4.681  1.00  0.00     0.171 C 
HETATM   22  C   UNL     1      43.878 -20.922   5.552  1.00  0.00     0.034 C 
ENDBRANCH  20  21
ENDBRANCH  17  20
ENDBRANCH   1  14
BRANCH   2  23
HETATM   23  O   UNL     1      39.807 -15.782   1.684  1.00  0.00    -0.359 OA
HETATM   24  H   UNL     1      39.338 -15.833   0.829  1.00  0.00     0.213 HD
ENDBRANCH   2  23
BRANCH   2  25
HETATM   25  C   UNL     1      39.511 -13.658   2.759  1.00  0.00     0.279 C 
HETATM   26  N   UNL     1      40.034 -13.529   4.038  1.00  0.00    -0.352 N 
HETATM   27  H   UNL     1      40.920 -13.963   4.268  1.00  0.00     0.163 HD
HETATM   28  O   UNL     1      38.468 -13.081   2.432  1.00  0.00    -0.268 OA
BRANCH  26  29
HETATM   29  C   UNL     1      39.354 -12.821   5.075  1.00  0.00     0.084 A 
HETATM   30  C   UNL     1      40.031 -12.565   6.393  1.00  0.00     0.027 A 
HETATM   31  C   UNL     1      39.774 -11.426   5.451  1.00  0.00     0.027 A 
ENDBRANCH  26  29
ENDBRANCH   2  25
TORSDOF 6
ENDMDL
MODEL 5
REMARK VINA RESULT:      -7.3      3.816      6.899
REMARK  6 active torsions:
REMARK  status: ('A' for Active; 'I' for Inactive)
REMARK    1  A    between atoms: C_2  and  O_3 
REMARK    2  A    between atoms: O_3  and  C_4 
REMARK    3  A    between atoms: C_7  and  N_8 
REMARK    4  A    between atoms: C_9  and  O_10 
REMARK    5  A    between atoms: C_9  and  C_11 
REMARK       I    between atoms: C_11  and  N_12 
REMARK    6  A    between atoms: N_12  and  C_13 
ROOT
HETATM    1  N   UNL     1      41.322 -13.891   5.333  1.00  0.00    -0.254 N 
HETATM    2  C   UNL     1      41.326 -12.706   4.465  1.00  0.00     0.256 C 
HETATM    3  C   UNL     1      41.021 -11.469   5.280  1.00  0.00     0.035 A 
HETATM    4  C   UNL     1      40.031 -11.610   6.250  1.00  0.00     0.048 A 
HETATM    5  N   UNL     1      39.543 -12.890   6.505  1.00  0.00    -0.308 N 
HETATM    6  C   UNL     1      40.206 -14.049   6.160  1.00  0.00     0.330 C 
HETATM    7  O   UNL     1      39.824 -15.094   6.686  1.00  0.00    -0.246 OA
HETATM    8  C   UNL     1      41.586 -10.206   5.054  1.00  0.00     0.034 A 
HETATM    9  C   UNL     1      41.135  -9.108   5.787  1.00  0.00     0.011 A 
HETATM   10 BR   UNL     1      41.895  -7.404   5.483  1.00  0.00    -0.051 Br
HETATM   11  C   UNL     1      40.118  -9.253   6.733  1.00  0.00     0.021 A 
HETATM   12  C   UNL     1      39.558 -10.511   6.963  1.00  0.00     0.031 A 
HETATM   13  H   UNL     1      38.825 -13.031   7.205  1.00  0.00     0.170 HD
ENDROOT
BRANCH   1  14
HETATM   14  C   UNL     1      42.252 -14.959   5.152  1.00  0.00     0.043 A 
HETATM   15  C   UNL     1      42.118 -15.885   4.114  1.00  0.00     0.032 A 
HETATM   16  C   UNL     1      43.018 -16.950   3.985  1.00  0.00     0.039 A 
HETATM   17  C   UNL     1      44.059 -17.122   4.899  1.00  0.00     0.068 A 
HETATM   18  C   UNL     1      44.192 -16.214   5.946  1.00  0.00     0.039 A 
HETATM   19  C   UNL     1      43.292 -15.147   6.072  1.00  0.00     0.032 A 
BRANCH  17  20
HETATM   20  O   UNL     1      44.858 -18.206   4.666  1.00  0.00    -0.352 OA
BRANCH  20  21
HETATM   21  C   UNL     1      44.213 -19.408   4.250  1.00  0.00     0.171 C 
HETATM   22  C   UNL     1      44.010 -20.281   5.476  1.00  0.00     0.034 C 
ENDBRANCH  20  21
ENDBRANCH  17  20
ENDBRANCH   1  14
BRANCH   2  23
HETATM   23  O   UNL     1      42.577 -12.519   3.798  1.00  0.00    -0.359 OA
HETATM   24  H   UNL     1      43.234 -12.498   4.520  1.00  0.00     0.213 HD
ENDBRANCH   2  23
BRANCH   2  25
HETATM   25  C   UNL     1      40.271 -12.952   3.299  1.00  0.00     0.279 C 
HETATM   26  N   UNL     1      40.761 -13.404   2.083  1.00  0.00    -0.352 N 
HETATM   27  H   UNL     1      41.757 -13.542   1.959  1.00  0.00     0.163 HD
HETATM   28  O   UNL     1      39.056 -12.843   3.499  1.00  0.00    -0.268 OA
BRANCH  26  29
HETATM   29  C   UNL     1      39.913 -13.664   0.963  1.00  0.00     0.084 A 
HETATM   30  C   UNL     1      40.492 -13.787  -0.418  1.00  0.00     0.027 A 
HETATM   31  C   UNL     1      39.946 -15.001   0.274  1.00  0.00     0.027 A 
ENDBRANCH  26  29
ENDBRANCH   2  25
TORSDOF 6
ENDMDL
MODEL 6
REMARK VINA RESULT:      -7.2      3.213      7.115
REMARK  6 active torsions:
REMARK  status: ('A' for Active; 'I' for Inactive)
REMARK    1  A    between atoms: C_2  and  O_3 
REMARK    2  A    between atoms: O_3  and  C_4 
REMARK    3  A    between atoms: C_7  and  N_8 
REMARK    4  A    between atoms: C_9  and  O_10 
REMARK    5  A    between atoms: C_9  and  C_11 
REMARK       I    between atoms: C_11  and  N_12 
REMARK    6  A    between atoms: N_12  and  C_13 
ROOT
HETATM    1  N   UNL     1      42.034 -11.730   4.316  1.00  0.00    -0.254 N 
HETATM    2  C   UNL     1      42.174 -11.341   5.725  1.00  0.00     0.256 C 
HETATM    3  C   UNL     1      41.337 -10.113   6.007  1.00  0.00     0.035 A 
HETATM    4  C   UNL     1      41.345  -9.133   5.017  1.00  0.00     0.048 A 
HETATM    5  N   UNL     1      41.961  -9.434   3.804  1.00  0.00    -0.308 N 
HETATM    6  C   UNL     1      42.224 -10.717   3.372  1.00  0.00     0.330 C 
HETATM    7  O   UNL     1      42.499 -10.865   2.182  1.00  0.00    -0.246 OA
HETATM    8  C   UNL     1      40.661  -9.869   7.211  1.00  0.00     0.034 A 
HETATM    9  C   UNL     1      40.023  -8.643   7.406  1.00  0.00     0.011 A 
HETATM   10 BR   UNL     1      39.110  -8.312   9.028  1.00  0.00    -0.051 Br
HETATM   11  C   UNL     1      40.066  -7.655   6.422  1.00  0.00     0.021 A 
HETATM   12  C   UNL     1      40.735  -7.898   5.221  1.00  0.00     0.031 A 
HETATM   13  H   UNL     1      41.984  -8.746   3.061  1.00  0.00     0.170 HD
ENDROOT
BRANCH   1  14
HETATM   14  C   UNL     1      41.983 -13.100   3.915  1.00  0.00     0.043 A 
HETATM   15  C   UNL     1      40.774 -13.791   3.800  1.00  0.00     0.032 A 
HETATM   16  C   UNL     1      40.755 -15.146   3.450  1.00  0.00     0.039 A 
HETATM   17  C   UNL     1      41.943 -15.843   3.225  1.00  0.00     0.068 A 
HETATM   18  C   UNL     1      43.155 -15.169   3.353  1.00  0.00     0.039 A 
HETATM   19  C   UNL     1      43.172 -13.812   3.701  1.00  0.00     0.032 A 
BRANCH  17  20
HETATM   20  O   UNL     1      41.786 -17.162   2.902  1.00  0.00    -0.352 OA
BRANCH  20  21
HETATM   21  C   UNL     1      42.837 -17.777   2.159  1.00  0.00     0.171 C 
HETATM   22  C   UNL     1      43.598 -18.698   3.096  1.00  0.00     0.034 C 
ENDBRANCH  20  21
ENDBRANCH  17  20
ENDBRANCH   1  14
BRANCH   2  23
HETATM   23  O   UNL     1      41.780 -12.382   6.623  1.00  0.00    -0.359 OA
HETATM   24  H   UNL     1      42.428 -12.328   7.353  1.00  0.00     0.213 HD
ENDBRANCH   2  23
BRANCH   2  25
HETATM   25  C   UNL     1      43.723 -11.113   6.016  1.00  0.00     0.279 C 
HETATM   26  N   UNL     1      44.112 -11.010   7.343  1.00  0.00    -0.352 N 
HETATM   27  H   UNL     1      43.418 -11.057   8.079  1.00  0.00     0.163 HD
HETATM   28  O   UNL     1      44.556 -11.128   5.103  1.00  0.00    -0.268 OA
BRANCH  26  29
HETATM   29  C   UNL     1      45.473 -10.807   7.729  1.00  0.00     0.084 A 
HETATM   30  C   UNL     1      46.025  -9.416   7.868  1.00  0.00     0.027 A 
HETATM   31  C   UNL     1      45.807 -10.258   9.089  1.00  0.00     0.027 A 
ENDBRANCH  26  29
ENDBRANCH   2  25
TORSDOF 6
ENDMDL
MODEL 7
REMARK VINA RESULT:      -7.2      3.491      6.872
REMARK  6 active torsions:
REMARK  status: ('A' for Active; 'I' for Inactive)
REMARK    1  A    between atoms: C_2  and  O_3 
REMARK    2  A    between atoms: O_3  and  C_4 
REMARK    3  A    between atoms: C_7  and  N_8 
REMARK    4  A    between atoms: C_9  and  O_10 
REMARK    5  A    between atoms: C_9  and  C_11 
REMARK       I    between atoms: C_11  and  N_12 
REMARK    6  A    between atoms: N_12  and  C_13 
ROOT
HETATM    1  N   UNL     1      43.541 -11.188   5.274  1.00  0.00    -0.254 N 
HETATM    2  C   UNL     1      43.099 -11.496   6.641  1.00  0.00     0.256 C 
HETATM    3  C   UNL     1      43.913 -10.702   7.638  1.00  0.00     0.035 A 
HETATM    4  C   UNL     1      45.275 -10.596   7.361  1.00  0.00     0.048 A 
HETATM    5  N   UNL     1      45.730 -11.063   6.129  1.00  0.00    -0.308 N 
HETATM    6  C   UNL     1      44.916 -11.268   5.036  1.00  0.00     0.330 C 
HETATM    7  O   UNL     1      45.464 -11.401   3.943  1.00  0.00    -0.246 OA
HETATM    8  C   UNL     1      43.412 -10.174   8.836  1.00  0.00     0.034 A 
HETATM    9  C   UNL     1      44.285  -9.567   9.740  1.00  0.00     0.011 A 
HETATM   10 BR   UNL     1      43.612  -8.854  11.355  1.00  0.00    -0.051 Br
HETATM   11  C   UNL     1      45.653  -9.496   9.469  1.00  0.00     0.021 A 
HETATM   12  C   UNL     1      46.153 -10.018   8.274  1.00  0.00     0.031 A 
HETATM   13  H   UNL     1      46.713 -10.999   5.893  1.00  0.00     0.170 HD
ENDROOT
BRANCH   1  14
HETATM   14  C   UNL     1      42.617 -11.087   4.190  1.00  0.00     0.043 A 
HETATM   15  C   UNL     1      42.374 -12.158   3.326  1.00  0.00     0.032 A 
HETATM   16  C   UNL     1      41.498 -12.019   2.243  1.00  0.00     0.039 A 
HETATM   17  C   UNL     1      40.860 -10.803   1.991  1.00  0.00     0.068 A 
HETATM   18  C   UNL     1      41.107  -9.725   2.836  1.00  0.00     0.039 A 
HETATM   19  C   UNL     1      41.983  -9.866   3.921  1.00  0.00     0.032 A 
BRANCH  17  20
HETATM   20  O   UNL     1      40.040 -10.798   0.898  1.00  0.00    -0.352 OA
BRANCH  20  21
HETATM   21  C   UNL     1      40.514 -11.464  -0.271  1.00  0.00     0.171 C 
HETATM   22  C   UNL     1      41.164 -10.429  -1.172  1.00  0.00     0.034 C 
ENDBRANCH  20  21
ENDBRANCH  17  20
ENDBRANCH   1  14
BRANCH   2  23
HETATM   23  O   UNL     1      41.713 -11.208   6.847  1.00  0.00    -0.359 OA
HETATM   24  H   UNL     1      41.492 -10.574   6.139  1.00  0.00     0.213 HD
ENDBRANCH   2  23
BRANCH   2  25
HETATM   25  C   UNL     1      43.227 -13.069   6.852  1.00  0.00     0.279 C 
HETATM   26  N   UNL     1      42.084 -13.832   6.659  1.00  0.00    -0.352 N 
HETATM   27  H   UNL     1      41.210 -13.381   6.418  1.00  0.00     0.163 HD
HETATM   28  O   UNL     1      44.320 -13.599   7.079  1.00  0.00    -0.268 OA
BRANCH  26  29
HETATM   29  C   UNL     1      42.076 -15.251   6.817  1.00  0.00     0.084 A 
HETATM   30  C   UNL     1      40.804 -16.031   6.625  1.00  0.00     0.027 A 
HETATM   31  C   UNL     1      41.913 -16.151   5.622  1.00  0.00     0.027 A 
ENDBRANCH  26  29
ENDBRANCH   2  25
TORSDOF 6
ENDMDL
MODEL 8
REMARK VINA RESULT:      -7.2     17.202     18.933
REMARK  6 active torsions:
REMARK  status: ('A' for Active; 'I' for Inactive)
REMARK    1  A    between atoms: C_2  and  O_3 
REMARK    2  A    between atoms: O_3  and  C_4 
REMARK    3  A    between atoms: C_7  and  N_8 
REMARK    4  A    between atoms: C_9  and  O_10 
REMARK    5  A    between atoms: C_9  and  C_11 
REMARK       I    between atoms: C_11  and  N_12 
REMARK    6  A    between atoms: N_12  and  C_13 
ROOT
HETATM    1  N   UNL     1      46.084 -29.832   0.630  1.00  0.00    -0.254 N 
HETATM    2  C   UNL     1      44.987 -30.391  -0.172  1.00  0.00     0.256 C 
HETATM    3  C   UNL     1      45.034 -29.827  -1.575  1.00  0.00     0.035 A 
HETATM    4  C   UNL     1      45.339 -28.471  -1.674  1.00  0.00     0.048 A 
HETATM    5  N   UNL     1      45.742 -27.805  -0.518  1.00  0.00    -0.308 N 
HETATM    6  C   UNL     1      46.219 -28.441   0.609  1.00  0.00     0.330 C 
HETATM    7  O   UNL     1      46.804 -27.748   1.440  1.00  0.00    -0.246 OA
HETATM    8  C   UNL     1      44.699 -30.543  -2.733  1.00  0.00     0.034 A 
HETATM    9  C   UNL     1      44.657 -29.884  -3.962  1.00  0.00     0.011 A 
HETATM   10 BR   UNL     1      44.205 -30.846  -5.525  1.00  0.00    -0.051 Br
HETATM   11  C   UNL     1      44.931 -28.517  -4.046  1.00  0.00     0.021 A 
HETATM   12  C   UNL     1      45.269 -27.804  -2.894  1.00  0.00     0.031 A 
HETATM   13  H   UNL     1      45.974 -26.820  -0.553  1.00  0.00     0.170 HD
ENDROOT
BRANCH   1  14
HETATM   14  C   UNL     1      46.793 -30.619   1.587  1.00  0.00     0.043 A 
HETATM   15  C   UNL     1      46.337 -30.774   2.898  1.00  0.00     0.032 A 
HETATM   16  C   UNL     1      47.074 -31.513   3.830  1.00  0.00     0.039 A 
HETATM   17  C   UNL     1      48.290 -32.100   3.476  1.00  0.00     0.068 A 
HETATM   18  C   UNL     1      48.763 -31.939   2.177  1.00  0.00     0.039 A 
HETATM   19  C   UNL     1      48.022 -31.200   1.244  1.00  0.00     0.032 A 
BRANCH  17  20
HETATM   20  O   UNL     1      48.914 -32.785   4.481  1.00  0.00    -0.352 OA
BRANCH  20  21
HETATM   21  C   UNL     1      50.339 -32.728   4.515  1.00  0.00     0.171 C 
HETATM   22  C   UNL     1      50.743 -31.516   5.336  1.00  0.00     0.034 C 
ENDBRANCH  20  21
ENDBRANCH  17  20
ENDBRANCH   1  14
BRANCH   2  23
HETATM   23  O   UNL     1      45.036 -31.818  -0.249  1.00  0.00    -0.359 OA
HETATM   24  H   UNL     1      45.404 -32.093   0.613  1.00  0.00     0.213 HD
ENDBRANCH   2  23
BRANCH   2  25
HETATM   25  C   UNL     1      43.621 -30.066   0.578  1.00  0.00     0.279 C 
HETATM   26  N   UNL     1      43.172 -30.990   1.510  1.00  0.00    -0.352 N 
HETATM   27  H   UNL     1      43.698 -31.841   1.672  1.00  0.00     0.163 HD
HETATM   28  O   UNL     1      43.037 -28.990   0.411  1.00  0.00    -0.268 OA
BRANCH  26  29
HETATM   29  C   UNL     1      41.962 -30.809   2.248  1.00  0.00     0.084 A 
HETATM   30  C   UNL     1      40.678 -31.427   1.768  1.00  0.00     0.027 A 
HETATM   31  C   UNL     1      41.348 -31.957   3.002  1.00  0.00     0.027 A 
ENDBRANCH  26  29
ENDBRANCH   2  25
TORSDOF 6
ENDMDL
MODEL 9
REMARK VINA RESULT:      -7.1      7.032     11.683
REMARK  6 active torsions:
REMARK  status: ('A' for Active; 'I' for Inactive)
REMARK    1  A    between atoms: C_2  and  O_3 
REMARK    2  A    between atoms: O_3  and  C_4 
REMARK    3  A    between atoms: C_7  and  N_8 
REMARK    4  A    between atoms: C_9  and  O_10 
REMARK    5  A    between atoms: C_9  and  C_11 
REMARK       I    between atoms: C_11  and  N_12 
REMARK    6  A    between atoms: N_12  and  C_13 
ROOT
HETATM    1  N   UNL     1      41.663  -7.695  13.054  1.00  0.00    -0.254 N 
HETATM    2  C   UNL     1      42.182  -6.595  13.878  1.00  0.00     0.256 C 
HETATM    3  C   UNL     1      41.422  -6.527  15.185  1.00  0.00     0.035 A 
HETATM    4  C   UNL     1      40.047  -6.736  15.099  1.00  0.00     0.048 A 
HETATM    5  N   UNL     1      39.525  -7.158  13.877  1.00  0.00    -0.308 N 
HETATM    6  C   UNL     1      40.278  -7.737  12.878  1.00  0.00     0.330 C 
HETATM    7  O   UNL     1      39.669  -8.321  11.982  1.00  0.00    -0.246 OA
HETATM    8  C   UNL     1      41.988  -6.176  16.418  1.00  0.00     0.034 A 
HETATM    9  C   UNL     1      41.166  -6.023  17.535  1.00  0.00     0.011 A 
HETATM   10 BR   UNL     1      41.927  -5.549  19.199  1.00  0.00    -0.051 Br
HETATM   11  C   UNL     1      39.785  -6.201  17.431  1.00  0.00     0.021 A 
HETATM   12  C   UNL     1      39.220  -6.555  16.204  1.00  0.00     0.031 A 
HETATM   13  H   UNL     1      38.531  -7.322  13.779  1.00  0.00     0.170 HD
ENDROOT
BRANCH   1  14
HETATM   14  C   UNL     1      42.525  -8.507  12.256  1.00  0.00     0.043 A 
HETATM   15  C   UNL     1      43.145  -8.013  11.105  1.00  0.00     0.032 A 
HETATM   16  C   UNL     1      43.949  -8.842  10.314  1.00  0.00     0.039 A 
HETATM   17  C   UNL     1      44.137 -10.185  10.646  1.00  0.00     0.068 A 
HETATM   18  C   UNL     1      43.511 -10.691  11.782  1.00  0.00     0.039 A 
HETATM   19  C   UNL     1      42.708  -9.859  12.574  1.00  0.00     0.032 A 
BRANCH  17  20
HETATM   20  O   UNL     1      44.934 -10.886   9.786  1.00  0.00    -0.352 OA
BRANCH  20  21
HETATM   21  C   UNL     1      44.568 -10.874   8.408  1.00  0.00     0.171 C 
HETATM   22  C   UNL     1      45.842 -10.846   7.582  1.00  0.00     0.034 C 
ENDBRANCH  20  21
ENDBRANCH  17  20
ENDBRANCH   1  14
BRANCH   2  23
HETATM   23  O   UNL     1      43.576  -6.733  14.165  1.00  0.00    -0.359 OA
HETATM   24  H   UNL     1      43.791  -7.642  13.880  1.00  0.00     0.213 HD
ENDBRANCH   2  23
BRANCH   2  25
HETATM   25  C   UNL     1      42.068  -5.254  13.028  1.00  0.00     0.279 C 
HETATM   26  N   UNL     1      42.844  -4.177  13.432  1.00  0.00    -0.352 N 
HETATM   27  H   UNL     1      43.433  -4.258  14.252  1.00  0.00     0.163 HD
HETATM   28  O   UNL     1      41.394  -5.206  11.993  1.00  0.00    -0.268 OA
BRANCH  26  29
HETATM   29  C   UNL     1      42.830  -2.924  12.748  1.00  0.00     0.084 A 
HETATM   30  C   UNL     1      41.795  -1.886  13.082  1.00  0.00     0.027 A 
HETATM   31  C   UNL     1      43.229  -1.660  13.461  1.00  0.00     0.027 A 
ENDBRANCH  26  29
ENDBRANCH   2  25
TORSDOF 6
ENDMDL
MODEL 10
REMARK VINA RESULT:      -7.0      3.185      6.536
REMARK  6 active torsions:
REMARK  status: ('A' for Active; 'I' for Inactive)
REMARK    1  A    between atoms: C_2  and  O_3 
REMARK    2  A    between atoms: O_3  and  C_4 
REMARK    3  A    between atoms: C_7  and  N_8 
REMARK    4  A    between atoms: C_9  and  O_10 
REMARK    5  A    between atoms: C_9  and  C_11 
REMARK       I    between atoms: C_11  and  N_12 
REMARK    6  A    between atoms: N_12  and  C_13 
ROOT
HETATM    1  N   UNL     1      42.690 -12.858   4.559  1.00  0.00    -0.254 N 
HETATM    2  C   UNL     1      42.386 -11.765   5.493  1.00  0.00     0.256 C 
HETATM    3  C   UNL     1      41.491 -10.747   4.823  1.00  0.00     0.035 A 
HETATM    4  C   UNL     1      41.792 -10.455   3.494  1.00  0.00     0.048 A 
HETATM    5  N   UNL     1      42.754 -11.235   2.855  1.00  0.00    -0.308 N 
HETATM    6  C   UNL     1      43.150 -12.481   3.294  1.00  0.00     0.330 C 
HETATM    7  O   UNL     1      43.780 -13.182   2.504  1.00  0.00    -0.246 OA
HETATM    8  C   UNL     1      40.474 -10.031   5.470  1.00  0.00     0.034 A 
HETATM    9  C   UNL     1      39.795  -9.025   4.783  1.00  0.00     0.011 A 
HETATM   10 BR   UNL     1      38.424  -8.057   5.654  1.00  0.00    -0.051 Br
HETATM   11  C   UNL     1      40.128  -8.716   3.462  1.00  0.00     0.021 A 
HETATM   12  C   UNL     1      41.136  -9.432   2.815  1.00  0.00     0.031 A 
HETATM   13  H   UNL     1      42.997 -11.053   1.889  1.00  0.00     0.170 HD
ENDROOT
BRANCH   1  14
HETATM   14  C   UNL     1      42.779 -14.215   4.994  1.00  0.00     0.043 A 
HETATM   15  C   UNL     1      43.827 -14.663   5.803  1.00  0.00     0.032 A 
HETATM   16  C   UNL     1      43.917 -16.008   6.177  1.00  0.00     0.039 A 
HETATM   17  C   UNL     1      42.972 -16.938   5.738  1.00  0.00     0.068 A 
HETATM   18  C   UNL     1      41.934 -16.506   4.918  1.00  0.00     0.039 A 
HETATM   19  C   UNL     1      41.844 -15.158   4.546  1.00  0.00     0.032 A 
BRANCH  17  20
HETATM   20  O   UNL     1      43.181 -18.219   6.165  1.00  0.00    -0.352 OA
BRANCH  20  21
HETATM   21  C   UNL     1      43.980 -19.057   5.333  1.00  0.00     0.171 C 
HETATM   22  C   UNL     1      43.712 -20.500   5.724  1.00  0.00     0.034 C 
ENDBRANCH  20  21
ENDBRANCH  17  20
ENDBRANCH   1  14
BRANCH   2  23
HETATM   23  O   UNL     1      41.746 -12.225   6.686  1.00  0.00    -0.359 OA
HETATM   24  H   UNL     1      40.900 -11.738   6.708  1.00  0.00     0.213 HD
ENDBRANCH   2  23
BRANCH   2  25
HETATM   25  C   UNL     1      43.768 -11.144   5.982  1.00  0.00     0.279 C 
HETATM   26  N   UNL     1      43.799 -10.582   7.250  1.00  0.00    -0.352 N 
HETATM   27  H   UNL     1      42.958 -10.559   7.814  1.00  0.00     0.163 HD
HETATM   28  O   UNL     1      44.795 -11.248   5.302  1.00  0.00    -0.268 OA
BRANCH  26  29
HETATM   29  C   UNL     1      44.981  -9.997   7.800  1.00  0.00     0.084 A 
HETATM   30  C   UNL     1      44.883  -8.847   8.764  1.00  0.00     0.027 A 
HETATM   31  C   UNL     1      45.327 -10.194   9.251  1.00  0.00     0.027 A 
ENDBRANCH  26  29
ENDBRANCH   2  25
TORSDOF 6
ENDMDL
