MODEL 1
REMARK VINA RESULT:      -8.7      0.000      0.000
REMARK  6 active torsions:
REMARK  status: ('A' for Active; 'I' for Inactive)
REMARK    1  A    between atoms: C_2  and  O_3 
REMARK    2  A    between atoms: O_3  and  C_4 
REMARK    3  A    between atoms: C_5  and  O_6 
REMARK    4  A    between atoms: O_6  and  C_7 
REMARK    5  A    between atoms: C_7  and  C_8 
REMARK    6  A    between atoms: C_16  and  C_17 
ROOT
HETATM    1  C   UNL     1      43.381 -13.105   6.324  1.00  0.00     0.102 A 
HETATM    2  C   UNL     1      42.469 -12.261   5.682  1.00  0.00     0.102 A 
HETATM    3  C   UNL     1      42.534 -10.880   5.910  1.00  0.00     0.040 A 
HETATM    4  C   UNL     1      43.532 -10.331   6.718  1.00  0.00     0.014 A 
HETATM    5  C   UNL     1      44.500 -11.147   7.318  1.00  0.00    -0.007 A 
HETATM    6  C   UNL     1      44.389 -12.535   7.125  1.00  0.00     0.051 A 
ENDROOT
BRANCH   5   7
HETATM    7  C   UNL     1      45.576 -10.539   8.213  1.00  0.00     0.264 C 
HETATM    8  O   UNL     1      45.444 -10.967   9.580  1.00  0.00    -0.321 OA
HETATM    9  C   UNL     1      44.502 -10.268  10.289  1.00  0.00     0.087 A 
HETATM   10  C   UNL     1      44.128  -8.965   9.963  1.00  0.00     0.065 A 
HETATM   11  C   UNL     1      43.932 -10.898  11.393  1.00  0.00     0.038 A 
HETATM   12  C   UNL     1      44.817  -8.308   8.842  1.00  0.00     0.256 C 
HETATM   13  C   UNL     1      43.165  -8.292  10.717  1.00  0.00     0.020 A 
HETATM   14  O   UNL     1      44.658  -7.126   8.570  1.00  0.00    -0.267 OA
HETATM   15  N   UNL     1      45.675  -9.106   8.141  1.00  0.00    -0.326 N 
HETATM   16  H   UNL     1      46.093  -8.679   7.327  1.00  0.00     0.165 HD
HETATM   17  C   UNL     1      42.577  -8.934  11.808  1.00  0.00     0.001 A 
HETATM   18  C   UNL     1      42.963 -10.232  12.148  1.00  0.00     0.003 A 
ENDBRANCH   5   7
BRANCH   1  19
HETATM   19  O   UNL     1      43.470 -14.471   6.295  1.00  0.00    -0.349 OA
BRANCH  19  20
HETATM   20  C   UNL     1      42.964 -15.269   7.359  1.00  0.00     0.171 C 
HETATM   21  C   UNL     1      42.104 -16.410   6.842  1.00  0.00     0.034 C 
ENDBRANCH  19  20
ENDBRANCH   1  19
BRANCH   2  22
HETATM   22  O   UNL     1      41.476 -12.779   4.896  1.00  0.00    -0.344 OA
BRANCH  22  23
HETATM   23  C   UNL     1      41.749 -12.721   3.493  1.00  0.00     0.214 C 
BRANCH  23  24
HETATM   24  C   UNL     1      42.061 -14.117   3.012  1.00  0.00    -0.034 A 
HETATM   25  C   UNL     1      41.266 -15.199   3.417  1.00  0.00     0.009 A 
HETATM   26  C   UNL     1      41.555 -16.492   2.978  1.00  0.00     0.001 A 
HETATM   27  C   UNL     1      42.645 -16.717   2.137  1.00  0.00     0.000 A 
HETATM   28  C   UNL     1      43.449 -15.651   1.741  1.00  0.00     0.001 A 
HETATM   29  C   UNL     1      43.162 -14.356   2.178  1.00  0.00     0.009 A 
ENDBRANCH  23  24
ENDBRANCH  22  23
ENDBRANCH   2  22
TORSDOF 6
ENDMDL
MODEL 2
REMARK VINA RESULT:      -8.5      2.420      8.227
REMARK  6 active torsions:
REMARK  status: ('A' for Active; 'I' for Inactive)
REMARK    1  A    between atoms: C_2  and  O_3 
REMARK    2  A    between atoms: O_3  and  C_4 
REMARK    3  A    between atoms: C_5  and  O_6 
REMARK    4  A    between atoms: O_6  and  C_7 
REMARK    5  A    between atoms: C_7  and  C_8 
REMARK    6  A    between atoms: C_16  and  C_17 
ROOT
HETATM    1  C   UNL     1      42.486 -11.770   5.928  1.00  0.00     0.102 A 
HETATM    2  C   UNL     1      43.788 -11.910   6.423  1.00  0.00     0.102 A 
HETATM    3  C   UNL     1      44.207 -13.156   6.908  1.00  0.00     0.040 A 
HETATM    4  C   UNL     1      43.368 -14.270   6.847  1.00  0.00     0.014 A 
HETATM    5  C   UNL     1      42.085 -14.174   6.294  1.00  0.00    -0.007 A 
HETATM    6  C   UNL     1      41.658 -12.906   5.862  1.00  0.00     0.051 A 
ENDROOT
BRANCH   5   7
HETATM    7  C   UNL     1      41.170 -15.394   6.248  1.00  0.00     0.264 C 
HETATM    8  O   UNL     1      41.909 -16.625   6.335  1.00  0.00    -0.321 OA
HETATM    9  C   UNL     1      42.456 -17.027   5.144  1.00  0.00     0.087 A 
HETATM   10  C   UNL     1      41.922 -16.661   3.910  1.00  0.00     0.065 A 
HETATM   11  C   UNL     1      43.571 -17.859   5.199  1.00  0.00     0.038 A 
HETATM   12  C   UNL     1      40.693 -15.852   3.900  1.00  0.00     0.256 C 
HETATM   13  C   UNL     1      42.512 -17.098   2.722  1.00  0.00     0.020 A 
HETATM   14  O   UNL     1      40.077 -15.599   2.874  1.00  0.00    -0.267 OA
HETATM   15  N   UNL     1      40.270 -15.425   5.125  1.00  0.00    -0.326 N 
HETATM   16  H   UNL     1      39.470 -14.809   5.115  1.00  0.00     0.165 HD
HETATM   17  C   UNL     1      43.645 -17.911   2.779  1.00  0.00     0.001 A 
HETATM   18  C   UNL     1      44.170 -18.295   4.014  1.00  0.00     0.003 A 
ENDBRANCH   5   7
BRANCH   1  19
HETATM   19  O   UNL     1      41.850 -10.652   5.461  1.00  0.00    -0.349 OA
BRANCH  19  20
HETATM   20  C   UNL     1      40.722 -10.106   6.133  1.00  0.00     0.171 C 
HETATM   21  C   UNL     1      41.091  -9.580   7.510  1.00  0.00     0.034 C 
ENDBRANCH  19  20
ENDBRANCH   1  19
BRANCH   2  22
HETATM   22  O   UNL     1      44.621 -10.828   6.503  1.00  0.00    -0.344 OA
BRANCH  22  23
HETATM   23  C   UNL     1      45.428 -10.798   7.684  1.00  0.00     0.214 C 
BRANCH  23  24
HETATM   24  C   UNL     1      44.753  -9.906   8.697  1.00  0.00    -0.034 A 
HETATM   25  C   UNL     1      44.314 -10.429   9.921  1.00  0.00     0.009 A 
HETATM   26  C   UNL     1      43.684  -9.608  10.858  1.00  0.00     0.001 A 
HETATM   27  C   UNL     1      43.480  -8.258  10.576  1.00  0.00     0.000 A 
HETATM   28  C   UNL     1      43.898  -7.730   9.356  1.00  0.00     0.001 A 
HETATM   29  C   UNL     1      44.529  -8.550   8.418  1.00  0.00     0.009 A 
ENDBRANCH  23  24
ENDBRANCH  22  23
ENDBRANCH   2  22
TORSDOF 6
ENDMDL
MODEL 3
REMARK VINA RESULT:      -8.5      4.455      8.371
REMARK  6 active torsions:
REMARK  status: ('A' for Active; 'I' for Inactive)
REMARK    1  A    between atoms: C_2  and  O_3 
REMARK    2  A    between atoms: O_3  and  C_4 
REMARK    3  A    between atoms: C_5  and  O_6 
REMARK    4  A    between atoms: O_6  and  C_7 
REMARK    5  A    between atoms: C_7  and  C_8 
REMARK    6  A    between atoms: C_16  and  C_17 
ROOT
HETATM    1  C   UNL     1      41.941 -14.005   3.852  1.00  0.00     0.102 A 
HETATM    2  C   UNL     1      41.526 -15.300   3.526  1.00  0.00     0.102 A 
HETATM    3  C   UNL     1      40.427 -15.474   2.673  1.00  0.00     0.040 A 
HETATM    4  C   UNL     1      39.784 -14.377   2.097  1.00  0.00     0.014 A 
HETATM    5  C   UNL     1      40.223 -13.072   2.353  1.00  0.00    -0.007 A 
HETATM    6  C   UNL     1      41.290 -12.910   3.253  1.00  0.00     0.051 A 
ENDROOT
BRANCH   5   7
HETATM    7  C   UNL     1      39.502 -11.878   1.732  1.00  0.00     0.264 C 
HETATM    8  O   UNL     1      38.718 -12.259   0.587  1.00  0.00    -0.321 OA
HETATM    9  C   UNL     1      39.448 -12.380  -0.567  1.00  0.00     0.087 A 
HETATM   10  C   UNL     1      40.639 -11.688  -0.779  1.00  0.00     0.065 A 
HETATM   11  C   UNL     1      38.941 -13.212  -1.562  1.00  0.00     0.038 A 
HETATM   12  C   UNL     1      41.093 -10.755   0.264  1.00  0.00     0.256 C 
HETATM   13  C   UNL     1      41.347 -11.841  -1.972  1.00  0.00     0.020 A 
HETATM   14  O   UNL     1      42.047 -10.005   0.110  1.00  0.00    -0.267 OA
HETATM   15  N   UNL     1      40.354 -10.765   1.412  1.00  0.00    -0.326 N 
HETATM   16  H   UNL     1      40.706 -10.180   2.156  1.00  0.00     0.165 HD
HETATM   17  C   UNL     1      40.851 -12.694  -2.959  1.00  0.00     0.001 A 
HETATM   18  C   UNL     1      39.648 -13.374  -2.756  1.00  0.00     0.003 A 
ENDBRANCH   5   7
BRANCH   1  19
HETATM   19  O   UNL     1      42.939 -13.600   4.697  1.00  0.00    -0.349 OA
BRANCH  19  20
HETATM   20  C   UNL     1      42.759 -13.595   6.108  1.00  0.00     0.171 C 
HETATM   21  C   UNL     1      43.566 -14.694   6.779  1.00  0.00     0.034 C 
ENDBRANCH  19  20
ENDBRANCH   1  19
BRANCH   2  22
HETATM   22  O   UNL     1      42.135 -16.389   4.089  1.00  0.00    -0.344 OA
BRANCH  22  23
HETATM   23  C   UNL     1      43.430 -16.675   3.554  1.00  0.00     0.214 C 
BRANCH  23  24
HETATM   24  C   UNL     1      43.581 -18.174   3.455  1.00  0.00    -0.034 A 
HETATM   25  C   UNL     1      43.181 -18.851   2.294  1.00  0.00     0.009 A 
HETATM   26  C   UNL     1      43.314 -20.237   2.201  1.00  0.00     0.001 A 
HETATM   27  C   UNL     1      43.841 -20.960   3.271  1.00  0.00     0.000 A 
HETATM   28  C   UNL     1      44.228 -20.299   4.434  1.00  0.00     0.001 A 
HETATM   29  C   UNL     1      44.096 -18.913   4.529  1.00  0.00     0.009 A 
ENDBRANCH  23  24
ENDBRANCH  22  23
ENDBRANCH   2  22
TORSDOF 6
ENDMDL
MODEL 4
REMARK VINA RESULT:      -8.4      1.012      2.277
REMARK  6 active torsions:
REMARK  status: ('A' for Active; 'I' for Inactive)
REMARK    1  A    between atoms: C_2  and  O_3 
REMARK    2  A    between atoms: O_3  and  C_4 
REMARK    3  A    between atoms: C_5  and  O_6 
REMARK    4  A    between atoms: O_6  and  C_7 
REMARK    5  A    between atoms: C_7  and  C_8 
REMARK    6  A    between atoms: C_16  and  C_17 
ROOT
HETATM    1  C   UNL     1      42.373 -11.068   6.163  1.00  0.00     0.102 A 
HETATM    2  C   UNL     1      42.547 -12.385   5.721  1.00  0.00     0.102 A 
HETATM    3  C   UNL     1      43.719 -13.074   6.062  1.00  0.00     0.040 A 
HETATM    4  C   UNL     1      44.682 -12.489   6.887  1.00  0.00     0.014 A 
HETATM    5  C   UNL     1      44.501 -11.198   7.399  1.00  0.00    -0.007 A 
HETATM    6  C   UNL     1      43.348 -10.498   7.003  1.00  0.00     0.051 A 
ENDROOT
BRANCH   5   7
HETATM    7  C   UNL     1      45.567 -10.561   8.285  1.00  0.00     0.264 C 
HETATM    8  O   UNL     1      45.430 -10.956   9.662  1.00  0.00    -0.321 OA
HETATM    9  C   UNL     1      44.479 -10.246  10.348  1.00  0.00     0.087 A 
HETATM   10  C   UNL     1      44.099  -8.954   9.988  1.00  0.00     0.065 A 
HETATM   11  C   UNL     1      43.907 -10.853  11.464  1.00  0.00     0.038 A 
HETATM   12  C   UNL     1      44.791  -8.320   8.855  1.00  0.00     0.256 C 
HETATM   13  C   UNL     1      43.128  -8.269  10.720  1.00  0.00     0.020 A 
HETATM   14  O   UNL     1      44.625  -7.146   8.553  1.00  0.00    -0.267 OA
HETATM   15  N   UNL     1      45.658  -9.129   8.179  1.00  0.00    -0.326 N 
HETATM   16  H   UNL     1      46.078  -8.719   7.357  1.00  0.00     0.165 HD
HETATM   17  C   UNL     1      42.537  -8.888  11.822  1.00  0.00     0.001 A 
HETATM   18  C   UNL     1      42.929 -10.175  12.196  1.00  0.00     0.003 A 
ENDBRANCH   5   7
BRANCH   1  19
HETATM   19  O   UNL     1      41.350 -10.196   5.910  1.00  0.00    -0.349 OA
BRANCH  19  20
HETATM   20  C   UNL     1      40.366  -9.900   6.895  1.00  0.00     0.171 C 
HETATM   21  C   UNL     1      39.152 -10.804   6.762  1.00  0.00     0.034 C 
ENDBRANCH  19  20
ENDBRANCH   1  19
BRANCH   2  22
HETATM   22  O   UNL     1      41.621 -12.972   4.902  1.00  0.00    -0.344 OA
BRANCH  22  23
HETATM   23  C   UNL     1      41.967 -12.945   3.515  1.00  0.00     0.214 C 
BRANCH  23  24
HETATM   24  C   UNL     1      42.293 -14.353   3.080  1.00  0.00    -0.034 A 
HETATM   25  C   UNL     1      43.114 -14.578   1.965  1.00  0.00     0.009 A 
HETATM   26  C   UNL     1      43.412 -15.880   1.557  1.00  0.00     0.001 A 
HETATM   27  C   UNL     1      42.886 -16.967   2.254  1.00  0.00     0.000 A 
HETATM   28  C   UNL     1      42.057 -16.754   3.354  1.00  0.00     0.001 A 
HETATM   29  C   UNL     1      41.758 -15.453   3.764  1.00  0.00     0.009 A 
ENDBRANCH  23  24
ENDBRANCH  22  23
ENDBRANCH   2  22
TORSDOF 6
ENDMDL
MODEL 5
REMARK VINA RESULT:      -8.4      2.541      4.231
REMARK  6 active torsions:
REMARK  status: ('A' for Active; 'I' for Inactive)
REMARK    1  A    between atoms: C_2  and  O_3 
REMARK    2  A    between atoms: O_3  and  C_4 
REMARK    3  A    between atoms: C_5  and  O_6 
REMARK    4  A    between atoms: O_6  and  C_7 
REMARK    5  A    between atoms: C_7  and  C_8 
REMARK    6  A    between atoms: C_16  and  C_17 
ROOT
HETATM    1  C   UNL     1      42.194 -15.052   4.788  1.00  0.00     0.102 A 
HETATM    2  C   UNL     1      42.851 -15.657   5.865  1.00  0.00     0.102 A 
HETATM    3  C   UNL     1      43.778 -14.914   6.608  1.00  0.00     0.040 A 
HETATM    4  C   UNL     1      44.008 -13.566   6.328  1.00  0.00     0.014 A 
HETATM    5  C   UNL     1      43.313 -12.917   5.299  1.00  0.00    -0.007 A 
HETATM    6  C   UNL     1      42.428 -13.689   4.527  1.00  0.00     0.051 A 
ENDROOT
BRANCH   5   7
HETATM    7  C   UNL     1      43.585 -11.448   4.990  1.00  0.00     0.264 C 
HETATM    8  O   UNL     1      44.770 -10.968   5.650  1.00  0.00    -0.321 OA
HETATM    9  C   UNL     1      44.571 -10.625   6.963  1.00  0.00     0.087 A 
HETATM   10  C   UNL     1      43.330 -10.226   7.456  1.00  0.00     0.065 A 
HETATM   11  C   UNL     1      45.677 -10.658   7.809  1.00  0.00     0.038 A 
HETATM   12  C   UNL     1      42.209 -10.124   6.509  1.00  0.00     0.256 C 
HETATM   13  C   UNL     1      43.176  -9.883   8.800  1.00  0.00     0.020 A 
HETATM   14  O   UNL     1      41.124  -9.653   6.818  1.00  0.00    -0.267 OA
HETATM   15  N   UNL     1      42.476 -10.568   5.246  1.00  0.00    -0.326 N 
HETATM   16  H   UNL     1      41.688 -10.568   4.614  1.00  0.00     0.165 HD
HETATM   17  C   UNL     1      44.280  -9.939   9.653  1.00  0.00     0.001 A 
HETATM   18  C   UNL     1      45.528 -10.321   9.157  1.00  0.00     0.003 A 
ENDBRANCH   5   7
BRANCH   1  19
HETATM   19  O   UNL     1      41.304 -15.591   3.900  1.00  0.00    -0.349 OA
BRANCH  19  20
HETATM   20  C   UNL     1      40.653 -14.788   2.922  1.00  0.00     0.171 C 
HETATM   21  C   UNL     1      39.898 -15.637   1.913  1.00  0.00     0.034 C 
ENDBRANCH  19  20
ENDBRANCH   1  19
BRANCH   2  22
HETATM   22  O   UNL     1      42.650 -16.981   6.148  1.00  0.00    -0.344 OA
BRANCH  22  23
HETATM   23  C   UNL     1      43.851 -17.754   6.211  1.00  0.00     0.214 C 
BRANCH  23  24
HETATM   24  C   UNL     1      43.839 -18.741   5.069  1.00  0.00    -0.034 A 
HETATM   25  C   UNL     1      43.724 -18.292   3.745  1.00  0.00     0.009 A 
HETATM   26  C   UNL     1      43.708 -19.203   2.687  1.00  0.00     0.001 A 
HETATM   27  C   UNL     1      43.797 -20.571   2.943  1.00  0.00     0.000 A 
HETATM   28  C   UNL     1      43.897 -21.029   4.255  1.00  0.00     0.001 A 
HETATM   29  C   UNL     1      43.914 -20.119   5.314  1.00  0.00     0.009 A 
ENDBRANCH  23  24
ENDBRANCH  22  23
ENDBRANCH   2  22
TORSDOF 6
ENDMDL
MODEL 6
REMARK VINA RESULT:      -8.0      5.260      7.418
REMARK  6 active torsions:
REMARK  status: ('A' for Active; 'I' for Inactive)
REMARK    1  A    between atoms: C_2  and  O_3 
REMARK    2  A    between atoms: O_3  and  C_4 
REMARK    3  A    between atoms: C_5  and  O_6 
REMARK    4  A    between atoms: O_6  and  C_7 
REMARK    5  A    between atoms: C_7  and  C_8 
REMARK    6  A    between atoms: C_16  and  C_17 
ROOT
HETATM    1  C   UNL     1      41.400 -14.214   4.132  1.00  0.00     0.102 A 
HETATM    2  C   UNL     1      42.645 -14.520   3.572  1.00  0.00     0.102 A 
HETATM    3  C   UNL     1      43.286 -13.571   2.764  1.00  0.00     0.040 A 
HETATM    4  C   UNL     1      42.730 -12.306   2.562  1.00  0.00     0.014 A 
HETATM    5  C   UNL     1      41.518 -11.949   3.167  1.00  0.00    -0.007 A 
HETATM    6  C   UNL     1      40.859 -12.930   3.929  1.00  0.00     0.051 A 
ENDROOT
BRANCH   5   7
HETATM    7  C   UNL     1      40.911 -10.571   2.926  1.00  0.00     0.264 C 
HETATM    8  O   UNL     1      39.524 -10.651   2.550  1.00  0.00    -0.321 OA
HETATM    9  C   UNL     1      39.327 -10.937   1.223  1.00  0.00     0.087 A 
HETATM   10  C   UNL     1      40.264 -10.625   0.239  1.00  0.00     0.065 A 
HETATM   11  C   UNL     1      38.121 -11.537   0.869  1.00  0.00     0.038 A 
HETATM   12  C   UNL     1      41.486  -9.915   0.648  1.00  0.00     0.256 C 
HETATM   13  C   UNL     1      40.017 -10.933  -1.100  1.00  0.00     0.020 A 
HETATM   14  O   UNL     1      42.297  -9.479  -0.158  1.00  0.00    -0.267 OA
HETATM   15  N   UNL     1      41.638  -9.750   1.994  1.00  0.00    -0.326 N 
HETATM   16  H   UNL     1      42.510  -9.330   2.281  1.00  0.00     0.165 HD
HETATM   17  C   UNL     1      38.819 -11.556  -1.450  1.00  0.00     0.001 A 
HETATM   18  C   UNL     1      37.871 -11.853  -0.469  1.00  0.00     0.003 A 
ENDBRANCH   5   7
BRANCH   1  19
HETATM   19  O   UNL     1      40.576 -14.994   4.897  1.00  0.00    -0.349 OA
BRANCH  19  20
HETATM   20  C   UNL     1      40.619 -14.946   6.318  1.00  0.00     0.171 C 
HETATM   21  C   UNL     1      41.592 -15.968   6.883  1.00  0.00     0.034 C 
ENDBRANCH  19  20
ENDBRANCH   1  19
BRANCH   2  22
HETATM   22  O   UNL     1      43.201 -15.758   3.747  1.00  0.00    -0.344 OA
BRANCH  22  23
HETATM   23  C   UNL     1      43.181 -16.579   2.576  1.00  0.00     0.214 C 
BRANCH  23  24
HETATM   24  C   UNL     1      43.439 -18.006   2.993  1.00  0.00    -0.034 A 
HETATM   25  C   UNL     1      43.954 -18.290   4.266  1.00  0.00     0.009 A 
HETATM   26  C   UNL     1      44.200 -19.609   4.652  1.00  0.00     0.001 A 
HETATM   27  C   UNL     1      43.939 -20.655   3.768  1.00  0.00     0.000 A 
HETATM   28  C   UNL     1      43.440 -20.383   2.495  1.00  0.00     0.001 A 
HETATM   29  C   UNL     1      43.194 -19.065   2.107  1.00  0.00     0.009 A 
ENDBRANCH  23  24
ENDBRANCH  22  23
ENDBRANCH   2  22
TORSDOF 6
ENDMDL
MODEL 7
REMARK VINA RESULT:      -7.8      1.823      2.867
REMARK  6 active torsions:
REMARK  status: ('A' for Active; 'I' for Inactive)
REMARK    1  A    between atoms: C_2  and  O_3 
REMARK    2  A    between atoms: O_3  and  C_4 
REMARK    3  A    between atoms: C_5  and  O_6 
REMARK    4  A    between atoms: O_6  and  C_7 
REMARK    5  A    between atoms: C_7  and  C_8 
REMARK    6  A    between atoms: C_16  and  C_17 
ROOT
HETATM    1  C   UNL     1      41.888 -12.488   5.755  1.00  0.00     0.102 A 
HETATM    2  C   UNL     1      42.721 -13.559   6.098  1.00  0.00     0.102 A 
HETATM    3  C   UNL     1      43.879 -13.313   6.848  1.00  0.00     0.040 A 
HETATM    4  C   UNL     1      44.178 -12.030   7.309  1.00  0.00     0.014 A 
HETATM    5  C   UNL     1      43.326 -10.952   7.038  1.00  0.00    -0.007 A 
HETATM    6  C   UNL     1      42.198 -11.203   6.238  1.00  0.00     0.051 A 
ENDROOT
BRANCH   5   7
HETATM    7  C   UNL     1      43.671  -9.550   7.531  1.00  0.00     0.264 C 
HETATM    8  O   UNL     1      44.305  -9.575   8.822  1.00  0.00    -0.321 OA
HETATM    9  C   UNL     1      43.426  -9.694   9.868  1.00  0.00     0.087 A 
HETATM   10  C   UNL     1      42.101  -9.269   9.788  1.00  0.00     0.065 A 
HETATM   11  C   UNL     1      43.911 -10.237  11.055  1.00  0.00     0.038 A 
HETATM   12  C   UNL     1      41.655  -8.623   8.544  1.00  0.00     0.256 C 
HETATM   13  C   UNL     1      41.243  -9.409  10.880  1.00  0.00     0.020 A 
HETATM   14  O   UNL     1      40.557  -8.097   8.430  1.00  0.00    -0.267 OA
HETATM   15  N   UNL     1      42.568  -8.626   7.529  1.00  0.00    -0.326 N 
HETATM   16  H   UNL     1      42.239  -8.250   6.652  1.00  0.00     0.165 HD
HETATM   17  C   UNL     1      41.723  -9.976  12.061  1.00  0.00     0.001 A 
HETATM   18  C   UNL     1      43.055 -10.385  12.149  1.00  0.00     0.003 A 
ENDBRANCH   5   7
BRANCH   1  19
HETATM   19  O   UNL     1      40.751 -12.482   4.993  1.00  0.00    -0.349 OA
BRANCH  19  20
HETATM   20  C   UNL     1      40.811 -12.547   3.572  1.00  0.00     0.171 C 
HETATM   21  C   UNL     1      39.878 -13.613   3.022  1.00  0.00     0.034 C 
ENDBRANCH  19  20
ENDBRANCH   1  19
BRANCH   2  22
HETATM   22  O   UNL     1      42.452 -14.822   5.646  1.00  0.00    -0.344 OA
BRANCH  22  23
HETATM   23  C   UNL     1      43.566 -15.717   5.717  1.00  0.00     0.214 C 
BRANCH  23  24
HETATM   24  C   UNL     1      43.466 -16.690   4.567  1.00  0.00    -0.034 A 
HETATM   25  C   UNL     1      42.742 -16.352   3.414  1.00  0.00     0.009 A 
HETATM   26  C   UNL     1      42.643 -17.253   2.352  1.00  0.00     0.001 A 
HETATM   27  C   UNL     1      43.258 -18.501   2.435  1.00  0.00     0.000 A 
HETATM   28  C   UNL     1      43.967 -18.852   3.583  1.00  0.00     0.001 A 
HETATM   29  C   UNL     1      44.068 -17.953   4.646  1.00  0.00     0.009 A 
ENDBRANCH  23  24
ENDBRANCH  22  23
ENDBRANCH   2  22
TORSDOF 6
ENDMDL
MODEL 8
REMARK VINA RESULT:      -7.8      3.482      5.234
REMARK  6 active torsions:
REMARK  status: ('A' for Active; 'I' for Inactive)
REMARK    1  A    between atoms: C_2  and  O_3 
REMARK    2  A    between atoms: O_3  and  C_4 
REMARK    3  A    between atoms: C_5  and  O_6 
REMARK    4  A    between atoms: O_6  and  C_7 
REMARK    5  A    between atoms: C_7  and  C_8 
REMARK    6  A    between atoms: C_16  and  C_17 
ROOT
HETATM    1  C   UNL     1      42.268 -14.996   4.587  1.00  0.00     0.102 A 
HETATM    2  C   UNL     1      42.933 -15.631   5.642  1.00  0.00     0.102 A 
HETATM    3  C   UNL     1      43.756 -14.877   6.488  1.00  0.00     0.040 A 
HETATM    4  C   UNL     1      43.873 -13.494   6.332  1.00  0.00     0.014 A 
HETATM    5  C   UNL     1      43.165 -12.823   5.327  1.00  0.00    -0.007 A 
HETATM    6  C   UNL     1      42.387 -13.599   4.452  1.00  0.00     0.051 A 
ENDROOT
BRANCH   5   7
HETATM    7  C   UNL     1      43.313 -11.314   5.154  1.00  0.00     0.264 C 
HETATM    8  O   UNL     1      42.606 -10.583   6.172  1.00  0.00    -0.321 OA
HETATM    9  C   UNL     1      41.264 -10.450   5.925  1.00  0.00     0.087 A 
HETATM   10  C   UNL     1      40.729 -10.480   4.639  1.00  0.00     0.065 A 
HETATM   11  C   UNL     1      40.428 -10.248   7.021  1.00  0.00     0.038 A 
HETATM   12  C   UNL     1      41.659 -10.610   3.506  1.00  0.00     0.256 C 
HETATM   13  C   UNL     1      39.356 -10.337   4.437  1.00  0.00     0.020 A 
HETATM   14  O   UNL     1      41.299 -10.507   2.341  1.00  0.00    -0.267 OA
HETATM   15  N   UNL     1      42.963 -10.824   3.848  1.00  0.00    -0.326 N 
HETATM   16  H   UNL     1      43.590 -10.987   3.073  1.00  0.00     0.165 HD
HETATM   17  C   UNL     1      38.516 -10.159   5.537  1.00  0.00     0.001 A 
HETATM   18  C   UNL     1      39.052 -10.110   6.826  1.00  0.00     0.003 A 
ENDBRANCH   5   7
BRANCH   1  19
HETATM   19  O   UNL     1      41.468 -15.532   3.616  1.00  0.00    -0.349 OA
BRANCH  19  20
HETATM   20  C   UNL     1      40.832 -14.712   2.642  1.00  0.00     0.171 C 
HETATM   21  C   UNL     1      40.699 -15.428   1.308  1.00  0.00     0.034 C 
ENDBRANCH  19  20
ENDBRANCH   1  19
BRANCH   2  22
HETATM   22  O   UNL     1      42.841 -16.987   5.805  1.00  0.00    -0.344 OA
BRANCH  22  23
HETATM   23  C   UNL     1      44.079 -17.681   5.628  1.00  0.00     0.214 C 
BRANCH  23  24
HETATM   24  C   UNL     1      43.910 -18.672   4.501  1.00  0.00    -0.034 A 
HETATM   25  C   UNL     1      43.567 -18.231   3.215  1.00  0.00     0.009 A 
HETATM   26  C   UNL     1      43.404 -19.145   2.173  1.00  0.00     0.001 A 
HETATM   27  C   UNL     1      43.575 -20.509   2.408  1.00  0.00     0.000 A 
HETATM   28  C   UNL     1      43.901 -20.959   3.686  1.00  0.00     0.001 A 
HETATM   29  C   UNL     1      44.065 -20.046   4.730  1.00  0.00     0.009 A 
ENDBRANCH  23  24
ENDBRANCH  22  23
ENDBRANCH   2  22
TORSDOF 6
ENDMDL
MODEL 9
REMARK VINA RESULT:      -7.5      5.088      9.529
REMARK  6 active torsions:
REMARK  status: ('A' for Active; 'I' for Inactive)
REMARK    1  A    between atoms: C_2  and  O_3 
REMARK    2  A    between atoms: O_3  and  C_4 
REMARK    3  A    between atoms: C_5  and  O_6 
REMARK    4  A    between atoms: O_6  and  C_7 
REMARK    5  A    between atoms: C_7  and  C_8 
REMARK    6  A    between atoms: C_16  and  C_17 
ROOT
HETATM    1  C   UNL     1      41.132 -13.108   2.257  1.00  0.00     0.102 A 
HETATM    2  C   UNL     1      40.562 -14.384   2.314  1.00  0.00     0.102 A 
HETATM    3  C   UNL     1      40.137 -15.000   1.129  1.00  0.00     0.040 A 
HETATM    4  C   UNL     1      40.332 -14.384  -0.110  1.00  0.00     0.014 A 
HETATM    5  C   UNL     1      40.962 -13.137  -0.201  1.00  0.00    -0.007 A 
HETATM    6  C   UNL     1      41.332 -12.507   1.000  1.00  0.00     0.051 A 
ENDROOT
BRANCH   5   7
HETATM    7  C   UNL     1      41.154 -12.466  -1.558  1.00  0.00     0.264 C 
HETATM    8  O   UNL     1      40.610 -11.134  -1.582  1.00  0.00    -0.321 OA
HETATM    9  C   UNL     1      39.255 -11.094  -1.787  1.00  0.00     0.087 A 
HETATM   10  C   UNL     1      38.566 -12.103  -2.456  1.00  0.00     0.065 A 
HETATM   11  C   UNL     1      38.569  -9.974  -1.324  1.00  0.00     0.038 A 
HETATM   12  C   UNL     1      39.343 -13.226  -3.004  1.00  0.00     0.256 C 
HETATM   13  C   UNL     1      37.185 -12.018  -2.645  1.00  0.00     0.020 A 
HETATM   14  O   UNL     1      38.848 -14.084  -3.721  1.00  0.00    -0.267 OA
HETATM   15  N   UNL     1      40.668 -13.228  -2.677  1.00  0.00    -0.326 N 
HETATM   16  H   UNL     1      41.188 -14.035  -2.989  1.00  0.00     0.165 HD
HETATM   17  C   UNL     1      36.495 -10.907  -2.158  1.00  0.00     0.001 A 
HETATM   18  C   UNL     1      37.186  -9.885  -1.503  1.00  0.00     0.003 A 
ENDBRANCH   5   7
BRANCH   1  19
HETATM   19  O   UNL     1      41.562 -12.302   3.277  1.00  0.00    -0.349 OA
BRANCH  19  20
HETATM   20  C   UNL     1      42.917 -12.316   3.710  1.00  0.00     0.171 C 
HETATM   21  C   UNL     1      43.044 -12.830   5.135  1.00  0.00     0.034 C 
ENDBRANCH  19  20
ENDBRANCH   1  19
BRANCH   2  22
HETATM   22  O   UNL     1      40.351 -14.999   3.518  1.00  0.00    -0.344 OA
BRANCH  22  23
HETATM   23  C   UNL     1      40.917 -16.309   3.612  1.00  0.00     0.214 C 
BRANCH  23  24
HETATM   24  C   UNL     1      41.859 -16.335   4.792  1.00  0.00    -0.034 A 
HETATM   25  C   UNL     1      41.378 -16.098   6.088  1.00  0.00     0.009 A 
HETATM   26  C   UNL     1      42.247 -16.116   7.180  1.00  0.00     0.001 A 
HETATM   27  C   UNL     1      43.605 -16.363   6.987  1.00  0.00     0.000 A 
HETATM   28  C   UNL     1      44.096 -16.585   5.702  1.00  0.00     0.001 A 
HETATM   29  C   UNL     1      43.229 -16.568   4.608  1.00  0.00     0.009 A 
ENDBRANCH  23  24
ENDBRANCH  22  23
ENDBRANCH   2  22
TORSDOF 6
ENDMDL
MODEL 10
REMARK VINA RESULT:      -7.3     18.867     21.555
REMARK  6 active torsions:
REMARK  status: ('A' for Active; 'I' for Inactive)
REMARK    1  A    between atoms: C_2  and  O_3 
REMARK    2  A    between atoms: O_3  and  C_4 
REMARK    3  A    between atoms: C_5  and  O_6 
REMARK    4  A    between atoms: O_6  and  C_7 
REMARK    5  A    between atoms: C_7  and  C_8 
REMARK    6  A    between atoms: C_16  and  C_17 
ROOT
HETATM    1  C   UNL     1      48.621 -29.943   0.808  1.00  0.00     0.102 A 
HETATM    2  C   UNL     1      49.521 -29.765  -0.249  1.00  0.00     0.102 A 
HETATM    3  C   UNL     1      49.054 -29.267  -1.472  1.00  0.00     0.040 A 
HETATM    4  C   UNL     1      47.719 -28.889  -1.632  1.00  0.00     0.014 A 
HETATM    5  C   UNL     1      46.811 -28.993  -0.569  1.00  0.00    -0.007 A 
HETATM    6  C   UNL     1      47.281 -29.546   0.634  1.00  0.00     0.051 A 
ENDROOT
BRANCH   5   7
HETATM    7  C   UNL     1      45.351 -28.594  -0.759  1.00  0.00     0.264 C 
HETATM    8  O   UNL     1      44.483 -29.740  -0.823  1.00  0.00    -0.321 OA
HETATM    9  C   UNL     1      44.449 -30.339  -2.055  1.00  0.00     0.087 A 
HETATM   10  C   UNL     1      44.723 -29.650  -3.235  1.00  0.00     0.065 A 
HETATM   11  C   UNL     1      44.093 -31.685  -2.105  1.00  0.00     0.038 A 
HETATM   12  C   UNL     1      45.010 -28.209  -3.143  1.00  0.00     0.256 C 
HETATM   13  C   UNL     1      44.672 -30.302  -4.468  1.00  0.00     0.020 A 
HETATM   14  O   UNL     1      45.126 -27.495  -4.129  1.00  0.00    -0.267 OA
HETATM   15  N   UNL     1      45.110 -27.718  -1.874  1.00  0.00    -0.326 N 
HETATM   16  H   UNL     1      45.379 -26.747  -1.808  1.00  0.00     0.165 HD
HETATM   17  C   UNL     1      44.340 -31.656  -4.514  1.00  0.00     0.001 A 
HETATM   18  C   UNL     1      44.047 -32.345  -3.335  1.00  0.00     0.003 A 
ENDBRANCH   5   7
BRANCH   1  19
HETATM   19  O   UNL     1      48.838 -30.459   2.056  1.00  0.00    -0.349 OA
BRANCH  19  20
HETATM   20  C   UNL     1      49.433 -29.679   3.087  1.00  0.00     0.171 C 
HETATM   21  C   UNL     1      50.713 -30.317   3.603  1.00  0.00     0.034 C 
ENDBRANCH  19  20
ENDBRANCH   1  19
BRANCH   2  22
HETATM   22  O   UNL     1      50.831 -30.140  -0.117  1.00  0.00    -0.344 OA
BRANCH  22  23
HETATM   23  C   UNL     1      51.028 -31.555  -0.044  1.00  0.00     0.214 C 
BRANCH  23  24
HETATM   24  C   UNL     1      52.030 -31.949  -1.102  1.00  0.00    -0.034 A 
HETATM   25  C   UNL     1      53.163 -32.702  -0.759  1.00  0.00     0.009 A 
HETATM   26  C   UNL     1      54.094 -33.063  -1.734  1.00  0.00     0.001 A 
HETATM   27  C   UNL     1      53.907 -32.669  -3.058  1.00  0.00     0.000 A 
HETATM   28  C   UNL     1      52.792 -31.908  -3.407  1.00  0.00     0.001 A 
HETATM   29  C   UNL     1      51.859 -31.546  -2.433  1.00  0.00     0.009 A 
ENDBRANCH  23  24
ENDBRANCH  22  23
ENDBRANCH   2  22
TORSDOF 6
ENDMDL
