MODEL 1
REMARK VINA RESULT:      -8.3      0.000      0.000
REMARK  7 active torsions:
REMARK  status: ('A' for Active; 'I' for Inactive)
REMARK    1  A    between atoms: C_7  and  C_8 
REMARK    2  A    between atoms: C_8  and  N_9 
REMARK       I    between atoms: N_9  and  C_10 
REMARK       I    between atoms: C_10  and  N_11 
REMARK    3  A    between atoms: N_11  and  C_12 
REMARK    4  A    between atoms: C_12  and  C_13 
REMARK    5  A    between atoms: C_13  and  C_14 
REMARK    6  A    between atoms: C_14  and  O_15 
REMARK    7  A    between atoms: C_14  and  C_16 
ROOT
HETATM    1  N   UNL     1      43.057 -12.502   6.795  1.00  0.00    -0.337 N 
HETATM    2  C   UNL     1      43.387 -11.202   7.086  1.00  0.00     0.316 C 
HETATM    3  N   UNL     1      44.306 -11.132   8.091  1.00  0.00    -0.339 N 
HETATM    4  O   UNL     1      42.870 -10.242   6.527  1.00  0.00    -0.247 OA
HETATM    5  H   UNL     1      43.817 -13.151   6.951  1.00  0.00     0.164 HD
HETATM    6  H   UNL     1      44.433 -11.953   8.666  1.00  0.00     0.164 HD
ENDROOT
BRANCH   1   7
HETATM    7  C   UNL     1      42.178 -12.808   5.680  1.00  0.00     0.183 C 
BRANCH   7   8
HETATM    8  C   UNL     1      42.559 -14.100   5.054  1.00  0.00     0.044 A 
HETATM    9  N   UNL     1      42.614 -14.279   3.678  1.00  0.00    -0.343 N 
HETATM   10  C   UNL     1      42.934 -15.527   3.371  1.00  0.00     0.112 A 
HETATM   11  H   UNL     1      42.364 -13.535   3.014  1.00  0.00     0.167 HD
HETATM   12  N   UNL     1      43.128 -16.194   4.527  1.00  0.00    -0.311 N 
HETATM   13  C   UNL     1      43.078 -16.188   2.054  1.00  0.00     0.049 A 
HETATM   14  C   UNL     1      43.476 -17.544   4.562  1.00  0.00     0.014 A 
HETATM   15  C   UNL     1      42.905 -15.324   5.586  1.00  0.00     0.125 A 
HETATM   16  C   UNL     1      43.677 -18.257   5.865  1.00  0.00     0.068 C 
HETATM   17  C   UNL     1      43.610 -18.159   3.365  1.00  0.00     0.025 A 
HETATM   18  C   UNL     1      43.413 -17.488   2.084  1.00  0.00     0.006 A 
ENDBRANCH   7   8
ENDBRANCH   1   7
BRANCH   3  19
HETATM   19  C   UNL     1      44.894  -9.888   8.608  1.00  0.00     0.085 C 
HETATM   20  C   UNL     1      46.257  -9.605   7.980  1.00  0.00     0.032 C 
BRANCH  19  21
HETATM   21  C   UNL     1      44.886  -9.897  10.151  1.00  0.00     0.063 C 
BRANCH  21  22
HETATM   22  C   UNL     1      43.582 -10.337  10.826  1.00  0.00     0.177 C 
BRANCH  22  23
HETATM   23  O   UNL     1      43.691 -11.685  11.278  1.00  0.00    -0.389 OA
HETATM   24  H   UNL     1      43.375 -11.701  12.197  1.00  0.00     0.210 HD
ENDBRANCH  22  23
BRANCH  22  25
HETATM   25  C   UNL     1      43.176  -9.500  11.989  1.00  0.00     0.081 A 
HETATM   26  O   UNL     1      42.320 -10.069  12.892  1.00  0.00    -0.324 OA
HETATM   27  C   UNL     1      42.095  -9.149  13.864  1.00  0.00     0.142 A 
HETATM   28  C   UNL     1      42.800  -7.996  13.610  1.00  0.00     0.027 A 
HETATM   29  C   UNL     1      43.502  -8.224  12.403  1.00  0.00     0.037 A 
ENDBRANCH  22  25
ENDBRANCH  21  22
ENDBRANCH  19  21
ENDBRANCH   3  19
TORSDOF 7
ENDMDL
MODEL 2
REMARK VINA RESULT:      -8.2      4.708      7.131
REMARK  7 active torsions:
REMARK  status: ('A' for Active; 'I' for Inactive)
REMARK    1  A    between atoms: C_7  and  C_8 
REMARK    2  A    between atoms: C_8  and  N_9 
REMARK       I    between atoms: N_9  and  C_10 
REMARK       I    between atoms: C_10  and  N_11 
REMARK    3  A    between atoms: N_11  and  C_12 
REMARK    4  A    between atoms: C_12  and  C_13 
REMARK    5  A    between atoms: C_13  and  C_14 
REMARK    6  A    between atoms: C_14  and  O_15 
REMARK    7  A    between atoms: C_14  and  C_16 
ROOT
HETATM    1  N   UNL     1      42.306 -14.807   6.777  1.00  0.00    -0.337 N 
HETATM    2  C   UNL     1      42.005 -13.708   6.012  1.00  0.00     0.316 C 
HETATM    3  N   UNL     1      40.753 -13.240   6.278  1.00  0.00    -0.339 N 
HETATM    4  O   UNL     1      42.771 -13.254   5.169  1.00  0.00    -0.247 OA
HETATM    5  H   UNL     1      41.856 -14.797   7.683  1.00  0.00     0.164 HD
HETATM    6  H   UNL     1      40.117 -13.857   6.762  1.00  0.00     0.164 HD
ENDROOT
BRANCH   1   7
HETATM    7  C   UNL     1      43.633 -15.397   6.733  1.00  0.00     0.183 C 
BRANCH   7   8
HETATM    8  C   UNL     1      43.668 -16.530   5.773  1.00  0.00     0.044 A 
HETATM    9  N   UNL     1      43.381 -16.378   4.422  1.00  0.00    -0.343 N 
HETATM   10  C   UNL     1      43.437 -17.538   3.788  1.00  0.00     0.112 A 
HETATM   11  H   UNL     1      43.096 -15.477   4.017  1.00  0.00     0.167 HD
HETATM   12  N   UNL     1      43.791 -18.478   4.688  1.00  0.00    -0.311 N 
HETATM   13  C   UNL     1      43.178 -17.874   2.369  1.00  0.00     0.049 A 
HETATM   14  C   UNL     1      43.937 -19.822   4.348  1.00  0.00     0.014 A 
HETATM   15  C   UNL     1      43.945 -17.871   5.927  1.00  0.00     0.125 A 
HETATM   16  C   UNL     1      44.325 -20.843   5.374  1.00  0.00     0.068 C 
HETATM   17  C   UNL     1      43.704 -20.141   3.054  1.00  0.00     0.025 A 
HETATM   18  C   UNL     1      43.318 -19.168   2.037  1.00  0.00     0.006 A 
ENDBRANCH   7   8
ENDBRANCH   1   7
BRANCH   3  19
HETATM   19  C   UNL     1      40.149 -12.053   5.655  1.00  0.00     0.085 C 
HETATM   20  C   UNL     1      39.425 -11.185   6.683  1.00  0.00     0.032 C 
BRANCH  19  21
HETATM   21  C   UNL     1      39.288 -12.469   4.444  1.00  0.00     0.063 C 
BRANCH  21  22
HETATM   22  C   UNL     1      39.970 -12.422   3.072  1.00  0.00     0.177 C 
BRANCH  22  23
HETATM   23  O   UNL     1      41.297 -11.917   3.198  1.00  0.00    -0.389 OA
HETATM   24  H   UNL     1      41.612 -11.724   2.299  1.00  0.00     0.210 HD
ENDBRANCH  22  23
BRANCH  22  25
HETATM   25  C   UNL     1      40.047 -13.737   2.376  1.00  0.00     0.081 A 
HETATM   26  O   UNL     1      39.960 -13.720   1.011  1.00  0.00    -0.324 OA
HETATM   27  C   UNL     1      40.066 -15.005   0.588  1.00  0.00     0.142 A 
HETATM   28  C   UNL     1      40.231 -15.853   1.657  1.00  0.00     0.027 A 
HETATM   29  C   UNL     1      40.224 -15.035   2.811  1.00  0.00     0.037 A 
ENDBRANCH  22  25
ENDBRANCH  21  22
ENDBRANCH  19  21
ENDBRANCH   3  19
TORSDOF 7
ENDMDL
MODEL 3
REMARK VINA RESULT:      -8.0      3.502      5.895
REMARK  7 active torsions:
REMARK  status: ('A' for Active; 'I' for Inactive)
REMARK    1  A    between atoms: C_7  and  C_8 
REMARK    2  A    between atoms: C_8  and  N_9 
REMARK       I    between atoms: N_9  and  C_10 
REMARK       I    between atoms: C_10  and  N_11 
REMARK    3  A    between atoms: N_11  and  C_12 
REMARK    4  A    between atoms: C_12  and  C_13 
REMARK    5  A    between atoms: C_13  and  C_14 
REMARK    6  A    between atoms: C_14  and  O_15 
REMARK    7  A    between atoms: C_14  and  C_16 
ROOT
HETATM    1  N   UNL     1      42.485 -14.267   7.211  1.00  0.00    -0.337 N 
HETATM    2  C   UNL     1      43.183 -13.159   6.799  1.00  0.00     0.316 C 
HETATM    3  N   UNL     1      42.357 -12.093   6.599  1.00  0.00    -0.339 N 
HETATM    4  O   UNL     1      44.392 -13.169   6.600  1.00  0.00    -0.247 OA
HETATM    5  H   UNL     1      41.665 -14.040   7.757  1.00  0.00     0.164 HD
HETATM    6  H   UNL     1      41.368 -12.279   6.507  1.00  0.00     0.164 HD
ENDROOT
BRANCH   1   7
HETATM    7  C   UNL     1      43.186 -15.482   7.588  1.00  0.00     0.183 C 
BRANCH   7   8
HETATM    8  C   UNL     1      43.347 -16.377   6.414  1.00  0.00     0.044 A 
HETATM    9  N   UNL     1      43.122 -15.953   5.111  1.00  0.00    -0.343 N 
HETATM   10  C   UNL     1      43.290 -16.944   4.250  1.00  0.00     0.112 A 
HETATM   11  H   UNL     1      42.800 -15.002   4.888  1.00  0.00     0.167 HD
HETATM   12  N   UNL     1      43.657 -18.036   4.951  1.00  0.00    -0.311 N 
HETATM   13  C   UNL     1      43.129 -16.979   2.778  1.00  0.00     0.049 A 
HETATM   14  C   UNL     1      43.911 -19.265   4.343  1.00  0.00     0.014 A 
HETATM   15  C   UNL     1      43.705 -17.703   6.298  1.00  0.00     0.125 A 
HETATM   16  C   UNL     1      44.312 -20.461   5.154  1.00  0.00     0.068 C 
HETATM   17  C   UNL     1      43.768 -19.309   2.999  1.00  0.00     0.025 A 
HETATM   18  C   UNL     1      43.373 -18.161   2.189  1.00  0.00     0.006 A 
ENDBRANCH   7   8
ENDBRANCH   1   7
BRANCH   3  19
HETATM   19  C   UNL     1      42.799 -10.750   6.194  1.00  0.00     0.085 C 
HETATM   20  C   UNL     1      42.520  -9.714   7.282  1.00  0.00     0.032 C 
BRANCH  19  21
HETATM   21  C   UNL     1      42.225 -10.397   4.807  1.00  0.00     0.063 C 
BRANCH  21  22
HETATM   22  C   UNL     1      42.890 -11.069   3.600  1.00  0.00     0.177 C 
BRANCH  22  23
HETATM   23  O   UNL     1      44.206 -11.501   3.940  1.00  0.00    -0.389 OA
HETATM   24  H   UNL     1      44.632 -10.764   4.411  1.00  0.00     0.210 HD
ENDBRANCH  22  23
BRANCH  22  25
HETATM   25  C   UNL     1      42.150 -12.244   3.062  1.00  0.00     0.081 A 
HETATM   26  O   UNL     1      41.327 -12.907   3.931  1.00  0.00    -0.324 OA
HETATM   27  C   UNL     1      40.749 -13.922   3.240  1.00  0.00     0.142 A 
HETATM   28  C   UNL     1      41.177 -13.920   1.933  1.00  0.00     0.027 A 
HETATM   29  C   UNL     1      42.077 -12.835   1.817  1.00  0.00     0.037 A 
ENDBRANCH  22  25
ENDBRANCH  21  22
ENDBRANCH  19  21
ENDBRANCH   3  19
TORSDOF 7
ENDMDL
MODEL 4
REMARK VINA RESULT:      -7.7      1.213      2.115
REMARK  7 active torsions:
REMARK  status: ('A' for Active; 'I' for Inactive)
REMARK    1  A    between atoms: C_7  and  C_8 
REMARK    2  A    between atoms: C_8  and  N_9 
REMARK       I    between atoms: N_9  and  C_10 
REMARK       I    between atoms: C_10  and  N_11 
REMARK    3  A    between atoms: N_11  and  C_12 
REMARK    4  A    between atoms: C_12  and  C_13 
REMARK    5  A    between atoms: C_13  and  C_14 
REMARK    6  A    between atoms: C_14  and  O_15 
REMARK    7  A    between atoms: C_14  and  C_16 
ROOT
HETATM    1  N   UNL     1      43.051 -12.065   7.233  1.00  0.00    -0.337 N 
HETATM    2  C   UNL     1      43.327 -10.893   7.893  1.00  0.00     0.316 C 
HETATM    3  N   UNL     1      43.556 -11.106   9.219  1.00  0.00    -0.339 N 
HETATM    4  O   UNL     1      43.316  -9.799   7.339  1.00  0.00    -0.247 OA
HETATM    5  H   UNL     1      43.520 -12.867   7.633  1.00  0.00     0.164 HD
HETATM    6  H   UNL     1      43.251 -11.986   9.610  1.00  0.00     0.164 HD
ENDROOT
BRANCH   1   7
HETATM    7  C   UNL     1      42.885 -12.078   5.790  1.00  0.00     0.183 C 
BRANCH   7   8
HETATM    8  C   UNL     1      43.018 -13.460   5.263  1.00  0.00     0.044 A 
HETATM    9  N   UNL     1      43.328 -14.546   6.073  1.00  0.00    -0.343 N 
HETATM   10  C   UNL     1      43.433 -15.658   5.363  1.00  0.00     0.112 A 
HETATM   11  H   UNL     1      43.513 -14.447   7.079  1.00  0.00     0.167 HD
HETATM   12  N   UNL     1      43.168 -15.347   4.077  1.00  0.00    -0.311 N 
HETATM   13  C   UNL     1      43.776 -17.037   5.778  1.00  0.00     0.049 A 
HETATM   14  C   UNL     1      43.197 -16.297   3.057  1.00  0.00     0.014 A 
HETATM   15  C   UNL     1      42.902 -13.987   3.994  1.00  0.00     0.125 A 
HETATM   16  C   UNL     1      42.903 -15.917   1.637  1.00  0.00     0.068 C 
HETATM   17  C   UNL     1      43.508 -17.561   3.424  1.00  0.00     0.025 A 
HETATM   18  C   UNL     1      43.805 -17.955   4.798  1.00  0.00     0.006 A 
ENDBRANCH   7   8
ENDBRANCH   1   7
BRANCH   3  19
HETATM   19  C   UNL     1      43.917 -10.063  10.189  1.00  0.00     0.085 C 
HETATM   20  C   UNL     1      45.410  -9.741  10.141  1.00  0.00     0.032 C 
BRANCH  19  21
HETATM   21  C   UNL     1      43.384 -10.431  11.589  1.00  0.00     0.063 C 
BRANCH  21  22
HETATM   22  C   UNL     1      42.103  -9.720  12.042  1.00  0.00     0.177 C 
BRANCH  22  23
HETATM   23  O   UNL     1      41.125 -10.676  12.446  1.00  0.00    -0.389 OA
HETATM   24  H   UNL     1      40.362 -10.567  11.853  1.00  0.00     0.210 HD
ENDBRANCH  22  23
BRANCH  22  25
HETATM   25  C   UNL     1      42.293  -8.761  13.165  1.00  0.00     0.081 A 
HETATM   26  O   UNL     1      41.500  -8.934  14.266  1.00  0.00    -0.324 OA
HETATM   27  C   UNL     1      41.844  -7.973  15.162  1.00  0.00     0.142 A 
HETATM   28  C   UNL     1      42.856  -7.188  14.662  1.00  0.00     0.027 A 
HETATM   29  C   UNL     1      43.149  -7.698  13.376  1.00  0.00     0.037 A 
ENDBRANCH  22  25
ENDBRANCH  21  22
ENDBRANCH  19  21
ENDBRANCH   3  19
TORSDOF 7
ENDMDL
MODEL 5
REMARK VINA RESULT:      -7.5      2.758      9.968
REMARK  7 active torsions:
REMARK  status: ('A' for Active; 'I' for Inactive)
REMARK    1  A    between atoms: C_7  and  C_8 
REMARK    2  A    between atoms: C_8  and  N_9 
REMARK       I    between atoms: N_9  and  C_10 
REMARK       I    between atoms: C_10  and  N_11 
REMARK    3  A    between atoms: N_11  and  C_12 
REMARK    4  A    between atoms: C_12  and  C_13 
REMARK    5  A    between atoms: C_13  and  C_14 
REMARK    6  A    between atoms: C_14  and  O_15 
REMARK    7  A    between atoms: C_14  and  C_16 
ROOT
HETATM    1  N   UNL     1      43.534 -11.145   8.838  1.00  0.00    -0.337 N 
HETATM    2  C   UNL     1      44.059 -11.738   7.716  1.00  0.00     0.316 C 
HETATM    3  N   UNL     1      43.217 -12.681   7.208  1.00  0.00    -0.339 N 
HETATM    4  O   UNL     1      45.170 -11.464   7.276  1.00  0.00    -0.247 OA
HETATM    5  H   UNL     1      42.524 -11.095   8.826  1.00  0.00     0.164 HD
HETATM    6  H   UNL     1      42.481 -13.024   7.809  1.00  0.00     0.164 HD
ENDROOT
BRANCH   1   7
HETATM    7  C   UNL     1      44.219 -10.034   9.474  1.00  0.00     0.183 C 
BRANCH   7   8
HETATM    8  C   UNL     1      43.497  -9.609  10.701  1.00  0.00     0.044 A 
HETATM    9  N   UNL     1      43.960  -8.597  11.531  1.00  0.00    -0.343 N 
HETATM   10  C   UNL     1      43.166  -8.436  12.578  1.00  0.00     0.112 A 
HETATM   11  H   UNL     1      44.847  -8.107  11.361  1.00  0.00     0.167 HD
HETATM   12  N   UNL     1      42.146  -9.309  12.454  1.00  0.00    -0.311 N 
HETATM   13  C   UNL     1      43.270  -7.516  13.733  1.00  0.00     0.049 A 
HETATM   14  C   UNL     1      41.124  -9.405  13.398  1.00  0.00     0.014 A 
HETATM   15  C   UNL     1      42.329 -10.044  11.290  1.00  0.00     0.125 A 
HETATM   16  C   UNL     1      40.008 -10.392  13.232  1.00  0.00     0.068 C 
HETATM   17  C   UNL     1      41.208  -8.569  14.457  1.00  0.00     0.025 A 
HETATM   18  C   UNL     1      42.287  -7.605  14.645  1.00  0.00     0.006 A 
ENDBRANCH   7   8
ENDBRANCH   1   7
BRANCH   3  19
HETATM   19  C   UNL     1      43.469 -13.465   5.990  1.00  0.00     0.085 C 
HETATM   20  C   UNL     1      42.972 -12.741   4.740  1.00  0.00     0.032 C 
BRANCH  19  21
HETATM   21  C   UNL     1      42.926 -14.900   6.160  1.00  0.00     0.063 C 
BRANCH  21  22
HETATM   22  C   UNL     1      43.870 -16.039   5.759  1.00  0.00     0.177 C 
BRANCH  22  23
HETATM   23  O   UNL     1      43.776 -17.110   6.696  1.00  0.00    -0.389 OA
HETATM   24  H   UNL     1      43.451 -17.885   6.207  1.00  0.00     0.210 HD
ENDBRANCH  22  23
BRANCH  22  25
HETATM   25  C   UNL     1      43.619 -16.600   4.402  1.00  0.00     0.081 A 
HETATM   26  O   UNL     1      43.711 -17.958   4.267  1.00  0.00    -0.324 OA
HETATM   27  C   UNL     1      43.435 -18.251   2.971  1.00  0.00     0.142 A 
HETATM   28  C   UNL     1      43.155 -17.104   2.266  1.00  0.00     0.027 A 
HETATM   29  C   UNL     1      43.269 -16.039   3.190  1.00  0.00     0.037 A 
ENDBRANCH  22  25
ENDBRANCH  21  22
ENDBRANCH  19  21
ENDBRANCH   3  19
TORSDOF 7
ENDMDL
MODEL 6
REMARK VINA RESULT:      -7.5      4.366      8.054
REMARK  7 active torsions:
REMARK  status: ('A' for Active; 'I' for Inactive)
REMARK    1  A    between atoms: C_7  and  C_8 
REMARK    2  A    between atoms: C_8  and  N_9 
REMARK       I    between atoms: N_9  and  C_10 
REMARK       I    between atoms: C_10  and  N_11 
REMARK    3  A    between atoms: N_11  and  C_12 
REMARK    4  A    between atoms: C_12  and  C_13 
REMARK    5  A    between atoms: C_13  and  C_14 
REMARK    6  A    between atoms: C_14  and  O_15 
REMARK    7  A    between atoms: C_14  and  C_16 
ROOT
HETATM    1  N   UNL     1      41.246 -13.492   3.524  1.00  0.00    -0.337 N 
HETATM    2  C   UNL     1      41.421 -13.806   4.849  1.00  0.00     0.316 C 
HETATM    3  N   UNL     1      42.743 -13.883   5.176  1.00  0.00    -0.339 N 
HETATM    4  O   UNL     1      40.486 -14.028   5.610  1.00  0.00    -0.247 OA
HETATM    5  H   UNL     1      41.985 -12.910   3.152  1.00  0.00     0.164 HD
HETATM    6  H   UNL     1      43.406 -13.973   4.419  1.00  0.00     0.164 HD
ENDROOT
BRANCH   1   7
HETATM    7  C   UNL     1      39.917 -13.251   2.992  1.00  0.00     0.183 C 
BRANCH   7   8
HETATM    8  C   UNL     1      39.956 -13.160   1.510  1.00  0.00     0.044 A 
HETATM    9  N   UNL     1      39.416 -14.138   0.685  1.00  0.00    -0.343 N 
HETATM   10  C   UNL     1      39.616 -13.850  -0.592  1.00  0.00     0.112 A 
HETATM   11  H   UNL     1      38.985 -14.995   1.054  1.00  0.00     0.167 HD
HETATM   12  N   UNL     1      40.263 -12.668  -0.647  1.00  0.00    -0.311 N 
HETATM   13  C   UNL     1      39.255 -14.600  -1.816  1.00  0.00     0.049 A 
HETATM   14  C   UNL     1      40.633 -12.073  -1.852  1.00  0.00     0.014 A 
HETATM   15  C   UNL     1      40.479 -12.219   0.649  1.00  0.00     0.125 A 
HETATM   16  C   UNL     1      41.357 -10.761  -1.877  1.00  0.00     0.068 C 
HETATM   17  C   UNL     1      40.308 -12.749  -2.978  1.00  0.00     0.025 A 
HETATM   18  C   UNL     1      39.610 -14.031  -2.980  1.00  0.00     0.006 A 
ENDBRANCH   7   8
ENDBRANCH   1   7
BRANCH   3  19
HETATM   19  C   UNL     1      43.261 -14.161   6.523  1.00  0.00     0.085 C 
HETATM   20  C   UNL     1      43.929 -12.930   7.134  1.00  0.00     0.032 C 
BRANCH  19  21
HETATM   21  C   UNL     1      44.142 -15.427   6.502  1.00  0.00     0.063 C 
BRANCH  21  22
HETATM   22  C   UNL     1      43.412 -16.766   6.350  1.00  0.00     0.177 C 
BRANCH  22  23
HETATM   23  O   UNL     1      42.017 -16.597   6.595  1.00  0.00    -0.389 OA
HETATM   24  H   UNL     1      41.553 -16.898   5.795  1.00  0.00     0.210 HD
ENDBRANCH  22  23
BRANCH  22  25
HETATM   25  C   UNL     1      43.565 -17.405   5.014  1.00  0.00     0.081 A 
HETATM   26  O   UNL     1      43.024 -16.742   3.946  1.00  0.00    -0.324 OA
HETATM   27  C   UNL     1      43.287 -17.483   2.840  1.00  0.00     0.142 A 
HETATM   28  C   UNL     1      44.001 -18.610   3.173  1.00  0.00     0.027 A 
HETATM   29  C   UNL     1      44.185 -18.558   4.575  1.00  0.00     0.037 A 
ENDBRANCH  22  25
ENDBRANCH  21  22
ENDBRANCH  19  21
ENDBRANCH   3  19
TORSDOF 7
ENDMDL
MODEL 7
REMARK VINA RESULT:      -7.5      1.948      3.171
REMARK  7 active torsions:
REMARK  status: ('A' for Active; 'I' for Inactive)
REMARK    1  A    between atoms: C_7  and  C_8 
REMARK    2  A    between atoms: C_8  and  N_9 
REMARK       I    between atoms: N_9  and  C_10 
REMARK       I    between atoms: C_10  and  N_11 
REMARK    3  A    between atoms: N_11  and  C_12 
REMARK    4  A    between atoms: C_12  and  C_13 
REMARK    5  A    between atoms: C_13  and  C_14 
REMARK    6  A    between atoms: C_14  and  O_15 
REMARK    7  A    between atoms: C_14  and  C_16 
ROOT
HETATM    1  N   UNL     1      42.195 -14.578   7.095  1.00  0.00    -0.337 N 
HETATM    2  C   UNL     1      42.771 -13.474   6.517  1.00  0.00     0.316 C 
HETATM    3  N   UNL     1      41.858 -12.484   6.309  1.00  0.00    -0.339 N 
HETATM    4  O   UNL     1      43.954 -13.431   6.199  1.00  0.00    -0.247 OA
HETATM    5  H   UNL     1      41.417 -14.351   7.700  1.00  0.00     0.164 HD
HETATM    6  H   UNL     1      40.881 -12.737   6.335  1.00  0.00     0.164 HD
ENDROOT
BRANCH   1   7
HETATM    7  C   UNL     1      43.011 -15.707   7.505  1.00  0.00     0.183 C 
BRANCH   7   8
HETATM    8  C   UNL     1      43.218 -16.642   6.369  1.00  0.00     0.044 A 
HETATM    9  N   UNL     1      42.958 -16.289   5.051  1.00  0.00    -0.343 N 
HETATM   10  C   UNL     1      43.178 -17.305   4.232  1.00  0.00     0.112 A 
HETATM   11  H   UNL     1      42.578 -15.370   4.791  1.00  0.00     0.167 HD
HETATM   12  N   UNL     1      43.616 -18.342   4.976  1.00  0.00    -0.311 N 
HETATM   13  C   UNL     1      43.009 -17.414   2.765  1.00  0.00     0.049 A 
HETATM   14  C   UNL     1      43.939 -19.579   4.420  1.00  0.00     0.014 A 
HETATM   15  C   UNL     1      43.653 -17.948   6.307  1.00  0.00     0.125 A 
HETATM   16  C   UNL     1      44.416 -20.712   5.277  1.00  0.00     0.068 C 
HETATM   17  C   UNL     1      43.789 -19.690   3.080  1.00  0.00     0.025 A 
HETATM   18  C   UNL     1      43.319 -18.604   2.225  1.00  0.00     0.006 A 
ENDBRANCH   7   8
ENDBRANCH   1   7
BRANCH   3  19
HETATM   19  C   UNL     1      42.165 -11.162   5.745  1.00  0.00     0.085 C 
HETATM   20  C   UNL     1      42.440 -11.240   4.244  1.00  0.00     0.032 C 
BRANCH  19  21
HETATM   21  C   UNL     1      43.277 -10.478   6.567  1.00  0.00     0.063 C 
BRANCH  21  22
HETATM   22  C   UNL     1      42.823  -9.644   7.771  1.00  0.00     0.177 C 
BRANCH  22  23
HETATM   23  O   UNL     1      41.518 -10.043   8.183  1.00  0.00    -0.389 OA
HETATM   24  H   UNL     1      41.582 -10.973   8.460  1.00  0.00     0.210 HD
ENDBRANCH  22  23
BRANCH  22  25
HETATM   25  C   UNL     1      43.721  -9.733   8.956  1.00  0.00     0.081 A 
HETATM   26  O   UNL     1      43.235 -10.392  10.052  1.00  0.00    -0.324 OA
HETATM   27  C   UNL     1      44.208 -10.366  10.998  1.00  0.00     0.142 A 
HETATM   28  C   UNL     1      45.320  -9.709  10.529  1.00  0.00     0.027 A 
HETATM   29  C   UNL     1      45.009  -9.305   9.209  1.00  0.00     0.037 A 
ENDBRANCH  22  25
ENDBRANCH  21  22
ENDBRANCH  19  21
ENDBRANCH   3  19
TORSDOF 7
ENDMDL
MODEL 8
REMARK VINA RESULT:      -7.4      6.216      9.292
REMARK  7 active torsions:
REMARK  status: ('A' for Active; 'I' for Inactive)
REMARK    1  A    between atoms: C_7  and  C_8 
REMARK    2  A    between atoms: C_8  and  N_9 
REMARK       I    between atoms: N_9  and  C_10 
REMARK       I    between atoms: C_10  and  N_11 
REMARK    3  A    between atoms: N_11  and  C_12 
REMARK    4  A    between atoms: C_12  and  C_13 
REMARK    5  A    between atoms: C_13  and  C_14 
REMARK    6  A    between atoms: C_14  and  O_15 
REMARK    7  A    between atoms: C_14  and  C_16 
ROOT
HETATM    1  N   UNL     1      40.250 -13.090   3.668  1.00  0.00    -0.337 N 
HETATM    2  C   UNL     1      40.545 -14.425   3.796  1.00  0.00     0.316 C 
HETATM    3  N   UNL     1      41.527 -14.634   4.719  1.00  0.00    -0.339 N 
HETATM    4  O   UNL     1      40.008 -15.293   3.119  1.00  0.00    -0.247 OA
HETATM    5  H   UNL     1      40.381 -12.569   4.525  1.00  0.00     0.164 HD
HETATM    6  H   UNL     1      42.090 -13.841   4.989  1.00  0.00     0.164 HD
ENDROOT
BRANCH   1   7
HETATM    7  C   UNL     1      39.156 -12.654   2.819  1.00  0.00     0.183 C 
BRANCH   7   8
HETATM    8  C   UNL     1      39.593 -12.577   1.401  1.00  0.00     0.044 A 
HETATM    9  N   UNL     1      39.397 -13.614   0.499  1.00  0.00    -0.343 N 
HETATM   10  C   UNL     1      39.912 -13.322  -0.685  1.00  0.00     0.112 A 
HETATM   11  H   UNL     1      38.965 -14.507   0.769  1.00  0.00     0.167 HD
HETATM   12  N   UNL     1      40.433 -12.080  -0.608  1.00  0.00    -0.311 N 
HETATM   13  C   UNL     1      39.976 -14.118  -1.931  1.00  0.00     0.049 A 
HETATM   14  C   UNL     1      41.062 -11.463  -1.688  1.00  0.00     0.014 A 
HETATM   15  C   UNL     1      40.240 -11.597   0.680  1.00  0.00     0.125 A 
HETATM   16  C   UNL     1      41.636 -10.084  -1.566  1.00  0.00     0.068 C 
HETATM   17  C   UNL     1      41.126 -12.182  -2.832  1.00  0.00     0.025 A 
HETATM   18  C   UNL     1      40.582 -13.528  -2.975  1.00  0.00     0.006 A 
ENDBRANCH   7   8
ENDBRANCH   1   7
BRANCH   3  19
HETATM   19  C   UNL     1      42.040 -15.953   5.116  1.00  0.00     0.085 C 
HETATM   20  C   UNL     1      42.283 -16.033   6.622  1.00  0.00     0.032 C 
BRANCH  19  21
HETATM   21  C   UNL     1      43.257 -16.333   4.248  1.00  0.00     0.063 C 
BRANCH  21  22
HETATM   22  C   UNL     1      42.963 -17.113   2.961  1.00  0.00     0.177 C 
BRANCH  22  23
HETATM   23  O   UNL     1      43.646 -16.521   1.859  1.00  0.00    -0.389 OA
HETATM   24  H   UNL     1      43.114 -15.758   1.574  1.00  0.00     0.210 HD
ENDBRANCH  22  23
BRANCH  22  25
HETATM   25  C   UNL     1      43.342 -18.552   3.011  1.00  0.00     0.081 A 
HETATM   26  O   UNL     1      43.827 -19.023   4.201  1.00  0.00    -0.324 OA
HETATM   27  C   UNL     1      44.093 -20.343   4.030  1.00  0.00     0.142 A 
HETATM   28  C   UNL     1      43.778 -20.737   2.751  1.00  0.00     0.027 A 
HETATM   29  C   UNL     1      43.289 -19.584   2.095  1.00  0.00     0.037 A 
ENDBRANCH  22  25
ENDBRANCH  21  22
ENDBRANCH  19  21
ENDBRANCH   3  19
TORSDOF 7
ENDMDL
MODEL 9
REMARK VINA RESULT:      -7.4      4.455      6.599
REMARK  7 active torsions:
REMARK  status: ('A' for Active; 'I' for Inactive)
REMARK    1  A    between atoms: C_7  and  C_8 
REMARK    2  A    between atoms: C_8  and  N_9 
REMARK       I    between atoms: N_9  and  C_10 
REMARK       I    between atoms: C_10  and  N_11 
REMARK    3  A    between atoms: N_11  and  C_12 
REMARK    4  A    between atoms: C_12  and  C_13 
REMARK    5  A    between atoms: C_13  and  C_14 
REMARK    6  A    between atoms: C_14  and  O_15 
REMARK    7  A    between atoms: C_14  and  C_16 
ROOT
HETATM    1  N   UNL     1      41.738 -14.859   7.044  1.00  0.00    -0.337 N 
HETATM    2  C   UNL     1      41.891 -13.560   6.626  1.00  0.00     0.316 C 
HETATM    3  N   UNL     1      40.687 -12.955   6.418  1.00  0.00    -0.339 N 
HETATM    4  O   UNL     1      42.988 -13.049   6.429  1.00  0.00    -0.247 OA
HETATM    5  H   UNL     1      40.897 -15.005   7.588  1.00  0.00     0.164 HD
HETATM    6  H   UNL     1      39.875 -13.550   6.326  1.00  0.00     0.164 HD
ENDROOT
BRANCH   1   7
HETATM    7  C   UNL     1      42.892 -15.651   7.430  1.00  0.00     0.183 C 
BRANCH   7   8
HETATM    8  C   UNL     1      43.117 -16.752   6.460  1.00  0.00     0.044 A 
HETATM    9  N   UNL     1      43.364 -18.061   6.855  1.00  0.00    -0.343 N 
HETATM   10  C   UNL     1      43.575 -18.844   5.809  1.00  0.00     0.112 A 
HETATM   11  H   UNL     1      43.437 -18.334   7.843  1.00  0.00     0.167 HD
HETATM   12  N   UNL     1      43.443 -18.089   4.699  1.00  0.00    -0.311 N 
HETATM   13  C   UNL     1      43.906 -20.286   5.736  1.00  0.00     0.049 A 
HETATM   14  C   UNL     1      43.607 -18.608   3.416  1.00  0.00     0.014 A 
HETATM   15  C   UNL     1      43.152 -16.785   5.082  1.00  0.00     0.125 A 
HETATM   16  C   UNL     1      43.459 -17.738   2.204  1.00  0.00     0.068 C 
HETATM   17  C   UNL     1      43.909 -19.924   3.337  1.00  0.00     0.025 A 
HETATM   18  C   UNL     1      44.064 -20.791   4.501  1.00  0.00     0.006 A 
ENDBRANCH   7   8
ENDBRANCH   1   7
BRANCH   3  19
HETATM   19  C   UNL     1      40.509 -11.556   6.006  1.00  0.00     0.085 C 
HETATM   20  C   UNL     1      39.432 -10.857   6.834  1.00  0.00     0.032 C 
BRANCH  19  21
HETATM   21  C   UNL     1      40.300 -11.473   4.480  1.00  0.00     0.063 C 
BRANCH  21  22
HETATM   22  C   UNL     1      41.554 -11.241   3.629  1.00  0.00     0.177 C 
BRANCH  22  23
HETATM   23  O   UNL     1      42.587 -10.660   4.423  1.00  0.00    -0.389 OA
HETATM   24  H   UNL     1      42.202 -10.477   5.297  1.00  0.00     0.210 HD
ENDBRANCH  22  23
BRANCH  22  25
HETATM   25  C   UNL     1      42.106 -12.470   2.994  1.00  0.00     0.081 A 
HETATM   26  O   UNL     1      41.223 -13.265   2.315  1.00  0.00    -0.324 OA
HETATM   27  C   UNL     1      41.929 -14.308   1.811  1.00  0.00     0.142 A 
HETATM   28  C   UNL     1      43.259 -14.196   2.144  1.00  0.00     0.027 A 
HETATM   29  C   UNL     1      43.374 -13.008   2.903  1.00  0.00     0.037 A 
ENDBRANCH  22  25
ENDBRANCH  21  22
ENDBRANCH  19  21
ENDBRANCH   3  19
TORSDOF 7
ENDMDL
MODEL 10
REMARK VINA RESULT:      -7.3      2.703      9.637
REMARK  7 active torsions:
REMARK  status: ('A' for Active; 'I' for Inactive)
REMARK    1  A    between atoms: C_7  and  C_8 
REMARK    2  A    between atoms: C_8  and  N_9 
REMARK       I    between atoms: N_9  and  C_10 
REMARK       I    between atoms: C_10  and  N_11 
REMARK    3  A    between atoms: N_11  and  C_12 
REMARK    4  A    between atoms: C_12  and  C_13 
REMARK    5  A    between atoms: C_13  and  C_14 
REMARK    6  A    between atoms: C_14  and  O_15 
REMARK    7  A    between atoms: C_14  and  C_16 
ROOT
HETATM    1  N   UNL     1      43.172 -12.319   6.919  1.00  0.00    -0.337 N 
HETATM    2  C   UNL     1      42.236 -12.850   6.065  1.00  0.00     0.316 C 
HETATM    3  N   UNL     1      41.874 -14.109   6.440  1.00  0.00    -0.339 N 
HETATM    4  O   UNL     1      41.829 -12.257   5.072  1.00  0.00    -0.247 OA
HETATM    5  H   UNL     1      43.078 -12.653   7.869  1.00  0.00     0.164 HD
HETATM    6  H   UNL     1      42.479 -14.597   7.084  1.00  0.00     0.164 HD
ENDROOT
BRANCH   1   7
HETATM    7  C   UNL     1      43.613 -10.944   6.767  1.00  0.00     0.183 C 
BRANCH   7   8
HETATM    8  C   UNL     1      43.489 -10.212   8.054  1.00  0.00     0.044 A 
HETATM    9  N   UNL     1      43.473 -10.856   9.284  1.00  0.00    -0.343 N 
HETATM   10  C   UNL     1      43.310  -9.992  10.274  1.00  0.00     0.112 A 
HETATM   11  H   UNL     1      43.514 -11.879   9.372  1.00  0.00     0.167 HD
HETATM   12  N   UNL     1      43.245  -8.758   9.732  1.00  0.00    -0.311 N 
HETATM   13  C   UNL     1      43.198 -10.210  11.734  1.00  0.00     0.049 A 
HETATM   14  C   UNL     1      43.071  -7.610  10.504  1.00  0.00     0.014 A 
HETATM   15  C   UNL     1      43.361  -8.872   8.353  1.00  0.00     0.125 A 
HETATM   16  C   UNL     1      42.997  -6.255   9.869  1.00  0.00     0.068 C 
HETATM   17  C   UNL     1      42.968  -7.797  11.840  1.00  0.00     0.025 A 
HETATM   18  C   UNL     1      43.030  -9.106  12.482  1.00  0.00     0.006 A 
ENDBRANCH   7   8
ENDBRANCH   1   7
BRANCH   3  19
HETATM   19  C   UNL     1      40.865 -14.932   5.757  1.00  0.00     0.085 C 
HETATM   20  C   UNL     1      40.004 -15.708   6.753  1.00  0.00     0.032 C 
BRANCH  19  21
HETATM   21  C   UNL     1      41.532 -15.800   4.671  1.00  0.00     0.063 C 
BRANCH  21  22
HETATM   22  C   UNL     1      42.949 -16.303   4.972  1.00  0.00     0.177 C 
BRANCH  22  23
HETATM   23  O   UNL     1      43.068 -16.644   6.351  1.00  0.00    -0.389 OA
HETATM   24  H   UNL     1      43.113 -17.614   6.399  1.00  0.00     0.210 HD
ENDBRANCH  22  23
BRANCH  22  25
HETATM   25  C   UNL     1      43.366 -17.489   4.173  1.00  0.00     0.081 A 
HETATM   26  O   UNL     1      43.853 -18.562   4.867  1.00  0.00    -0.324 OA
HETATM   27  C   UNL     1      44.155 -19.523   3.958  1.00  0.00     0.142 A 
HETATM   28  C   UNL     1      43.861 -19.093   2.685  1.00  0.00     0.027 A 
HETATM   29  C   UNL     1      43.347 -17.782   2.824  1.00  0.00     0.037 A 
ENDBRANCH  22  25
ENDBRANCH  21  22
ENDBRANCH  19  21
ENDBRANCH   3  19
TORSDOF 7
ENDMDL
