MODEL 1
REMARK VINA RESULT:      -9.8      0.000      0.000
REMARK  5 active torsions:
REMARK  status: ('A' for Active; 'I' for Inactive)
REMARK    1  A    between atoms: C_4  and  C_5 
REMARK       I    between atoms: C_5  and  N_6 
REMARK    2  A    between atoms: N_6  and  C_7 
REMARK    3  A    between atoms: C_7  and  C_8 
REMARK       I    between atoms: C_8  and  N_9 
REMARK    4  A    between atoms: N_9  and  C_10 
REMARK    5  A    between atoms: C_13  and  C_14 
ROOT
HETATM    1  C   UNL     1      45.181 -10.581   7.583  1.00  0.00     0.241 C 
HETATM    2  N   UNL     1      43.993 -11.243   7.776  1.00  0.00    -0.304 N 
HETATM    3  O   UNL     1      46.006 -10.796   6.699  1.00  0.00    -0.271 OA
HETATM    4  H   UNL     1      43.466 -11.080   8.628  1.00  0.00     0.171 HD
ENDROOT
BRANCH   2   5
HETATM    5  C   UNL     1      43.543 -12.239   6.962  1.00  0.00     0.173 A 
HETATM    6  S   UNL     1      42.163 -11.808   6.051  1.00  0.00    -0.061 SA
HETATM    7  C   UNL     1      42.141 -13.389   5.380  1.00  0.00     0.086 A 
HETATM    8  C   UNL     1      43.185 -14.131   5.897  1.00  0.00     0.078 A 
HETATM    9  N   UNL     1      43.998 -13.451   6.792  1.00  0.00    -0.223 NA
BRANCH   8  10
HETATM   10  C   UNL     1      43.467 -15.552   5.669  1.00  0.00     0.021 A 
HETATM   11  C   UNL     1      43.418 -16.272   4.434  1.00  0.00     0.004 A 
HETATM   12  C   UNL     1      43.698 -17.609   4.740  1.00  0.00     0.043 A 
HETATM   13  C   UNL     1      43.175 -15.947   3.081  1.00  0.00     0.014 A 
HETATM   14  C   UNL     1      43.714 -18.627   3.777  1.00  0.00     0.030 A 
HETATM   15  N   UNL     1      43.940 -17.680   6.093  1.00  0.00    -0.364 N 
HETATM   16  C   UNL     1      43.452 -18.274   2.452  1.00  0.00     0.002 A 
HETATM   17  C   UNL     1      43.192 -16.953   2.105  1.00  0.00     0.001 A 
HETATM   18  H   UNL     1      44.177 -18.527   6.592  1.00  0.00     0.165 HD
HETATM   19  C   UNL     1      43.815 -16.446   6.660  1.00  0.00     0.103 A 
ENDBRANCH   8  10
ENDBRANCH   2   5
BRANCH   1  20
HETATM   20  C   UNL     1      45.515  -9.589   8.713  1.00  0.00     0.226 C 
BRANCH  20  21
HETATM   21  N   UNL     1      44.450  -9.295   9.667  1.00  0.00    -0.348 N 
HETATM   22  C   UNL     1      44.281 -10.025  10.820  1.00  0.00     0.252 C 
HETATM   23  O   UNL     1      44.854 -11.096  10.996  1.00  0.00    -0.268 OA
HETATM   24  H   UNL     1      43.844  -8.508   9.472  1.00  0.00     0.163 HD
BRANCH  22  25
HETATM   25  C   UNL     1      43.297  -9.521  11.810  1.00  0.00     0.033 A 
HETATM   26  C   UNL     1      42.086 -10.211  11.943  1.00  0.00     0.023 A 
HETATM   27  C   UNL     1      41.129  -9.789  12.872  1.00  0.00    -0.061 A 
HETATM   28  C   UNL     1      39.814 -10.501  12.993  1.00  0.00     0.048 C 
HETATM   29  C   UNL     1      41.401  -8.668  13.666  1.00  0.00     0.013 A 
HETATM   30  C   UNL     1      42.623  -7.986  13.563  1.00  0.00    -0.061 A 
HETATM   31  C   UNL     1      43.569  -8.413  12.623  1.00  0.00     0.023 A 
HETATM   32  C   UNL     1      42.889  -6.798  14.441  1.00  0.00     0.048 C 
ENDBRANCH  22  25
ENDBRANCH  20  21
ENDBRANCH   1  20
TORSDOF 5
ENDMDL
MODEL 2
REMARK VINA RESULT:      -9.8      0.218      1.614
REMARK  5 active torsions:
REMARK  status: ('A' for Active; 'I' for Inactive)
REMARK    1  A    between atoms: C_4  and  C_5 
REMARK       I    between atoms: C_5  and  N_6 
REMARK    2  A    between atoms: N_6  and  C_7 
REMARK    3  A    between atoms: C_7  and  C_8 
REMARK       I    between atoms: C_8  and  N_9 
REMARK    4  A    between atoms: N_9  and  C_10 
REMARK    5  A    between atoms: C_13  and  C_14 
ROOT
HETATM    1  C   UNL     1      45.033 -10.711   7.420  1.00  0.00     0.241 C 
HETATM    2  N   UNL     1      43.792 -11.290   7.545  1.00  0.00    -0.304 N 
HETATM    3  O   UNL     1      45.929 -11.057   6.655  1.00  0.00    -0.271 OA
HETATM    4  H   UNL     1      43.191 -11.014   8.314  1.00  0.00     0.171 HD
ENDROOT
BRANCH   2   5
HETATM    5  C   UNL     1      43.368 -12.339   6.785  1.00  0.00     0.173 A 
HETATM    6  S   UNL     1      41.942 -12.014   5.903  1.00  0.00    -0.061 SA
HETATM    7  C   UNL     1      41.980 -13.620   5.296  1.00  0.00     0.086 A 
HETATM    8  C   UNL     1      43.075 -14.288   5.808  1.00  0.00     0.078 A 
HETATM    9  N   UNL     1      43.879 -13.532   6.648  1.00  0.00    -0.223 NA
BRANCH   8  10
HETATM   10  C   UNL     1      43.421 -15.701   5.627  1.00  0.00     0.021 A 
HETATM   11  C   UNL     1      43.405 -16.464   4.416  1.00  0.00     0.004 A 
HETATM   12  C   UNL     1      43.746 -17.776   4.766  1.00  0.00     0.043 A 
HETATM   13  C   UNL     1      43.146 -16.196   3.053  1.00  0.00     0.014 A 
HETATM   14  C   UNL     1      43.808 -18.824   3.838  1.00  0.00     0.030 A 
HETATM   15  N   UNL     1      43.991 -17.790   6.120  1.00  0.00    -0.364 N 
HETATM   16  C   UNL     1      43.528 -18.527   2.502  1.00  0.00     0.002 A 
HETATM   17  C   UNL     1      43.208 -17.231   2.112  1.00  0.00     0.001 A 
HETATM   18  H   UNL     1      44.267 -18.609   6.646  1.00  0.00     0.165 HD
HETATM   19  C   UNL     1      43.811 -16.545   6.646  1.00  0.00     0.103 A 
ENDBRANCH   8  10
ENDBRANCH   2   5
BRANCH   1  20
HETATM   20  C   UNL     1      45.308  -9.628   8.479  1.00  0.00     0.226 C 
BRANCH  20  21
HETATM   21  N   UNL     1      44.276  -9.417   9.490  1.00  0.00    -0.348 N 
HETATM   22  C   UNL     1      44.324 -10.028  10.720  1.00  0.00     0.252 C 
HETATM   23  O   UNL     1      45.096 -10.954  10.952  1.00  0.00    -0.268 OA
HETATM   24  H   UNL     1      43.524  -8.777   9.270  1.00  0.00     0.163 HD
BRANCH  22  25
HETATM   25  C   UNL     1      43.335  -9.593  11.738  1.00  0.00     0.033 A 
HETATM   26  C   UNL     1      43.643  -8.469  12.515  1.00  0.00     0.023 A 
HETATM   27  C   UNL     1      42.740  -8.006  13.478  1.00  0.00    -0.061 A 
HETATM   28  C   UNL     1      43.079  -6.826  14.341  1.00  0.00     0.048 C 
HETATM   29  C   UNL     1      41.525  -8.681  13.652  1.00  0.00     0.013 A 
HETATM   30  C   UNL     1      41.193  -9.789  12.858  1.00  0.00    -0.061 A 
HETATM   31  C   UNL     1      42.110 -10.249  11.904  1.00  0.00     0.023 A 
HETATM   32  C   UNL     1      39.876 -10.481  13.058  1.00  0.00     0.048 C 
ENDBRANCH  22  25
ENDBRANCH  20  21
ENDBRANCH   1  20
TORSDOF 5
ENDMDL
MODEL 3
REMARK VINA RESULT:      -9.8      1.378      2.025
REMARK  5 active torsions:
REMARK  status: ('A' for Active; 'I' for Inactive)
REMARK    1  A    between atoms: C_4  and  C_5 
REMARK       I    between atoms: C_5  and  N_6 
REMARK    2  A    between atoms: N_6  and  C_7 
REMARK    3  A    between atoms: C_7  and  C_8 
REMARK       I    between atoms: C_8  and  N_9 
REMARK    4  A    between atoms: N_9  and  C_10 
REMARK    5  A    between atoms: C_13  and  C_14 
ROOT
HETATM    1  C   UNL     1      43.590 -11.437   6.979  1.00  0.00     0.241 C 
HETATM    2  N   UNL     1      43.243 -12.752   7.183  1.00  0.00    -0.304 N 
HETATM    3  O   UNL     1      43.468 -10.799   5.937  1.00  0.00    -0.271 OA
HETATM    4  H   UNL     1      43.528 -13.213   8.040  1.00  0.00     0.171 HD
ENDROOT
BRANCH   2   5
HETATM    5  C   UNL     1      42.668 -13.537   6.229  1.00  0.00     0.173 A 
HETATM    6  S   UNL     1      40.989 -13.280   6.050  1.00  0.00    -0.061 SA
HETATM    7  C   UNL     1      40.951 -14.510   4.853  1.00  0.00     0.086 A 
HETATM    8  C   UNL     1      42.219 -15.029   4.675  1.00  0.00     0.078 A 
HETATM    9  N   UNL     1      43.204 -14.445   5.458  1.00  0.00    -0.223 NA
BRANCH   8  10
HETATM   10  C   UNL     1      42.608 -16.160   3.827  1.00  0.00     0.021 A 
HETATM   11  C   UNL     1      43.116 -17.433   4.236  1.00  0.00     0.004 A 
HETATM   12  C   UNL     1      43.404 -18.143   3.064  1.00  0.00     0.043 A 
HETATM   13  C   UNL     1      43.362 -18.077   5.469  1.00  0.00     0.014 A 
HETATM   14  C   UNL     1      43.949 -19.435   3.066  1.00  0.00     0.030 A 
HETATM   15  N   UNL     1      43.050 -17.344   2.001  1.00  0.00    -0.364 N 
HETATM   16  C   UNL     1      44.196 -20.034   4.303  1.00  0.00     0.002 A 
HETATM   17  C   UNL     1      43.902 -19.370   5.489  1.00  0.00     0.001 A 
HETATM   18  H   UNL     1      43.142 -17.607   1.029  1.00  0.00     0.165 HD
HETATM   19  C   UNL     1      42.559 -16.153   2.448  1.00  0.00     0.103 A 
ENDBRANCH   8  10
ENDBRANCH   2   5
BRANCH   1  20
HETATM   20  C   UNL     1      44.335 -10.813   8.173  1.00  0.00     0.226 C 
BRANCH  20  21
HETATM   21  N   UNL     1      43.526 -10.426   9.325  1.00  0.00    -0.348 N 
HETATM   22  C   UNL     1      44.062 -10.303  10.585  1.00  0.00     0.252 C 
HETATM   23  O   UNL     1      45.179 -10.734  10.857  1.00  0.00    -0.268 OA
HETATM   24  H   UNL     1      42.549 -10.218   9.168  1.00  0.00     0.163 HD
BRANCH  22  25
HETATM   25  C   UNL     1      43.200  -9.716  11.640  1.00  0.00     0.033 A 
HETATM   26  C   UNL     1      41.975 -10.340  11.910  1.00  0.00     0.023 A 
HETATM   27  C   UNL     1      41.129  -9.838  12.905  1.00  0.00    -0.061 A 
HETATM   28  C   UNL     1      39.799 -10.478  13.173  1.00  0.00     0.048 C 
HETATM   29  C   UNL     1      41.526  -8.706  13.628  1.00  0.00     0.013 A 
HETATM   30  C   UNL     1      42.764  -8.091  13.387  1.00  0.00    -0.061 A 
HETATM   31  C   UNL     1      43.598  -8.597  12.381  1.00  0.00     0.023 A 
HETATM   32  C   UNL     1      43.166  -6.888  14.190  1.00  0.00     0.048 C 
ENDBRANCH  22  25
ENDBRANCH  20  21
ENDBRANCH   1  20
TORSDOF 5
ENDMDL
MODEL 4
REMARK VINA RESULT:      -9.2      2.383      9.968
REMARK  5 active torsions:
REMARK  status: ('A' for Active; 'I' for Inactive)
REMARK    1  A    between atoms: C_4  and  C_5 
REMARK       I    between atoms: C_5  and  N_6 
REMARK    2  A    between atoms: N_6  and  C_7 
REMARK    3  A    between atoms: C_7  and  C_8 
REMARK       I    between atoms: C_8  and  N_9 
REMARK    4  A    between atoms: N_9  and  C_10 
REMARK    5  A    between atoms: C_13  and  C_14 
ROOT
HETATM    1  C   UNL     1      42.753 -11.612   4.203  1.00  0.00     0.241 C 
HETATM    2  N   UNL     1      42.977 -12.034   5.491  1.00  0.00    -0.304 N 
HETATM    3  O   UNL     1      43.041 -10.516   3.729  1.00  0.00    -0.271 OA
HETATM    4  H   UNL     1      42.561 -12.902   5.809  1.00  0.00     0.171 HD
ENDROOT
BRANCH   2   5
HETATM    5  C   UNL     1      43.601 -11.275   6.436  1.00  0.00     0.173 A 
HETATM    6  S   UNL     1      45.267 -11.616   6.597  1.00  0.00    -0.061 SA
HETATM    7  C   UNL     1      45.360 -10.452   7.856  1.00  0.00     0.086 A 
HETATM    8  C   UNL     1      44.117  -9.888   8.064  1.00  0.00     0.078 A 
HETATM    9  N   UNL     1      43.116 -10.355   7.225  1.00  0.00    -0.223 NA
BRANCH   8  10
HETATM   10  C   UNL     1      43.736  -8.931   9.108  1.00  0.00     0.021 A 
HETATM   11  C   UNL     1      43.365  -9.207  10.462  1.00  0.00     0.004 A 
HETATM   12  C   UNL     1      43.022  -7.978  11.040  1.00  0.00     0.043 A 
HETATM   13  C   UNL     1      43.283 -10.359  11.276  1.00  0.00     0.014 A 
HETATM   14  C   UNL     1      42.578  -7.853  12.363  1.00  0.00     0.030 A 
HETATM   15  N   UNL     1      43.215  -7.006  10.085  1.00  0.00    -0.364 N 
HETATM   16  C   UNL     1      42.492  -9.014  13.134  1.00  0.00     0.002 A 
HETATM   17  C   UNL     1      42.845 -10.250  12.602  1.00  0.00     0.001 A 
HETATM   18  H   UNL     1      43.054  -6.018  10.230  1.00  0.00     0.165 HD
HETATM   19  C   UNL     1      43.656  -7.566   8.923  1.00  0.00     0.103 A 
ENDBRANCH   8  10
ENDBRANCH   2   5
BRANCH   1  20
HETATM   20  C   UNL     1      41.919 -12.606   3.374  1.00  0.00     0.226 C 
BRANCH  20  21
HETATM   21  N   UNL     1      42.090 -14.024   3.680  1.00  0.00    -0.348 N 
HETATM   22  C   UNL     1      42.952 -14.825   2.970  1.00  0.00     0.252 C 
HETATM   23  O   UNL     1      43.443 -14.462   1.905  1.00  0.00    -0.268 OA
HETATM   24  H   UNL     1      41.570 -14.405   4.460  1.00  0.00     0.163 HD
BRANCH  22  25
HETATM   25  C   UNL     1      43.194 -16.194   3.487  1.00  0.00     0.033 A 
HETATM   26  C   UNL     1      43.240 -16.374   4.875  1.00  0.00     0.023 A 
HETATM   27  C   UNL     1      43.450 -17.646   5.417  1.00  0.00    -0.061 A 
HETATM   28  C   UNL     1      43.537 -17.840   6.903  1.00  0.00     0.048 C 
HETATM   29  C   UNL     1      43.611 -18.736   4.553  1.00  0.00     0.013 A 
HETATM   30  C   UNL     1      43.538 -18.574   3.161  1.00  0.00    -0.061 A 
HETATM   31  C   UNL     1      43.337 -17.293   2.630  1.00  0.00     0.023 A 
HETATM   32  C   UNL     1      43.700 -19.764   2.263  1.00  0.00     0.048 C 
ENDBRANCH  22  25
ENDBRANCH  20  21
ENDBRANCH   1  20
TORSDOF 5
ENDMDL
MODEL 5
REMARK VINA RESULT:      -8.9      3.657      9.738
REMARK  5 active torsions:
REMARK  status: ('A' for Active; 'I' for Inactive)
REMARK    1  A    between atoms: C_4  and  C_5 
REMARK       I    between atoms: C_5  and  N_6 
REMARK    2  A    between atoms: N_6  and  C_7 
REMARK    3  A    between atoms: C_7  and  C_8 
REMARK       I    between atoms: C_8  and  N_9 
REMARK    4  A    between atoms: N_9  and  C_10 
REMARK    5  A    between atoms: C_13  and  C_14 
ROOT
HETATM    1  C   UNL     1      39.700 -12.930   2.954  1.00  0.00     0.241 C 
HETATM    2  N   UNL     1      40.916 -12.705   3.553  1.00  0.00    -0.304 N 
HETATM    3  O   UNL     1      38.702 -12.217   3.029  1.00  0.00    -0.271 OA
HETATM    4  H   UNL     1      41.618 -13.438   3.542  1.00  0.00     0.171 HD
ENDROOT
BRANCH   2   5
HETATM    5  C   UNL     1      41.194 -11.605   4.308  1.00  0.00     0.173 A 
HETATM    6  S   UNL     1      41.408 -10.180   3.391  1.00  0.00    -0.061 SA
HETATM    7  C   UNL     1      41.740  -9.324   4.841  1.00  0.00     0.086 A 
HETATM    8  C   UNL     1      41.665 -10.183   5.920  1.00  0.00     0.078 A 
HETATM    9  N   UNL     1      41.329 -11.491   5.602  1.00  0.00    -0.223 NA
BRANCH   8  10
HETATM   10  C   UNL     1      41.978  -9.885   7.321  1.00  0.00     0.021 A 
HETATM   11  C   UNL     1      43.235 -10.015   7.990  1.00  0.00     0.004 A 
HETATM   12  C   UNL     1      43.012  -9.677   9.330  1.00  0.00     0.043 A 
HETATM   13  C   UNL     1      44.549 -10.377   7.616  1.00  0.00     0.014 A 
HETATM   14  C   UNL     1      44.017  -9.713  10.306  1.00  0.00     0.030 A 
HETATM   15  N   UNL     1      41.687  -9.324   9.451  1.00  0.00    -0.364 N 
HETATM   16  C   UNL     1      45.300 -10.092   9.905  1.00  0.00     0.002 A 
HETATM   17  C   UNL     1      45.566 -10.414   8.579  1.00  0.00     0.001 A 
HETATM   18  H   UNL     1      41.248  -9.025  10.310  1.00  0.00     0.165 HD
HETATM   19  C   UNL     1      41.058  -9.433   8.245  1.00  0.00     0.103 A 
ENDBRANCH   8  10
ENDBRANCH   2   5
BRANCH   1  20
HETATM   20  C   UNL     1      39.606 -14.303   2.264  1.00  0.00     0.226 C 
BRANCH  20  21
HETATM   21  N   UNL     1      40.466 -15.362   2.785  1.00  0.00    -0.348 N 
HETATM   22  C   UNL     1      41.625 -15.739   2.150  1.00  0.00     0.252 C 
HETATM   23  O   UNL     1      41.880 -15.381   1.004  1.00  0.00    -0.268 OA
HETATM   24  H   UNL     1      40.198 -15.801   3.656  1.00  0.00     0.163 HD
BRANCH  22  25
HETATM   25  C   UNL     1      42.519 -16.683   2.865  1.00  0.00     0.033 A 
HETATM   26  C   UNL     1      42.746 -17.939   2.287  1.00  0.00     0.023 A 
HETATM   27  C   UNL     1      43.593 -18.862   2.910  1.00  0.00    -0.061 A 
HETATM   28  C   UNL     1      43.811 -20.223   2.316  1.00  0.00     0.048 C 
HETATM   29  C   UNL     1      44.210 -18.512   4.118  1.00  0.00     0.013 A 
HETATM   30  C   UNL     1      44.013 -17.246   4.691  1.00  0.00    -0.061 A 
HETATM   31  C   UNL     1      43.156 -16.334   4.062  1.00  0.00     0.023 A 
HETATM   32  C   UNL     1      44.701 -16.897   5.978  1.00  0.00     0.048 C 
ENDBRANCH  22  25
ENDBRANCH  20  21
ENDBRANCH   1  20
TORSDOF 5
ENDMDL
MODEL 6
REMARK VINA RESULT:      -8.9      2.566      3.427
REMARK  5 active torsions:
REMARK  status: ('A' for Active; 'I' for Inactive)
REMARK    1  A    between atoms: C_4  and  C_5 
REMARK       I    between atoms: C_5  and  N_6 
REMARK    2  A    between atoms: N_6  and  C_7 
REMARK    3  A    between atoms: C_7  and  C_8 
REMARK       I    between atoms: C_8  and  N_9 
REMARK    4  A    between atoms: N_9  and  C_10 
REMARK    5  A    between atoms: C_13  and  C_14 
ROOT
HETATM    1  C   UNL     1      40.353 -12.057   6.123  1.00  0.00     0.241 C 
HETATM    2  N   UNL     1      41.596 -12.149   5.543  1.00  0.00    -0.304 N 
HETATM    3  O   UNL     1      39.471 -12.912   6.107  1.00  0.00    -0.271 OA
HETATM    4  H   UNL     1      42.183 -11.323   5.494  1.00  0.00     0.171 HD
ENDROOT
BRANCH   2   5
HETATM    5  C   UNL     1      42.039 -13.253   4.879  1.00  0.00     0.173 A 
HETATM    6  S   UNL     1      41.800 -13.179   3.190  1.00  0.00    -0.061 SA
HETATM    7  C   UNL     1      42.475 -14.751   3.048  1.00  0.00     0.086 A 
HETATM    8  C   UNL     1      42.833 -15.220   4.297  1.00  0.00     0.078 A 
HETATM    9  N   UNL     1      42.597 -14.339   5.341  1.00  0.00    -0.223 NA
BRANCH   8  10
HETATM   10  C   UNL     1      43.348 -16.552   4.635  1.00  0.00     0.021 A 
HETATM   11  C   UNL     1      43.374 -17.720   3.811  1.00  0.00     0.004 A 
HETATM   12  C   UNL     1      43.894 -18.754   4.600  1.00  0.00     0.043 A 
HETATM   13  C   UNL     1      43.023 -18.029   2.478  1.00  0.00     0.014 A 
HETATM   14  C   UNL     1      44.047 -20.067   4.137  1.00  0.00     0.030 A 
HETATM   15  N   UNL     1      44.200 -18.218   5.830  1.00  0.00    -0.364 N 
HETATM   16  C   UNL     1      43.673 -20.341   2.820  1.00  0.00     0.002 A 
HETATM   17  C   UNL     1      43.173 -19.336   1.998  1.00  0.00     0.001 A 
HETATM   18  H   UNL     1      44.601 -18.737   6.600  1.00  0.00     0.165 HD
HETATM   19  C   UNL     1      43.887 -16.891   5.858  1.00  0.00     0.103 A 
ENDBRANCH   8  10
ENDBRANCH   2   5
BRANCH   1  20
HETATM   20  C   UNL     1      40.053 -10.662   6.701  1.00  0.00     0.226 C 
BRANCH  20  21
HETATM   21  N   UNL     1      41.007 -10.131   7.670  1.00  0.00    -0.348 N 
HETATM   22  C   UNL     1      40.606  -9.415   8.773  1.00  0.00     0.252 C 
HETATM   23  O   UNL     1      39.462  -8.983   8.881  1.00  0.00    -0.268 OA
HETATM   24  H   UNL     1      41.989 -10.330   7.524  1.00  0.00     0.163 HD
BRANCH  22  25
HETATM   25  C   UNL     1      41.636  -9.094   9.791  1.00  0.00     0.033 A 
HETATM   26  C   UNL     1      42.927  -9.604   9.603  1.00  0.00     0.023 A 
HETATM   27  C   UNL     1      43.941  -9.320  10.524  1.00  0.00    -0.061 A 
HETATM   28  C   UNL     1      45.317  -9.894  10.349  1.00  0.00     0.048 C 
HETATM   29  C   UNL     1      43.647  -8.517  11.633  1.00  0.00     0.013 A 
HETATM   30  C   UNL     1      42.366  -7.976  11.816  1.00  0.00    -0.061 A 
HETATM   31  C   UNL     1      41.356  -8.276  10.892  1.00  0.00     0.023 A 
HETATM   32  C   UNL     1      42.088  -7.107  13.008  1.00  0.00     0.048 C 
ENDBRANCH  22  25
ENDBRANCH  20  21
ENDBRANCH   1  20
TORSDOF 5
ENDMDL
MODEL 7
REMARK VINA RESULT:      -8.8      3.923      9.769
REMARK  5 active torsions:
REMARK  status: ('A' for Active; 'I' for Inactive)
REMARK    1  A    between atoms: C_4  and  C_5 
REMARK       I    between atoms: C_5  and  N_6 
REMARK    2  A    between atoms: N_6  and  C_7 
REMARK    3  A    between atoms: C_7  and  C_8 
REMARK       I    between atoms: C_8  and  N_9 
REMARK    4  A    between atoms: N_9  and  C_10 
REMARK    5  A    between atoms: C_13  and  C_14 
ROOT
HETATM    1  C   UNL     1      40.077 -13.220   2.357  1.00  0.00     0.241 C 
HETATM    2  N   UNL     1      41.181 -12.420   2.533  1.00  0.00    -0.304 N 
HETATM    3  O   UNL     1      39.031 -13.177   2.998  1.00  0.00    -0.271 OA
HETATM    4  H   UNL     1      42.041 -12.646   2.046  1.00  0.00     0.171 HD
ENDROOT
BRANCH   2   5
HETATM    5  C   UNL     1      41.247 -11.418   3.454  1.00  0.00     0.173 A 
HETATM    6  S   UNL     1      40.808  -9.888   2.835  1.00  0.00    -0.061 SA
HETATM    7  C   UNL     1      41.145  -9.195   4.369  1.00  0.00     0.086 A 
HETATM    8  C   UNL     1      41.567 -10.178   5.243  1.00  0.00     0.078 A 
HETATM    9  N   UNL     1      41.601 -11.458   4.710  1.00  0.00    -0.223 NA
BRANCH   8  10
HETATM   10  C   UNL     1      42.050 -10.001   6.617  1.00  0.00     0.021 A 
HETATM   11  C   UNL     1      43.350 -10.290   7.137  1.00  0.00     0.004 A 
HETATM   12  C   UNL     1      43.301 -10.021   8.510  1.00  0.00     0.043 A 
HETATM   13  C   UNL     1      44.577 -10.746   6.603  1.00  0.00     0.014 A 
HETATM   14  C   UNL     1      44.393 -10.214   9.367  1.00  0.00     0.030 A 
HETATM   15  N   UNL     1      42.037  -9.556   8.793  1.00  0.00    -0.364 N 
HETATM   16  C   UNL     1      45.584 -10.682   8.809  1.00  0.00     0.002 A 
HETATM   17  C   UNL     1      45.679 -10.939   7.446  1.00  0.00     0.001 A 
HETATM   18  H   UNL     1      41.720  -9.275   9.711  1.00  0.00     0.165 HD
HETATM   19  C   UNL     1      41.279  -9.528   7.659  1.00  0.00     0.103 A 
ENDBRANCH   8  10
ENDBRANCH   2   5
BRANCH   1  20
HETATM   20  C   UNL     1      40.305 -14.354   1.341  1.00  0.00     0.226 C 
BRANCH  20  21
HETATM   21  N   UNL     1      40.966 -15.559   1.836  1.00  0.00    -0.348 N 
HETATM   22  C   UNL     1      42.325 -15.616   2.033  1.00  0.00     0.252 C 
HETATM   23  O   UNL     1      43.079 -14.757   1.588  1.00  0.00    -0.268 OA
HETATM   24  H   UNL     1      40.386 -16.356   2.062  1.00  0.00     0.163 HD
BRANCH  22  25
HETATM   25  C   UNL     1      42.865 -16.815   2.722  1.00  0.00     0.033 A 
HETATM   26  C   UNL     1      43.112 -16.727   4.098  1.00  0.00     0.023 A 
HETATM   27  C   UNL     1      43.606 -17.831   4.800  1.00  0.00    -0.061 A 
HETATM   28  C   UNL     1      43.910 -17.733   6.266  1.00  0.00     0.048 C 
HETATM   29  C   UNL     1      43.848 -19.025   4.108  1.00  0.00     0.013 A 
HETATM   30  C   UNL     1      43.575 -19.134   2.736  1.00  0.00    -0.061 A 
HETATM   31  C   UNL     1      43.090 -18.018   2.042  1.00  0.00     0.023 A 
HETATM   32  C   UNL     1      43.830 -20.432   2.027  1.00  0.00     0.048 C 
ENDBRANCH  22  25
ENDBRANCH  20  21
ENDBRANCH   1  20
TORSDOF 5
ENDMDL
MODEL 8
REMARK VINA RESULT:      -8.6      6.104      9.894
REMARK  5 active torsions:
REMARK  status: ('A' for Active; 'I' for Inactive)
REMARK    1  A    between atoms: C_4  and  C_5 
REMARK       I    between atoms: C_5  and  N_6 
REMARK    2  A    between atoms: N_6  and  C_7 
REMARK    3  A    between atoms: C_7  and  C_8 
REMARK       I    between atoms: C_8  and  N_9 
REMARK    4  A    between atoms: N_9  and  C_10 
REMARK    5  A    between atoms: C_13  and  C_14 
ROOT
HETATM    1  C   UNL     1      41.886 -11.151   2.225  1.00  0.00     0.241 C 
HETATM    2  N   UNL     1      40.999 -12.162   2.507  1.00  0.00    -0.304 N 
HETATM    3  O   UNL     1      42.956 -10.936   2.787  1.00  0.00    -0.271 OA
HETATM    4  H   UNL     1      40.079 -12.150   2.079  1.00  0.00     0.171 HD
ENDROOT
BRANCH   2   5
HETATM    5  C   UNL     1      41.215 -13.112   3.460  1.00  0.00     0.173 A 
HETATM    6  S   UNL     1      40.328 -12.856   4.897  1.00  0.00    -0.061 SA
HETATM    7  C   UNL     1      41.065 -14.251   5.574  1.00  0.00     0.086 A 
HETATM    8  C   UNL     1      41.934 -14.812   4.658  1.00  0.00     0.078 A 
HETATM    9  N   UNL     1      41.996 -14.158   3.436  1.00  0.00    -0.223 NA
BRANCH   8  10
HETATM   10  C   UNL     1      42.837 -15.948   4.867  1.00  0.00     0.021 A 
HETATM   11  C   UNL     1      43.056 -17.068   4.004  1.00  0.00     0.004 A 
HETATM   12  C   UNL     1      43.952 -17.915   4.669  1.00  0.00     0.043 A 
HETATM   13  C   UNL     1      42.604 -17.467   2.726  1.00  0.00     0.014 A 
HETATM   14  C   UNL     1      44.386 -19.138   4.139  1.00  0.00     0.030 A 
HETATM   15  N   UNL     1      44.282 -17.311   5.861  1.00  0.00    -0.364 N 
HETATM   16  C   UNL     1      43.905 -19.509   2.882  1.00  0.00     0.002 A 
HETATM   17  C   UNL     1      43.032 -18.685   2.181  1.00  0.00     0.001 A 
HETATM   18  H   UNL     1      44.921 -17.695   6.543  1.00  0.00     0.165 HD
HETATM   19  C   UNL     1      43.627 -16.121   5.984  1.00  0.00     0.103 A 
ENDBRANCH   8  10
ENDBRANCH   2   5
BRANCH   1  20
HETATM   20  C   UNL     1      41.348 -10.140   1.195  1.00  0.00     0.226 C 
BRANCH  20  21
HETATM   21  N   UNL     1      40.266 -10.597   0.327  1.00  0.00    -0.348 N 
HETATM   22  C   UNL     1      40.506 -11.157  -0.905  1.00  0.00     0.252 C 
HETATM   23  O   UNL     1      41.608 -11.090  -1.441  1.00  0.00    -0.268 OA
HETATM   24  H   UNL     1      39.318 -10.516   0.672  1.00  0.00     0.163 HD
BRANCH  22  25
HETATM   25  C   UNL     1      39.354 -11.763  -1.616  1.00  0.00     0.033 A 
HETATM   26  C   UNL     1      39.417 -13.128  -1.927  1.00  0.00     0.023 A 
HETATM   27  C   UNL     1      38.352 -13.754  -2.582  1.00  0.00    -0.061 A 
HETATM   28  C   UNL     1      38.428 -15.206  -2.953  1.00  0.00     0.048 C 
HETATM   29  C   UNL     1      37.222 -12.998  -2.921  1.00  0.00     0.013 A 
HETATM   30  C   UNL     1      37.135 -11.638  -2.588  1.00  0.00    -0.061 A 
HETATM   31  C   UNL     1      38.212 -11.020  -1.940  1.00  0.00     0.023 A 
HETATM   32  C   UNL     1      35.904 -10.860  -2.951  1.00  0.00     0.048 C 
ENDBRANCH  22  25
ENDBRANCH  20  21
ENDBRANCH   1  20
TORSDOF 5
ENDMDL
MODEL 9
REMARK VINA RESULT:      -8.6      2.347      2.503
REMARK  5 active torsions:
REMARK  status: ('A' for Active; 'I' for Inactive)
REMARK    1  A    between atoms: C_4  and  C_5 
REMARK       I    between atoms: C_5  and  N_6 
REMARK    2  A    between atoms: N_6  and  C_7 
REMARK    3  A    between atoms: C_7  and  C_8 
REMARK       I    between atoms: C_8  and  N_9 
REMARK    4  A    between atoms: N_9  and  C_10 
REMARK    5  A    between atoms: C_13  and  C_14 
ROOT
HETATM    1  C   UNL     1      41.771  -9.952   5.781  1.00  0.00     0.241 C 
HETATM    2  N   UNL     1      41.438 -11.040   6.552  1.00  0.00    -0.304 N 
HETATM    3  O   UNL     1      42.150  -9.970   4.612  1.00  0.00    -0.271 OA
HETATM    4  H   UNL     1      41.284 -10.915   7.547  1.00  0.00     0.171 HD
ENDROOT
BRANCH   2   5
HETATM    5  C   UNL     1      41.454 -12.323   6.094  1.00  0.00     0.173 A 
HETATM    6  S   UNL     1      39.920 -12.896   5.607  1.00  0.00    -0.061 SA
HETATM    7  C   UNL     1      40.629 -14.417   5.243  1.00  0.00     0.086 A 
HETATM    8  C   UNL     1      41.982 -14.380   5.518  1.00  0.00     0.078 A 
HETATM    9  N   UNL     1      42.449 -13.161   5.987  1.00  0.00    -0.223 NA
BRANCH   8  10
HETATM   10  C   UNL     1      42.937 -15.491   5.446  1.00  0.00     0.021 A 
HETATM   11  C   UNL     1      43.055 -16.485   4.424  1.00  0.00     0.004 A 
HETATM   12  C   UNL     1      44.063 -17.365   4.838  1.00  0.00     0.043 A 
HETATM   13  C   UNL     1      42.429 -16.743   3.184  1.00  0.00     0.014 A 
HETATM   14  C   UNL     1      44.446 -18.492   4.099  1.00  0.00     0.030 A 
HETATM   15  N   UNL     1      44.551 -16.898   6.037  1.00  0.00    -0.364 N 
HETATM   16  C   UNL     1      43.793 -18.728   2.887  1.00  0.00     0.002 A 
HETATM   17  C   UNL     1      42.803 -17.864   2.430  1.00  0.00     0.001 A 
HETATM   18  H   UNL     1      45.294 -17.334   6.565  1.00  0.00     0.165 HD
HETATM   19  C   UNL     1      43.889 -15.763   6.406  1.00  0.00     0.103 A 
ENDBRANCH   8  10
ENDBRANCH   2   5
BRANCH   1  20
HETATM   20  C   UNL     1      41.792  -8.631   6.570  1.00  0.00     0.226 C 
BRANCH  20  21
HETATM   21  N   UNL     1      41.924  -8.732   8.021  1.00  0.00    -0.348 N 
HETATM   22  C   UNL     1      40.919  -8.342   8.873  1.00  0.00     0.252 C 
HETATM   23  O   UNL     1      39.964  -7.675   8.484  1.00  0.00    -0.268 OA
HETATM   24  H   UNL     1      42.776  -9.131   8.391  1.00  0.00     0.163 HD
BRANCH  22  25
HETATM   25  C   UNL     1      41.077  -8.669  10.312  1.00  0.00     0.033 A 
HETATM   26  C   UNL     1      40.196  -9.601  10.875  1.00  0.00     0.023 A 
HETATM   27  C   UNL     1      40.310  -9.958  12.222  1.00  0.00    -0.061 A 
HETATM   28  C   UNL     1      39.345 -10.927  12.842  1.00  0.00     0.048 C 
HETATM   29  C   UNL     1      41.319  -9.374  12.998  1.00  0.00     0.013 A 
HETATM   30  C   UNL     1      42.227  -8.463  12.438  1.00  0.00    -0.061 A 
HETATM   31  C   UNL     1      42.096  -8.105  11.090  1.00  0.00     0.023 A 
HETATM   32  C   UNL     1      43.306  -7.866  13.293  1.00  0.00     0.048 C 
ENDBRANCH  22  25
ENDBRANCH  20  21
ENDBRANCH   1  20
TORSDOF 5
ENDMDL
MODEL 10
REMARK VINA RESULT:      -8.5      2.561      3.511
REMARK  5 active torsions:
REMARK  status: ('A' for Active; 'I' for Inactive)
REMARK    1  A    between atoms: C_4  and  C_5 
REMARK       I    between atoms: C_5  and  N_6 
REMARK    2  A    between atoms: N_6  and  C_7 
REMARK    3  A    between atoms: C_7  and  C_8 
REMARK       I    between atoms: C_8  and  N_9 
REMARK    4  A    between atoms: N_9  and  C_10 
REMARK    5  A    between atoms: C_13  and  C_14 
ROOT
HETATM    1  C   UNL     1      41.143 -12.218   6.166  1.00  0.00     0.241 C 
HETATM    2  N   UNL     1      42.439 -12.659   6.042  1.00  0.00    -0.304 N 
HETATM    3  O   UNL     1      40.126 -12.906   6.119  1.00  0.00    -0.271 OA
HETATM    4  H   UNL     1      43.187 -11.980   5.947  1.00  0.00     0.171 HD
ENDROOT
BRANCH   2   5
HETATM    5  C   UNL     1      42.778 -13.968   5.878  1.00  0.00     0.173 A 
HETATM    6  S   UNL     1      43.502 -14.667   7.258  1.00  0.00    -0.061 SA
HETATM    7  C   UNL     1      43.684 -16.137   6.390  1.00  0.00     0.086 A 
HETATM    8  C   UNL     1      43.181 -15.991   5.112  1.00  0.00     0.078 A 
HETATM    9  N   UNL     1      42.642 -14.743   4.836  1.00  0.00    -0.223 NA
BRANCH   8  10
HETATM   10  C   UNL     1      43.231 -16.966   4.018  1.00  0.00     0.021 A 
HETATM   11  C   UNL     1      43.537 -18.362   4.095  1.00  0.00     0.004 A 
HETATM   12  C   UNL     1      43.526 -18.847   2.782  1.00  0.00     0.043 A 
HETATM   13  C   UNL     1      43.817 -19.282   5.130  1.00  0.00     0.014 A 
HETATM   14  C   UNL     1      43.809 -20.180   2.456  1.00  0.00     0.030 A 
HETATM   15  N   UNL     1      43.193 -17.796   1.958  1.00  0.00    -0.364 N 
HETATM   16  C   UNL     1      44.100 -21.058   3.502  1.00  0.00     0.002 A 
HETATM   17  C   UNL     1      44.098 -20.619   4.822  1.00  0.00     0.001 A 
HETATM   18  H   UNL     1      43.102 -17.859   0.953  1.00  0.00     0.165 HD
HETATM   19  C   UNL     1      43.001 -16.662   2.692  1.00  0.00     0.103 A 
ENDBRANCH   8  10
ENDBRANCH   2   5
BRANCH   1  20
HETATM   20  C   UNL     1      41.024 -10.684   6.214  1.00  0.00     0.226 C 
BRANCH  20  21
HETATM   21  N   UNL     1      41.236 -10.047   7.512  1.00  0.00    -0.348 N 
HETATM   22  C   UNL     1      42.471  -9.588   7.906  1.00  0.00     0.252 C 
HETATM   23  O   UNL     1      43.496  -9.893   7.304  1.00  0.00    -0.268 OA
HETATM   24  H   UNL     1      40.433  -9.924   8.114  1.00  0.00     0.163 HD
BRANCH  22  25
HETATM   25  C   UNL     1      42.534  -8.785   9.152  1.00  0.00     0.033 A 
HETATM   26  C   UNL     1      42.576  -9.470  10.373  1.00  0.00     0.023 A 
HETATM   27  C   UNL     1      42.653  -8.764  11.578  1.00  0.00    -0.061 A 
HETATM   28  C   UNL     1      42.660  -9.490  12.892  1.00  0.00     0.048 C 
HETATM   29  C   UNL     1      42.688  -7.364  11.546  1.00  0.00     0.013 A 
HETATM   30  C   UNL     1      42.677  -6.668  10.328  1.00  0.00    -0.061 A 
HETATM   31  C   UNL     1      42.591  -7.386   9.128  1.00  0.00     0.023 A 
HETATM   32  C   UNL     1      42.732  -5.169  10.327  1.00  0.00     0.048 C 
ENDBRANCH  22  25
ENDBRANCH  20  21
ENDBRANCH   1  20
TORSDOF 5
ENDMDL
