MODEL 1
REMARK VINA RESULT:     -11.0      0.000      0.000
REMARK  9 active torsions:
REMARK  status: ('A' for Active; 'I' for Inactive)
REMARK    1  A    between atoms: C_5  and  C_6 
REMARK    2  A    between atoms: C_6  and  N_7 
REMARK       I    between atoms: N_7  and  C_8 
REMARK    3  A    between atoms: C_8  and  C_9 
REMARK    4  A    between atoms: C_9  and  N_10 
REMARK    5  A    between atoms: N_14  and  C_15 
REMARK    6  A    between atoms: C_17  and  N_18 
REMARK    7  A    between atoms: N_18  and  C_19 
REMARK    8  A    between atoms: C_26  and  N_27 
REMARK    9  A    between atoms: N_27  and  C_28 
ROOT
HETATM    1  C   UNL     1      41.368 -14.443   4.282  1.00  0.00     0.756 A 
HETATM    2  N   UNL     1      40.486 -14.083   3.368  1.00  0.00     0.131 NA
HETATM    3  C   UNL     1      40.586 -14.664   2.177  1.00  0.00     0.758 A 
HETATM    4  N   UNL     1      41.520 -15.553   1.867  1.00  0.00     0.131 NA
HETATM    5  C   UNL     1      42.313 -15.925   2.862  1.00  0.00     0.758 A 
HETATM    6  N   UNL     1      42.250 -15.406   4.083  1.00  0.00     0.131 NA
ENDROOT
BRANCH   1   7
HETATM    7  N   UNL     1      41.395 -13.769   5.486  1.00  0.00    -0.210 N 
HETATM    8  C   UNL     1      40.708 -12.484   5.607  1.00  0.00     0.169 C 
HETATM    9  C   UNL     1      41.736 -11.348   5.804  1.00  0.00     0.256 C 
HETATM   10  N   UNL     1      42.640 -11.689   6.993  1.00  0.00    -0.060 N 
HETATM   11  H   UNL     1      42.011 -11.883   7.781  1.00  0.00     0.280 HD
HETATM   12  C   UNL     1      43.393 -12.999   6.718  1.00  0.00     0.256 C 
HETATM   13  C   UNL     1      42.374 -14.138   6.511  1.00  0.00     0.169 C 
BRANCH  10  14
HETATM   14  C   UNL     1      43.531 -10.538   7.435  1.00  0.00     0.337 C 
BRANCH  14  15
HETATM   15  C   UNL     1      44.219 -10.679   8.797  1.00  0.00     0.243 C 
HETATM   16  N   UNL     1      43.362 -10.569   9.869  1.00  0.00    -0.355 N 
HETATM   17  H   UNL     1      42.416 -10.229   9.749  1.00  0.00     0.162 HD
HETATM   18  O   UNL     1      45.421 -10.900   8.904  1.00  0.00    -0.272 OA
BRANCH  16  19
HETATM   19  C   UNL     1      43.830 -10.669  11.238  1.00  0.00     0.161 C 
BRANCH  19  20
HETATM   20  C   UNL     1      43.094  -9.721  12.146  1.00  0.00    -0.041 A 
HETATM   21  C   UNL     1      41.927 -10.118  12.812  1.00  0.00     0.009 A 
HETATM   22  C   UNL     1      41.275  -9.245  13.686  1.00  0.00     0.007 A 
HETATM   23  C   UNL     1      41.774  -7.957  13.908  1.00  0.00    -0.062 A 
HETATM   24  C   UNL     1      41.116  -7.047  14.904  1.00  0.00     0.048 C 
HETATM   25  C   UNL     1      42.940  -7.559  13.248  1.00  0.00     0.007 A 
HETATM   26  C   UNL     1      43.589  -8.428  12.367  1.00  0.00     0.009 A 
ENDBRANCH  19  20
ENDBRANCH  16  19
ENDBRANCH  14  15
ENDBRANCH  10  14
ENDBRANCH   1   7
BRANCH   3  27
HETATM   27  N   UNL     1      39.716 -14.309   1.147  1.00  0.00    -0.187 N 
HETATM   28  H   UNL     1      38.831 -14.005   1.534  1.00  0.00     0.184 HD
BRANCH  27  29
HETATM   29  C   UNL     1      39.978 -13.827  -0.145  1.00  0.00     0.049 A 
HETATM   30  C   UNL     1      39.530 -14.575  -1.245  1.00  0.00     0.030 A 
HETATM   31  C   UNL     1      39.779 -14.155  -2.554  1.00  0.00     0.002 A 
HETATM   32  C   UNL     1      40.487 -12.979  -2.786  1.00  0.00     0.000 A 
HETATM   33  C   UNL     1      40.954 -12.232  -1.707  1.00  0.00     0.002 A 
HETATM   34  C   UNL     1      40.713 -12.662  -0.399  1.00  0.00     0.030 A 
ENDBRANCH  27  29
ENDBRANCH   3  27
BRANCH   5  35
HETATM   35  N   UNL     1      43.283 -16.872   2.545  1.00  0.00    -0.187 N 
HETATM   36  H   UNL     1      43.867 -16.552   1.784  1.00  0.00     0.184 HD
BRANCH  35  37
HETATM   37  C   UNL     1      43.488 -18.189   2.972  1.00  0.00     0.049 A 
HETATM   38  C   UNL     1      44.023 -18.515   4.225  1.00  0.00     0.030 A 
HETATM   39  C   UNL     1      44.250 -19.844   4.593  1.00  0.00     0.002 A 
HETATM   40  C   UNL     1      43.966 -20.873   3.700  1.00  0.00     0.000 A 
HETATM   41  C   UNL     1      43.452 -20.571   2.442  1.00  0.00     0.002 A 
HETATM   42  C   UNL     1      43.217 -19.240   2.084  1.00  0.00     0.030 A 
ENDBRANCH  35  37
ENDBRANCH   5  35
TORSDOF 9
ENDMDL
MODEL 2
REMARK VINA RESULT:     -10.9      0.253      5.155
REMARK  9 active torsions:
REMARK  status: ('A' for Active; 'I' for Inactive)
REMARK    1  A    between atoms: C_5  and  C_6 
REMARK    2  A    between atoms: C_6  and  N_7 
REMARK       I    between atoms: N_7  and  C_8 
REMARK    3  A    between atoms: C_8  and  C_9 
REMARK    4  A    between atoms: C_9  and  N_10 
REMARK    5  A    between atoms: N_14  and  C_15 
REMARK    6  A    between atoms: C_17  and  N_18 
REMARK    7  A    between atoms: N_18  and  C_19 
REMARK    8  A    between atoms: C_26  and  N_27 
REMARK    9  A    between atoms: N_27  and  C_28 
ROOT
HETATM    1  C   UNL     1      41.688 -14.338   4.065  1.00  0.00     0.756 A 
HETATM    2  N   UNL     1      42.655 -15.219   3.883  1.00  0.00     0.131 NA
HETATM    3  C   UNL     1      42.628 -15.912   2.749  1.00  0.00     0.758 A 
HETATM    4  N   UNL     1      41.688 -15.774   1.825  1.00  0.00     0.131 NA
HETATM    5  C   UNL     1      40.804 -14.810   2.040  1.00  0.00     0.758 A 
HETATM    6  N   UNL     1      40.788 -14.063   3.137  1.00  0.00     0.131 NA
ENDROOT
BRANCH   1   7
HETATM    7  N   UNL     1      41.591 -13.695   5.283  1.00  0.00    -0.210 N 
HETATM    8  C   UNL     1      40.856 -12.434   5.374  1.00  0.00     0.169 C 
HETATM    9  C   UNL     1      41.829 -11.275   5.685  1.00  0.00     0.256 C 
HETATM   10  N   UNL     1      42.637 -11.620   6.940  1.00  0.00    -0.060 N 
HETATM   11  H   UNL     1      41.949 -11.853   7.665  1.00  0.00     0.280 HD
HETATM   12  C   UNL     1      43.451 -12.900   6.701  1.00  0.00     0.256 C 
HETATM   13  C   UNL     1      42.489 -14.063   6.379  1.00  0.00     0.169 C 
BRANCH  10  14
HETATM   14  C   UNL     1      43.452 -10.456   7.484  1.00  0.00     0.337 C 
BRANCH  14  15
HETATM   15  C   UNL     1      44.123 -10.658   8.847  1.00  0.00     0.243 C 
HETATM   16  N   UNL     1      43.258 -10.562   9.914  1.00  0.00    -0.355 N 
HETATM   17  H   UNL     1      42.322 -10.195   9.797  1.00  0.00     0.162 HD
HETATM   18  O   UNL     1      45.318 -10.913   8.957  1.00  0.00    -0.272 OA
BRANCH  16  19
HETATM   19  C   UNL     1      43.710 -10.718  11.283  1.00  0.00     0.161 C 
BRANCH  19  20
HETATM   20  C   UNL     1      43.041  -9.733  12.204  1.00  0.00    -0.041 A 
HETATM   21  C   UNL     1      41.889 -10.084  12.921  1.00  0.00     0.009 A 
HETATM   22  C   UNL     1      41.299  -9.177  13.805  1.00  0.00     0.007 A 
HETATM   23  C   UNL     1      41.846  -7.903  13.987  1.00  0.00    -0.062 A 
HETATM   24  C   UNL     1      41.257  -6.957  14.993  1.00  0.00     0.048 C 
HETATM   25  C   UNL     1      42.998  -7.552  13.276  1.00  0.00     0.007 A 
HETATM   26  C   UNL     1      43.584  -8.454  12.385  1.00  0.00     0.009 A 
ENDBRANCH  19  20
ENDBRANCH  16  19
ENDBRANCH  14  15
ENDBRANCH  10  14
ENDBRANCH   1   7
BRANCH   3  27
HETATM   27  N   UNL     1      43.591 -16.889   2.501  1.00  0.00    -0.187 N 
HETATM   28  H   UNL     1      44.469 -16.451   2.252  1.00  0.00     0.184 HD
BRANCH  27  29
HETATM   29  C   UNL     1      43.717 -18.195   2.999  1.00  0.00     0.049 A 
HETATM   30  C   UNL     1      43.395 -19.269   2.156  1.00  0.00     0.030 A 
HETATM   31  C   UNL     1      43.482 -20.591   2.604  1.00  0.00     0.002 A 
HETATM   32  C   UNL     1      43.890 -20.858   3.907  1.00  0.00     0.000 A 
HETATM   33  C   UNL     1      44.199 -19.804   4.763  1.00  0.00     0.002 A 
HETATM   34  C   UNL     1      44.098 -18.484   4.315  1.00  0.00     0.030 A 
ENDBRANCH  27  29
ENDBRANCH   3  27
BRANCH   5  35
HETATM   35  N   UNL     1      39.826 -14.651   1.061  1.00  0.00    -0.187 N 
HETATM   36  H   UNL     1      38.961 -15.093   1.339  1.00  0.00     0.184 HD
BRANCH  35  37
HETATM   37  C   UNL     1      39.874 -14.142  -0.242  1.00  0.00     0.049 A 
HETATM   38  C   UNL     1      39.311 -14.798  -1.343  1.00  0.00     0.030 A 
HETATM   39  C   UNL     1      39.421 -14.273  -2.634  1.00  0.00     0.002 A 
HETATM   40  C   UNL     1      40.119 -13.088  -2.847  1.00  0.00     0.000 A 
HETATM   41  C   UNL     1      40.704 -12.430  -1.769  1.00  0.00     0.002 A 
HETATM   42  C   UNL     1      40.582 -12.954  -0.479  1.00  0.00     0.030 A 
ENDBRANCH  35  37
ENDBRANCH   5  35
TORSDOF 9
ENDMDL
MODEL 3
REMARK VINA RESULT:     -10.2      3.559      9.633
REMARK  9 active torsions:
REMARK  status: ('A' for Active; 'I' for Inactive)
REMARK    1  A    between atoms: C_5  and  C_6 
REMARK    2  A    between atoms: C_6  and  N_7 
REMARK       I    between atoms: N_7  and  C_8 
REMARK    3  A    between atoms: C_8  and  C_9 
REMARK    4  A    between atoms: C_9  and  N_10 
REMARK    5  A    between atoms: N_14  and  C_15 
REMARK    6  A    between atoms: C_17  and  N_18 
REMARK    7  A    between atoms: N_18  and  C_19 
REMARK    8  A    between atoms: C_26  and  N_27 
REMARK    9  A    between atoms: N_27  and  C_28 
ROOT
HETATM    1  C   UNL     1      41.552 -14.598   4.240  1.00  0.00     0.756 A 
HETATM    2  N   UNL     1      41.738 -13.662   5.153  1.00  0.00     0.131 NA
HETATM    3  C   UNL     1      42.704 -13.875   6.041  1.00  0.00     0.758 A 
HETATM    4  N   UNL     1      43.458 -14.965   6.061  1.00  0.00     0.131 NA
HETATM    5  C   UNL     1      43.269 -15.816   5.062  1.00  0.00     0.758 A 
HETATM    6  N   UNL     1      42.342 -15.652   4.126  1.00  0.00     0.131 NA
ENDROOT
BRANCH   1   7
HETATM    7  N   UNL     1      40.475 -14.492   3.384  1.00  0.00    -0.210 N 
HETATM    8  C   UNL     1      39.944 -15.694   2.742  1.00  0.00     0.169 C 
HETATM    9  C   UNL     1      40.203 -15.641   1.220  1.00  0.00     0.256 C 
HETATM   10  N   UNL     1      39.640 -14.332   0.659  1.00  0.00    -0.060 N 
HETATM   11  H   UNL     1      38.660 -14.293   0.962  1.00  0.00     0.280 HD
HETATM   12  C   UNL     1      40.338 -13.136   1.323  1.00  0.00     0.256 C 
HETATM   13  C   UNL     1      40.093 -13.185   2.845  1.00  0.00     0.169 C 
BRANCH  10  14
HETATM   14  C   UNL     1      39.617 -14.276  -0.862  1.00  0.00     0.337 C 
BRANCH  14  15
HETATM   15  C   UNL     1      39.066 -12.996  -1.499  1.00  0.00     0.243 C 
HETATM   16  N   UNL     1      39.983 -12.317  -2.269  1.00  0.00    -0.355 N 
HETATM   17  H   UNL     1      40.967 -12.550  -2.237  1.00  0.00     0.162 HD
HETATM   18  O   UNL     1      37.901 -12.641  -1.351  1.00  0.00    -0.272 OA
BRANCH  16  19
HETATM   19  C   UNL     1      39.647 -11.079  -2.947  1.00  0.00     0.161 C 
BRANCH  19  20
HETATM   20  C   UNL     1      40.679 -10.013  -2.698  1.00  0.00    -0.041 A 
HETATM   21  C   UNL     1      40.953  -9.034  -3.663  1.00  0.00     0.009 A 
HETATM   22  C   UNL     1      41.882  -8.022  -3.405  1.00  0.00     0.007 A 
HETATM   23  C   UNL     1      42.557  -7.972  -2.182  1.00  0.00    -0.062 A 
HETATM   24  C   UNL     1      43.498  -6.843  -1.877  1.00  0.00     0.048 C 
HETATM   25  C   UNL     1      42.283  -8.945  -1.215  1.00  0.00     0.007 A 
HETATM   26  C   UNL     1      41.361  -9.962  -1.474  1.00  0.00     0.009 A 
ENDBRANCH  19  20
ENDBRANCH  16  19
ENDBRANCH  14  15
ENDBRANCH  10  14
ENDBRANCH   1   7
BRANCH   3  27
HETATM   27  N   UNL     1      42.935 -12.953   7.061  1.00  0.00    -0.187 N 
HETATM   28  H   UNL     1      42.457 -13.246   7.904  1.00  0.00     0.184 HD
BRANCH  27  29
HETATM   29  C   UNL     1      44.017 -12.086   7.281  1.00  0.00     0.049 A 
HETATM   30  C   UNL     1      44.007 -11.278   8.428  1.00  0.00     0.030 A 
HETATM   31  C   UNL     1      45.047 -10.381   8.689  1.00  0.00     0.002 A 
HETATM   32  C   UNL     1      46.114 -10.275   7.802  1.00  0.00     0.000 A 
HETATM   33  C   UNL     1      46.132 -11.057   6.650  1.00  0.00     0.002 A 
HETATM   34  C   UNL     1      45.085 -11.944   6.387  1.00  0.00     0.030 A 
ENDBRANCH  27  29
ENDBRANCH   3  27
BRANCH   5  35
HETATM   35  N   UNL     1      44.073 -16.953   5.071  1.00  0.00    -0.187 N 
HETATM   36  H   UNL     1      44.918 -16.794   5.601  1.00  0.00     0.184 HD
BRANCH  35  37
HETATM   37  C   UNL     1      43.990 -18.168   4.381  1.00  0.00     0.049 A 
HETATM   38  C   UNL     1      43.715 -18.255   3.011  1.00  0.00     0.030 A 
HETATM   39  C   UNL     1      43.598 -19.494   2.372  1.00  0.00     0.002 A 
HETATM   40  C   UNL     1      43.732 -20.670   3.103  1.00  0.00     0.000 A 
HETATM   41  C   UNL     1      43.985 -20.607   4.471  1.00  0.00     0.002 A 
HETATM   42  C   UNL     1      44.112 -19.365   5.102  1.00  0.00     0.030 A 
ENDBRANCH  35  37
ENDBRANCH   5  35
TORSDOF 9
ENDMDL
MODEL 4
REMARK VINA RESULT:     -10.1      1.665      2.300
REMARK  9 active torsions:
REMARK  status: ('A' for Active; 'I' for Inactive)
REMARK    1  A    between atoms: C_5  and  C_6 
REMARK    2  A    between atoms: C_6  and  N_7 
REMARK       I    between atoms: N_7  and  C_8 
REMARK    3  A    between atoms: C_8  and  C_9 
REMARK    4  A    between atoms: C_9  and  N_10 
REMARK    5  A    between atoms: N_14  and  C_15 
REMARK    6  A    between atoms: C_17  and  N_18 
REMARK    7  A    between atoms: N_18  and  C_19 
REMARK    8  A    between atoms: C_26  and  N_27 
REMARK    9  A    between atoms: N_27  and  C_28 
ROOT
HETATM    1  C   UNL     1      41.964 -12.145   3.142  1.00  0.00     0.756 A 
HETATM    2  N   UNL     1      41.707 -11.941   1.863  1.00  0.00     0.131 NA
HETATM    3  C   UNL     1      41.408 -13.012   1.134  1.00  0.00     0.758 A 
HETATM    4  N   UNL     1      41.376 -14.246   1.617  1.00  0.00     0.131 NA
HETATM    5  C   UNL     1      41.560 -14.358   2.925  1.00  0.00     0.758 A 
HETATM    6  N   UNL     1      41.835 -13.328   3.716  1.00  0.00     0.131 NA
ENDROOT
BRANCH   1   7
HETATM    7  N   UNL     1      42.415 -11.090   3.908  1.00  0.00    -0.210 N 
HETATM    8  C   UNL     1      43.428 -11.328   4.936  1.00  0.00     0.169 C 
HETATM    9  C   UNL     1      42.821 -11.114   6.340  1.00  0.00     0.256 C 
HETATM   10  N   UNL     1      42.180  -9.724   6.404  1.00  0.00    -0.060 N 
HETATM   11  H   UNL     1      42.908  -9.062   6.110  1.00  0.00     0.280 HD
HETATM   12  C   UNL     1      41.061  -9.616   5.357  1.00  0.00     0.256 C 
HETATM   13  C   UNL     1      41.657  -9.838   3.951  1.00  0.00     0.169 C 
BRANCH  10  14
HETATM   14  C   UNL     1      41.764  -9.303   7.806  1.00  0.00     0.337 C 
BRANCH  14  15
HETATM   15  C   UNL     1      42.838  -9.377   8.897  1.00  0.00     0.243 C 
HETATM   16  N   UNL     1      42.465 -10.115   9.997  1.00  0.00    -0.355 N 
HETATM   17  H   UNL     1      41.503 -10.400  10.135  1.00  0.00     0.162 HD
HETATM   18  O   UNL     1      43.936  -8.845   8.771  1.00  0.00    -0.272 OA
BRANCH  16  19
HETATM   19  C   UNL     1      43.346 -10.293  11.136  1.00  0.00     0.161 C 
BRANCH  19  20
HETATM   20  C   UNL     1      42.940  -9.421  12.293  1.00  0.00    -0.041 A 
HETATM   21  C   UNL     1      41.927  -9.819  13.176  1.00  0.00     0.009 A 
HETATM   22  C   UNL     1      41.585  -9.023  14.272  1.00  0.00     0.007 A 
HETATM   23  C   UNL     1      42.247  -7.812  14.504  1.00  0.00    -0.062 A 
HETATM   24  C   UNL     1      41.932  -6.994  15.723  1.00  0.00     0.048 C 
HETATM   25  C   UNL     1      43.260  -7.414  13.627  1.00  0.00     0.007 A 
HETATM   26  C   UNL     1      43.597  -8.205  12.526  1.00  0.00     0.009 A 
ENDBRANCH  19  20
ENDBRANCH  16  19
ENDBRANCH  14  15
ENDBRANCH  10  14
ENDBRANCH   1   7
BRANCH   3  27
HETATM   27  N   UNL     1      41.163 -12.884  -0.233  1.00  0.00    -0.187 N 
HETATM   28  H   UNL     1      42.020 -13.033  -0.751  1.00  0.00     0.184 HD
BRANCH  27  29
HETATM   29  C   UNL     1      39.993 -13.103  -0.976  1.00  0.00     0.049 A 
HETATM   30  C   UNL     1      39.945 -14.204  -1.845  1.00  0.00     0.030 A 
HETATM   31  C   UNL     1      38.814 -14.460  -2.625  1.00  0.00     0.002 A 
HETATM   32  C   UNL     1      37.711 -13.615  -2.551  1.00  0.00     0.000 A 
HETATM   33  C   UNL     1      37.747 -12.508  -1.707  1.00  0.00     0.002 A 
HETATM   34  C   UNL     1      38.885 -12.248  -0.938  1.00  0.00     0.030 A 
ENDBRANCH  27  29
ENDBRANCH   3  27
BRANCH   5  35
HETATM   35  N   UNL     1      41.508 -15.651   3.438  1.00  0.00    -0.187 N 
HETATM   36  H   UNL     1      40.649 -15.804   3.947  1.00  0.00     0.184 HD
BRANCH  35  37
HETATM   37  C   UNL     1      42.458 -16.677   3.499  1.00  0.00     0.049 A 
HETATM   38  C   UNL     1      42.663 -17.595   2.461  1.00  0.00     0.030 A 
HETATM   39  C   UNL     1      43.593 -18.631   2.583  1.00  0.00     0.002 A 
HETATM   40  C   UNL     1      44.319 -18.781   3.760  1.00  0.00     0.000 A 
HETATM   41  C   UNL     1      44.116 -17.893   4.813  1.00  0.00     0.002 A 
HETATM   42  C   UNL     1      43.193 -16.852   4.681  1.00  0.00     0.030 A 
ENDBRANCH  35  37
ENDBRANCH   5  35
TORSDOF 9
ENDMDL
MODEL 5
REMARK VINA RESULT:     -10.0      1.752      5.411
REMARK  9 active torsions:
REMARK  status: ('A' for Active; 'I' for Inactive)
REMARK    1  A    between atoms: C_5  and  C_6 
REMARK    2  A    between atoms: C_6  and  N_7 
REMARK       I    between atoms: N_7  and  C_8 
REMARK    3  A    between atoms: C_8  and  C_9 
REMARK    4  A    between atoms: C_9  and  N_10 
REMARK    5  A    between atoms: N_14  and  C_15 
REMARK    6  A    between atoms: C_17  and  N_18 
REMARK    7  A    between atoms: N_18  and  C_19 
REMARK    8  A    between atoms: C_26  and  N_27 
REMARK    9  A    between atoms: N_27  and  C_28 
ROOT
HETATM    1  C   UNL     1      42.057 -12.194   2.783  1.00  0.00     0.756 A 
HETATM    2  N   UNL     1      41.963 -13.399   3.315  1.00  0.00     0.131 NA
HETATM    3  C   UNL     1      41.533 -14.373   2.519  1.00  0.00     0.758 A 
HETATM    4  N   UNL     1      41.186 -14.190   1.253  1.00  0.00     0.131 NA
HETATM    5  C   UNL     1      41.391 -12.974   0.769  1.00  0.00     0.758 A 
HETATM    6  N   UNL     1      41.843 -11.961   1.500  1.00  0.00     0.131 NA
ENDROOT
BRANCH   1   7
HETATM    7  N   UNL     1      42.362 -11.125   3.600  1.00  0.00    -0.210 N 
HETATM    8  C   UNL     1      43.404 -11.271   4.616  1.00  0.00     0.169 C 
HETATM    9  C   UNL     1      42.781 -11.209   6.028  1.00  0.00     0.256 C 
HETATM   10  N   UNL     1      41.955  -9.926   6.158  1.00  0.00    -0.060 N 
HETATM   11  H   UNL     1      42.584  -9.157   5.897  1.00  0.00     0.280 HD
HETATM   12  C   UNL     1      40.827  -9.922   5.116  1.00  0.00     0.256 C 
HETATM   13  C   UNL     1      41.439  -9.993   3.702  1.00  0.00     0.169 C 
BRANCH  10  14
HETATM   14  C   UNL     1      41.494  -9.634   7.579  1.00  0.00     0.337 C 
BRANCH  14  15
HETATM   15  C   UNL     1      42.573  -9.229   8.588  1.00  0.00     0.243 C 
HETATM   16  N   UNL     1      42.767 -10.147   9.595  1.00  0.00    -0.355 N 
HETATM   17  H   UNL     1      42.113 -10.904   9.746  1.00  0.00     0.162 HD
HETATM   18  O   UNL     1      43.218  -8.191   8.475  1.00  0.00    -0.272 OA
BRANCH  16  19
HETATM   19  C   UNL     1      43.743  -9.934  10.647  1.00  0.00     0.161 C 
BRANCH  19  20
HETATM   20  C   UNL     1      43.107  -9.365  11.887  1.00  0.00    -0.041 A 
HETATM   21  C   UNL     1      42.035 -10.018  12.512  1.00  0.00     0.009 A 
HETATM   22  C   UNL     1      41.478  -9.505  13.686  1.00  0.00     0.007 A 
HETATM   23  C   UNL     1      41.979  -8.329  14.256  1.00  0.00    -0.062 A 
HETATM   24  C   UNL     1      41.431  -7.820  15.557  1.00  0.00     0.048 C 
HETATM   25  C   UNL     1      43.050  -7.679  13.637  1.00  0.00     0.007 A 
HETATM   26  C   UNL     1      43.603  -8.186  12.458  1.00  0.00     0.009 A 
ENDBRANCH  19  20
ENDBRANCH  16  19
ENDBRANCH  14  15
ENDBRANCH  10  14
ENDBRANCH   1   7
BRANCH   3  27
HETATM   27  N   UNL     1      41.369 -15.665   3.017  1.00  0.00    -0.187 N 
HETATM   28  H   UNL     1      40.459 -16.023   2.752  1.00  0.00     0.184 HD
BRANCH  27  29
HETATM   29  C   UNL     1      42.316 -16.657   3.315  1.00  0.00     0.049 A 
HETATM   30  C   UNL     1      42.884 -16.680   4.598  1.00  0.00     0.030 A 
HETATM   31  C   UNL     1      43.847 -17.632   4.944  1.00  0.00     0.002 A 
HETATM   32  C   UNL     1      44.261 -18.576   4.010  1.00  0.00     0.000 A 
HETATM   33  C   UNL     1      43.720 -18.559   2.727  1.00  0.00     0.002 A 
HETATM   34  C   UNL     1      42.767 -17.598   2.380  1.00  0.00     0.030 A 
ENDBRANCH  27  29
ENDBRANCH   3  27
BRANCH   5  35
HETATM   35  N   UNL     1      41.045 -12.783  -0.566  1.00  0.00    -0.187 N 
HETATM   36  H   UNL     1      41.696 -12.160  -1.023  1.00  0.00     0.184 HD
BRANCH  35  37
HETATM   37  C   UNL     1      39.923 -13.166  -1.311  1.00  0.00     0.049 A 
HETATM   38  C   UNL     1      39.955 -14.169  -2.287  1.00  0.00     0.030 A 
HETATM   39  C   UNL     1      38.819 -14.488  -3.037  1.00  0.00     0.002 A 
HETATM   40  C   UNL     1      37.634 -13.788  -2.838  1.00  0.00     0.000 A 
HETATM   41  C   UNL     1      37.585 -12.772  -1.887  1.00  0.00     0.002 A 
HETATM   42  C   UNL     1      38.721 -12.465  -1.133  1.00  0.00     0.030 A 
ENDBRANCH  35  37
ENDBRANCH   5  35
TORSDOF 9
ENDMDL
MODEL 6
REMARK VINA RESULT:      -9.7      1.922      2.359
REMARK  9 active torsions:
REMARK  status: ('A' for Active; 'I' for Inactive)
REMARK    1  A    between atoms: C_5  and  C_6 
REMARK    2  A    between atoms: C_6  and  N_7 
REMARK       I    between atoms: N_7  and  C_8 
REMARK    3  A    between atoms: C_8  and  C_9 
REMARK    4  A    between atoms: C_9  and  N_10 
REMARK    5  A    between atoms: N_14  and  C_15 
REMARK    6  A    between atoms: C_17  and  N_18 
REMARK    7  A    between atoms: N_18  and  C_19 
REMARK    8  A    between atoms: C_26  and  N_27 
REMARK    9  A    between atoms: N_27  and  C_28 
ROOT
HETATM    1  C   UNL     1      41.795 -14.341   3.704  1.00  0.00     0.756 A 
HETATM    2  N   UNL     1      41.400 -13.592   2.691  1.00  0.00     0.131 NA
HETATM    3  C   UNL     1      41.715 -14.018   1.472  1.00  0.00     0.758 A 
HETATM    4  N   UNL     1      42.406 -15.124   1.235  1.00  0.00     0.131 NA
HETATM    5  C   UNL     1      42.690 -15.865   2.296  1.00  0.00     0.758 A 
HETATM    6  N   UNL     1      42.382 -15.514   3.539  1.00  0.00     0.131 NA
ENDROOT
BRANCH   1   7
HETATM    7  N   UNL     1      41.617 -13.874   4.990  1.00  0.00    -0.210 N 
HETATM    8  C   UNL     1      40.298 -13.971   5.615  1.00  0.00     0.169 C 
HETATM    9  C   UNL     1      39.702 -12.561   5.820  1.00  0.00     0.256 C 
HETATM   10  N   UNL     1      40.701 -11.701   6.600  1.00  0.00    -0.060 N 
HETATM   11  H   UNL     1      40.931 -12.232   7.447  1.00  0.00     0.280 HD
HETATM   12  C   UNL     1      42.012 -11.576   5.808  1.00  0.00     0.256 C 
HETATM   13  C   UNL     1      42.611 -12.981   5.590  1.00  0.00     0.169 C 
BRANCH  10  14
HETATM   14  C   UNL     1      40.130 -10.372   7.073  1.00  0.00     0.337 C 
BRANCH  14  15
HETATM   15  C   UNL     1      39.419 -10.369   8.430  1.00  0.00     0.243 C 
HETATM   16  N   UNL     1      40.135  -9.754   9.432  1.00  0.00    -0.355 N 
HETATM   17  H   UNL     1      41.111  -9.517   9.308  1.00  0.00     0.162 HD
HETATM   18  O   UNL     1      38.300 -10.847   8.584  1.00  0.00    -0.272 OA
BRANCH  16  19
HETATM   19  C   UNL     1      39.628  -9.657  10.788  1.00  0.00     0.161 C 
BRANCH  19  20
HETATM   20  C   UNL     1      40.591  -8.933  11.690  1.00  0.00    -0.041 A 
HETATM   21  C   UNL     1      40.138  -8.242  12.822  1.00  0.00     0.009 A 
HETATM   22  C   UNL     1      41.044  -7.608  13.677  1.00  0.00     0.007 A 
HETATM   23  C   UNL     1      42.417  -7.650  13.415  1.00  0.00    -0.062 A 
HETATM   24  C   UNL     1      43.395  -7.034  14.373  1.00  0.00     0.048 C 
HETATM   25  C   UNL     1      42.872  -8.341  12.288  1.00  0.00     0.007 A 
HETATM   26  C   UNL     1      41.967  -8.968  11.427  1.00  0.00     0.009 A 
ENDBRANCH  19  20
ENDBRANCH  16  19
ENDBRANCH  14  15
ENDBRANCH  10  14
ENDBRANCH   1   7
BRANCH   3  27
HETATM   27  N   UNL     1      41.369 -13.262   0.353  1.00  0.00    -0.187 N 
HETATM   28  H   UNL     1      42.206 -12.940  -0.117  1.00  0.00     0.184 HD
BRANCH  27  29
HETATM   29  C   UNL     1      40.229 -13.309  -0.464  1.00  0.00     0.049 A 
HETATM   30  C   UNL     1      39.300 -12.261  -0.381  1.00  0.00     0.030 A 
HETATM   31  C   UNL     1      38.136 -12.264  -1.156  1.00  0.00     0.002 A 
HETATM   32  C   UNL     1      37.881 -13.321  -2.025  1.00  0.00     0.000 A 
HETATM   33  C   UNL     1      38.783 -14.377  -2.108  1.00  0.00     0.002 A 
HETATM   34  C   UNL     1      39.940 -14.377  -1.323  1.00  0.00     0.030 A 
ENDBRANCH  27  29
ENDBRANCH   3  27
BRANCH   5  35
HETATM   35  N   UNL     1      43.400 -17.037   2.048  1.00  0.00    -0.187 N 
HETATM   36  H   UNL     1      43.755 -17.052   1.102  1.00  0.00     0.184 HD
BRANCH  35  37
HETATM   37  C   UNL     1      43.572 -18.209   2.795  1.00  0.00     0.049 A 
HETATM   38  C   UNL     1      44.055 -18.216   4.110  1.00  0.00     0.030 A 
HETATM   39  C   UNL     1      44.251 -19.415   4.803  1.00  0.00     0.002 A 
HETATM   40  C   UNL     1      43.990 -20.631   4.180  1.00  0.00     0.000 A 
HETATM   41  C   UNL     1      43.529 -20.647   2.866  1.00  0.00     0.002 A 
HETATM   42  C   UNL     1      43.324 -19.445   2.182  1.00  0.00     0.030 A 
ENDBRANCH  35  37
ENDBRANCH   5  35
TORSDOF 9
ENDMDL
MODEL 7
REMARK VINA RESULT:      -9.6      3.640      9.492
REMARK  9 active torsions:
REMARK  status: ('A' for Active; 'I' for Inactive)
REMARK    1  A    between atoms: C_5  and  C_6 
REMARK    2  A    between atoms: C_6  and  N_7 
REMARK       I    between atoms: N_7  and  C_8 
REMARK    3  A    between atoms: C_8  and  C_9 
REMARK    4  A    between atoms: C_9  and  N_10 
REMARK    5  A    between atoms: N_14  and  C_15 
REMARK    6  A    between atoms: C_17  and  N_18 
REMARK    7  A    between atoms: N_18  and  C_19 
REMARK    8  A    between atoms: C_26  and  N_27 
REMARK    9  A    between atoms: N_27  and  C_28 
ROOT
HETATM    1  C   UNL     1      41.418 -14.491   4.008  1.00  0.00     0.756 A 
HETATM    2  N   UNL     1      41.578 -13.547   4.917  1.00  0.00     0.131 NA
HETATM    3  C   UNL     1      42.534 -13.740   5.821  1.00  0.00     0.758 A 
HETATM    4  N   UNL     1      43.302 -14.820   5.859  1.00  0.00     0.131 NA
HETATM    5  C   UNL     1      43.140 -15.679   4.863  1.00  0.00     0.758 A 
HETATM    6  N   UNL     1      42.224 -15.534   3.913  1.00  0.00     0.131 NA
ENDROOT
BRANCH   1   7
HETATM    7  N   UNL     1      40.352 -14.405   3.137  1.00  0.00    -0.210 N 
HETATM    8  C   UNL     1      39.866 -15.614   2.473  1.00  0.00     0.169 C 
HETATM    9  C   UNL     1      40.147 -15.537   0.956  1.00  0.00     0.256 C 
HETATM   10  N   UNL     1      39.555 -14.238   0.400  1.00  0.00    -0.060 N 
HETATM   11  H   UNL     1      38.570 -14.230   0.688  1.00  0.00     0.280 HD
HETATM   12  C   UNL     1      40.209 -13.031   1.089  1.00  0.00     0.256 C 
HETATM   13  C   UNL     1      39.941 -13.104   2.606  1.00  0.00     0.169 C 
BRANCH  10  14
HETATM   14  C   UNL     1      39.555 -14.165  -1.120  1.00  0.00     0.337 C 
BRANCH  14  15
HETATM   15  C   UNL     1      39.319 -12.787  -1.746  1.00  0.00     0.243 C 
HETATM   16  N   UNL     1      37.990 -12.452  -1.873  1.00  0.00    -0.355 N 
HETATM   17  H   UNL     1      37.262 -13.144  -1.745  1.00  0.00     0.162 HD
HETATM   18  O   UNL     1      40.243 -12.049  -2.071  1.00  0.00    -0.272 OA
BRANCH  16  19
HETATM   19  C   UNL     1      37.569 -11.189  -2.449  1.00  0.00     0.161 C 
BRANCH  19  20
HETATM   20  C   UNL     1      36.602 -10.465  -1.552  1.00  0.00    -0.041 A 
HETATM   21  C   UNL     1      35.444  -9.869  -2.071  1.00  0.00     0.009 A 
HETATM   22  C   UNL     1      34.530  -9.236  -1.224  1.00  0.00     0.007 A 
HETATM   23  C   UNL     1      34.757  -9.184   0.155  1.00  0.00    -0.062 A 
HETATM   24  C   UNL     1      33.739  -8.570   1.072  1.00  0.00     0.048 C 
HETATM   25  C   UNL     1      35.909  -9.780   0.676  1.00  0.00     0.007 A 
HETATM   26  C   UNL     1      36.829 -10.406  -0.170  1.00  0.00     0.009 A 
ENDBRANCH  19  20
ENDBRANCH  16  19
ENDBRANCH  14  15
ENDBRANCH  10  14
ENDBRANCH   1   7
BRANCH   3  27
HETATM   27  N   UNL     1      42.738 -12.809   6.838  1.00  0.00    -0.187 N 
HETATM   28  H   UNL     1      42.175 -13.051   7.644  1.00  0.00     0.184 HD
BRANCH  27  29
HETATM   29  C   UNL     1      43.849 -12.003   7.129  1.00  0.00     0.049 A 
HETATM   30  C   UNL     1      44.890 -11.929   6.191  1.00  0.00     0.030 A 
HETATM   31  C   UNL     1      46.030 -11.159   6.436  1.00  0.00     0.002 A 
HETATM   32  C   UNL     1      46.150 -10.451   7.628  1.00  0.00     0.000 A 
HETATM   33  C   UNL     1      45.134 -10.525   8.578  1.00  0.00     0.002 A 
HETATM   34  C   UNL     1      44.001 -11.306   8.334  1.00  0.00     0.030 A 
ENDBRANCH  27  29
ENDBRANCH   3  27
BRANCH   5  35
HETATM   35  N   UNL     1      43.959 -16.805   4.891  1.00  0.00    -0.187 N 
HETATM   36  H   UNL     1      44.807 -16.622   5.409  1.00  0.00     0.184 HD
BRANCH  35  37
HETATM   37  C   UNL     1      43.886 -18.037   4.231  1.00  0.00     0.049 A 
HETATM   38  C   UNL     1      43.525 -18.166   2.884  1.00  0.00     0.030 A 
HETATM   39  C   UNL     1      43.424 -19.422   2.278  1.00  0.00     0.002 A 
HETATM   40  C   UNL     1      43.659 -20.575   3.020  1.00  0.00     0.000 A 
HETATM   41  C   UNL     1      43.999 -20.471   4.366  1.00  0.00     0.002 A 
HETATM   42  C   UNL     1      44.110 -19.212   4.963  1.00  0.00     0.030 A 
ENDBRANCH  35  37
ENDBRANCH   5  35
TORSDOF 9
ENDMDL
MODEL 8
REMARK VINA RESULT:      -9.4      3.110      6.285
REMARK  9 active torsions:
REMARK  status: ('A' for Active; 'I' for Inactive)
REMARK    1  A    between atoms: C_5  and  C_6 
REMARK    2  A    between atoms: C_6  and  N_7 
REMARK       I    between atoms: N_7  and  C_8 
REMARK    3  A    between atoms: C_8  and  C_9 
REMARK    4  A    between atoms: C_9  and  N_10 
REMARK    5  A    between atoms: N_14  and  C_15 
REMARK    6  A    between atoms: C_17  and  N_18 
REMARK    7  A    between atoms: N_18  and  C_19 
REMARK    8  A    between atoms: C_26  and  N_27 
REMARK    9  A    between atoms: N_27  and  C_28 
ROOT
HETATM    1  C   UNL     1      41.350 -12.095   5.159  1.00  0.00     0.756 A 
HETATM    2  N   UNL     1      41.014 -13.336   4.858  1.00  0.00     0.131 NA
HETATM    3  C   UNL     1      41.865 -14.291   5.218  1.00  0.00     0.758 A 
HETATM    4  N   UNL     1      43.016 -14.058   5.834  1.00  0.00     0.131 NA
HETATM    5  C   UNL     1      43.240 -12.799   6.179  1.00  0.00     0.758 A 
HETATM    6  N   UNL     1      42.421 -11.799   5.875  1.00  0.00     0.131 NA
ENDROOT
BRANCH   1   7
HETATM    7  N   UNL     1      40.572 -11.059   4.685  1.00  0.00    -0.210 N 
HETATM    8  C   UNL     1      41.117 -10.154   3.673  1.00  0.00     0.169 C 
HETATM    9  C   UNL     1      41.310  -8.743   4.271  1.00  0.00     0.256 C 
HETATM   10  N   UNL     1      39.988  -8.272   4.885  1.00  0.00    -0.060 N 
HETATM   11  H   UNL     1      39.282  -8.367   4.145  1.00  0.00     0.280 HD
HETATM   12  C   UNL     1      39.560  -9.232   6.005  1.00  0.00     0.256 C 
HETATM   13  C   UNL     1      39.374 -10.647   5.418  1.00  0.00     0.169 C 
BRANCH  10  14
HETATM   14  C   UNL     1      39.986  -6.804   5.287  1.00  0.00     0.337 C 
BRANCH  14  15
HETATM   15  C   UNL     1      41.140  -6.329   6.176  1.00  0.00     0.243 C 
HETATM   16  N   UNL     1      40.929  -6.533   7.521  1.00  0.00    -0.355 N 
HETATM   17  H   UNL     1      40.014  -6.786   7.874  1.00  0.00     0.162 HD
HETATM   18  O   UNL     1      42.166  -5.841   5.711  1.00  0.00    -0.272 OA
BRANCH  16  19
HETATM   19  C   UNL     1      41.907  -6.143   8.518  1.00  0.00     0.161 C 
BRANCH  19  20
HETATM   20  C   UNL     1      41.972  -7.134   9.648  1.00  0.00    -0.041 A 
HETATM   21  C   UNL     1      41.245  -8.332   9.600  1.00  0.00     0.009 A 
HETATM   22  C   UNL     1      41.344  -9.266  10.634  1.00  0.00     0.007 A 
HETATM   23  C   UNL     1      42.168  -9.020  11.737  1.00  0.00    -0.062 A 
HETATM   24  C   UNL     1      42.334 -10.056  12.811  1.00  0.00     0.048 C 
HETATM   25  C   UNL     1      42.898  -7.828  11.786  1.00  0.00     0.007 A 
HETATM   26  C   UNL     1      42.793  -6.889  10.757  1.00  0.00     0.009 A 
ENDBRANCH  19  20
ENDBRANCH  16  19
ENDBRANCH  14  15
ENDBRANCH  10  14
ENDBRANCH   1   7
BRANCH   3  27
HETATM   27  N   UNL     1      41.601 -15.623   4.900  1.00  0.00    -0.187 N 
HETATM   28  H   UNL     1      40.606 -15.753   4.764  1.00  0.00     0.184 HD
BRANCH  27  29
HETATM   29  C   UNL     1      42.402 -16.589   4.271  1.00  0.00     0.049 A 
HETATM   30  C   UNL     1      42.206 -16.835   2.903  1.00  0.00     0.030 A 
HETATM   31  C   UNL     1      42.960 -17.800   2.228  1.00  0.00     0.002 A 
HETATM   32  C   UNL     1      43.921 -18.538   2.913  1.00  0.00     0.000 A 
HETATM   33  C   UNL     1      44.117 -18.318   4.274  1.00  0.00     0.002 A 
HETATM   34  C   UNL     1      43.353 -17.362   4.948  1.00  0.00     0.030 A 
ENDBRANCH  27  29
ENDBRANCH   3  27
BRANCH   5  35
HETATM   35  N   UNL     1      44.439 -12.554   6.842  1.00  0.00    -0.187 N 
HETATM   36  H   UNL     1      45.013 -13.385   6.871  1.00  0.00     0.184 HD
BRANCH  35  37
HETATM   37  C   UNL     1      44.902 -11.453   7.573  1.00  0.00     0.049 A 
HETATM   38  C   UNL     1      44.263 -10.971   8.722  1.00  0.00     0.030 A 
HETATM   39  C   UNL     1      44.737  -9.841   9.396  1.00  0.00     0.002 A 
HETATM   40  C   UNL     1      45.849  -9.158   8.914  1.00  0.00     0.000 A 
HETATM   41  C   UNL     1      46.488  -9.608   7.762  1.00  0.00     0.002 A 
HETATM   42  C   UNL     1      46.016 -10.745   7.099  1.00  0.00     0.030 A 
ENDBRANCH  35  37
ENDBRANCH   5  35
TORSDOF 9
ENDMDL
MODEL 9
REMARK VINA RESULT:      -9.4      3.230      5.896
REMARK  9 active torsions:
REMARK  status: ('A' for Active; 'I' for Inactive)
REMARK    1  A    between atoms: C_5  and  C_6 
REMARK    2  A    between atoms: C_6  and  N_7 
REMARK       I    between atoms: N_7  and  C_8 
REMARK    3  A    between atoms: C_8  and  C_9 
REMARK    4  A    between atoms: C_9  and  N_10 
REMARK    5  A    between atoms: N_14  and  C_15 
REMARK    6  A    between atoms: C_17  and  N_18 
REMARK    7  A    between atoms: N_18  and  C_19 
REMARK    8  A    between atoms: C_26  and  N_27 
REMARK    9  A    between atoms: N_27  and  C_28 
ROOT
HETATM    1  C   UNL     1      41.584 -12.672   5.268  1.00  0.00     0.756 A 
HETATM    2  N   UNL     1      42.655 -12.102   5.791  1.00  0.00     0.131 NA
HETATM    3  C   UNL     1      43.616 -12.914   6.220  1.00  0.00     0.758 A 
HETATM    4  N   UNL     1      43.543 -14.236   6.162  1.00  0.00     0.131 NA
HETATM    5  C   UNL     1      42.478 -14.729   5.545  1.00  0.00     0.758 A 
HETATM    6  N   UNL     1      41.494 -13.975   5.070  1.00  0.00     0.131 NA
ENDROOT
BRANCH   1   7
HETATM    7  N   UNL     1      40.502 -11.883   4.938  1.00  0.00    -0.210 N 
HETATM    8  C   UNL     1      40.676 -10.780   3.994  1.00  0.00     0.169 C 
HETATM    9  C   UNL     1      40.491  -9.427   4.716  1.00  0.00     0.256 C 
HETATM   10  N   UNL     1      39.141  -9.423   5.440  1.00  0.00    -0.060 N 
HETATM   11  H   UNL     1      38.440  -9.668   4.731  1.00  0.00     0.280 HD
HETATM   12  C   UNL     1      39.103 -10.552   6.481  1.00  0.00     0.256 C 
HETATM   13  C   UNL     1      39.296 -11.907   5.769  1.00  0.00     0.169 C 
BRANCH  10  14
HETATM   14  C   UNL     1      38.740  -8.060   5.983  1.00  0.00     0.337 C 
BRANCH  14  15
HETATM   15  C   UNL     1      39.860  -7.187   6.558  1.00  0.00     0.243 C 
HETATM   16  N   UNL     1      40.314  -7.602   7.790  1.00  0.00    -0.355 N 
HETATM   17  H   UNL     1      39.806  -8.293   8.329  1.00  0.00     0.162 HD
HETATM   18  O   UNL     1      40.321  -6.228   5.948  1.00  0.00    -0.272 OA
BRANCH  16  19
HETATM   19  C   UNL     1      41.367  -6.898   8.496  1.00  0.00     0.161 C 
BRANCH  19  20
HETATM   20  C   UNL     1      41.591  -7.469   9.871  1.00  0.00    -0.041 A 
HETATM   21  C   UNL     1      40.930  -8.634  10.284  1.00  0.00     0.009 A 
HETATM   22  C   UNL     1      41.177  -9.181  11.546  1.00  0.00     0.007 A 
HETATM   23  C   UNL     1      42.083  -8.572  12.420  1.00  0.00    -0.062 A 
HETATM   24  C   UNL     1      42.404  -9.201  13.744  1.00  0.00     0.048 C 
HETATM   25  C   UNL     1      42.746  -7.412  12.009  1.00  0.00     0.007 A 
HETATM   26  C   UNL     1      42.495  -6.859  10.750  1.00  0.00     0.009 A 
ENDBRANCH  19  20
ENDBRANCH  16  19
ENDBRANCH  14  15
ENDBRANCH  10  14
ENDBRANCH   1   7
BRANCH   3  27
HETATM   27  N   UNL     1      44.760 -12.391   6.821  1.00  0.00    -0.187 N 
HETATM   28  H   UNL     1      45.578 -12.641   6.279  1.00  0.00     0.184 HD
BRANCH  27  29
HETATM   29  C   UNL     1      44.929 -11.260   7.635  1.00  0.00     0.049 A 
HETATM   30  C   UNL     1      45.976 -10.373   7.343  1.00  0.00     0.030 A 
HETATM   31  C   UNL     1      46.205  -9.241   8.131  1.00  0.00     0.002 A 
HETATM   32  C   UNL     1      45.391  -8.981   9.229  1.00  0.00     0.000 A 
HETATM   33  C   UNL     1      44.357  -9.859   9.543  1.00  0.00     0.002 A 
HETATM   34  C   UNL     1      44.139 -10.996   8.761  1.00  0.00     0.030 A 
ENDBRANCH  27  29
ENDBRANCH   3  27
BRANCH   5  35
HETATM   35  N   UNL     1      42.408 -16.117   5.467  1.00  0.00    -0.187 N 
HETATM   36  H   UNL     1      41.972 -16.504   6.292  1.00  0.00     0.184 HD
BRANCH  35  37
HETATM   37  C   UNL     1      42.944 -17.036   4.558  1.00  0.00     0.049 A 
HETATM   38  C   UNL     1      42.532 -17.125   3.223  1.00  0.00     0.030 A 
HETATM   39  C   UNL     1      43.065 -18.088   2.361  1.00  0.00     0.002 A 
HETATM   40  C   UNL     1      44.007 -18.998   2.831  1.00  0.00     0.000 A 
HETATM   41  C   UNL     1      44.416 -18.941   4.160  1.00  0.00     0.002 A 
HETATM   42  C   UNL     1      43.887 -17.969   5.014  1.00  0.00     0.030 A 
ENDBRANCH  35  37
ENDBRANCH   5  35
TORSDOF 9
ENDMDL
MODEL 10
REMARK VINA RESULT:      -9.0      2.110      5.573
REMARK  9 active torsions:
REMARK  status: ('A' for Active; 'I' for Inactive)
REMARK    1  A    between atoms: C_5  and  C_6 
REMARK    2  A    between atoms: C_6  and  N_7 
REMARK       I    between atoms: N_7  and  C_8 
REMARK    3  A    between atoms: C_8  and  C_9 
REMARK    4  A    between atoms: C_9  and  N_10 
REMARK    5  A    between atoms: N_14  and  C_15 
REMARK    6  A    between atoms: C_17  and  N_18 
REMARK    7  A    between atoms: N_18  and  C_19 
REMARK    8  A    between atoms: C_26  and  N_27 
REMARK    9  A    between atoms: N_27  and  C_28 
ROOT
HETATM    1  C   UNL     1      40.716 -11.694   4.002  1.00  0.00     0.756 A 
HETATM    2  N   UNL     1      40.853 -12.818   4.681  1.00  0.00     0.131 NA
HETATM    3  C   UNL     1      40.407 -13.927   4.099  1.00  0.00     0.758 A 
HETATM    4  N   UNL     1      39.829 -13.951   2.906  1.00  0.00     0.131 NA
HETATM    5  C   UNL     1      39.808 -12.799   2.253  1.00  0.00     0.758 A 
HETATM    6  N   UNL     1      40.261 -11.659   2.762  1.00  0.00     0.131 NA
ENDROOT
BRANCH   1   7
HETATM    7  N   UNL     1      41.034 -10.500   4.616  1.00  0.00    -0.210 N 
HETATM    8  C   UNL     1      42.111 -10.464   5.606  1.00  0.00     0.169 C 
HETATM    9  C   UNL     1      41.534 -10.170   7.008  1.00  0.00     0.256 C 
HETATM   10  N   UNL     1      40.696  -8.889   6.949  1.00  0.00    -0.060 N 
HETATM   11  H   UNL     1      41.305  -8.170   6.541  1.00  0.00     0.280 HD
HETATM   12  C   UNL     1      39.534  -9.071   5.962  1.00  0.00     0.256 C 
HETATM   13  C   UNL     1      40.100  -9.374   4.559  1.00  0.00     0.169 C 
BRANCH  10  14
HETATM   14  C   UNL     1      40.278  -8.366   8.315  1.00  0.00     0.337 C 
BRANCH  14  15
HETATM   15  C   UNL     1      40.587  -9.257   9.522  1.00  0.00     0.243 C 
HETATM   16  N   UNL     1      41.854  -9.085  10.032  1.00  0.00    -0.355 N 
HETATM   17  H   UNL     1      42.558  -8.567   9.521  1.00  0.00     0.162 HD
HETATM   18  O   UNL     1      39.758 -10.026   9.998  1.00  0.00    -0.272 OA
BRANCH  16  19
HETATM   19  C   UNL     1      42.332  -9.846  11.172  1.00  0.00     0.161 C 
BRANCH  19  20
HETATM   20  C   UNL     1      42.277  -9.037  12.440  1.00  0.00    -0.041 A 
HETATM   21  C   UNL     1      41.290  -9.277  13.406  1.00  0.00     0.009 A 
HETATM   22  C   UNL     1      41.272  -8.550  14.600  1.00  0.00     0.007 A 
HETATM   23  C   UNL     1      42.237  -7.569  14.848  1.00  0.00    -0.062 A 
HETATM   24  C   UNL     1      42.263  -6.842  16.161  1.00  0.00     0.048 C 
HETATM   25  C   UNL     1      43.225  -7.330  13.888  1.00  0.00     0.007 A 
HETATM   26  C   UNL     1      43.239  -8.050  12.690  1.00  0.00     0.009 A 
ENDBRANCH  19  20
ENDBRANCH  16  19
ENDBRANCH  14  15
ENDBRANCH  10  14
ENDBRANCH   1   7
BRANCH   3  27
HETATM   27  N   UNL     1      40.478 -15.148   4.768  1.00  0.00    -0.187 N 
HETATM   28  H   UNL     1      39.557 -15.566   4.820  1.00  0.00     0.184 HD
BRANCH  27  29
HETATM   29  C   UNL     1      41.536 -16.062   4.892  1.00  0.00     0.049 A 
HETATM   30  C   UNL     1      41.936 -16.456   6.178  1.00  0.00     0.030 A 
HETATM   31  C   UNL     1      42.997 -17.347   6.363  1.00  0.00     0.002 A 
HETATM   32  C   UNL     1      43.678 -17.857   5.262  1.00  0.00     0.000 A 
HETATM   33  C   UNL     1      43.305 -17.465   3.979  1.00  0.00     0.002 A 
HETATM   34  C   UNL     1      42.252 -16.564   3.798  1.00  0.00     0.030 A 
ENDBRANCH  27  29
ENDBRANCH   3  27
BRANCH   5  35
HETATM   35  N   UNL     1      39.218 -12.825   0.992  1.00  0.00    -0.187 N 
HETATM   36  H   UNL     1      38.215 -12.918   1.063  1.00  0.00     0.184 HD
BRANCH  35  37
HETATM   37  C   UNL     1      39.758 -12.893  -0.298  1.00  0.00     0.049 A 
HETATM   38  C   UNL     1      40.546 -11.878  -0.854  1.00  0.00     0.030 A 
HETATM   39  C   UNL     1      41.029 -11.970  -2.163  1.00  0.00     0.002 A 
HETATM   40  C   UNL     1      40.710 -13.073  -2.948  1.00  0.00     0.000 A 
HETATM   41  C   UNL     1      39.911 -14.084  -2.422  1.00  0.00     0.002 A 
HETATM   42  C   UNL     1      39.440 -13.992  -1.109  1.00  0.00     0.030 A 
ENDBRANCH  35  37
ENDBRANCH   5  35
TORSDOF 9
ENDMDL
