MODEL 1
REMARK VINA RESULT:     -10.0      0.000      0.000
REMARK  7 active torsions:
REMARK  status: ('A' for Active; 'I' for Inactive)
REMARK    1  A    between atoms: C_4  and  C_5 
REMARK    2  A    between atoms: C_5  and  C_6 
REMARK    3  A    between atoms: C_8  and  C_9 
REMARK    4  A    between atoms: C_9  and  C_10 
REMARK       I    between atoms: C_10  and  N_11 
REMARK    5  A    between atoms: N_11  and  N_12 
REMARK       I    between atoms: N_12  and  C_13 
REMARK       I    between atoms: C_13  and  N_14 
REMARK    6  A    between atoms: N_14  and  C_15 
REMARK    7  A    between atoms: C_17  and  C_18 
ROOT
HETATM    1  C   UNL     1      41.917 -11.608   3.226  1.00  0.00     0.238 C 
HETATM    2  N   UNL     1      41.553 -12.844   2.731  1.00  0.00    -0.266 N 
HETATM    3  O   UNL     1      43.033 -11.128   3.020  1.00  0.00    -0.272 OA
HETATM    4  H   UNL     1      40.570 -13.087   2.670  1.00  0.00     0.190 HD
ENDROOT
BRANCH   1   5
HETATM    5  C   UNL     1      40.929 -10.921   4.158  1.00  0.00     0.139 C 
BRANCH   5   6
HETATM    6  C   UNL     1      41.006 -11.223   5.654  1.00  0.00     0.185 C 
HETATM    7  N   UNL     1      42.400 -11.294   6.080  1.00  0.00    -0.363 N 
HETATM    8  C   UNL     1      43.006 -12.479   6.399  1.00  0.00     0.125 C 
HETATM    9  H   UNL     1      42.903 -10.420   6.199  1.00  0.00     0.161 HD
HETATM   10  N   UNL     1      42.380 -13.624   6.423  1.00  0.00    -0.159 NA
HETATM   11  N   UNL     1      41.019 -13.612   6.257  1.00  0.00    -0.244 N 
HETATM   12  C   UNL     1      40.242 -12.493   6.021  1.00  0.00     0.261 C 
HETATM   13  H   UNL     1      40.522 -14.471   6.481  1.00  0.00     0.192 HD
HETATM   14  O   UNL     1      39.016 -12.556   6.010  1.00  0.00    -0.269 OA
BRANCH   8  15
HETATM   15  C   UNL     1      44.499 -12.469   6.706  1.00  0.00     0.118 C 
BRANCH  15  16
HETATM   16  C   UNL     1      44.911 -11.297   7.560  1.00  0.00    -0.051 A 
HETATM   17  C   UNL     1      44.255 -11.032   8.772  1.00  0.00     0.007 A 
HETATM   18  C   UNL     1      44.656  -9.965   9.578  1.00  0.00     0.001 A 
HETATM   19  C   UNL     1      45.720  -9.158   9.187  1.00  0.00     0.000 A 
HETATM   20  C   UNL     1      46.385  -9.415   7.989  1.00  0.00     0.001 A 
HETATM   21  C   UNL     1      45.985 -10.479   7.180  1.00  0.00     0.007 A 
ENDBRANCH  15  16
ENDBRANCH   8  15
ENDBRANCH   5   6
ENDBRANCH   1   5
BRANCH   2  22
HETATM   22  N   UNL     1      42.402 -13.416   1.765  1.00  0.00    -0.249 N 
HETATM   23  C   UNL     1      43.100 -14.587   1.979  1.00  0.00     0.339 C 
HETATM   24  N   UNL     1      42.531 -15.438   2.900  1.00  0.00    -0.308 N 
HETATM   25  O   UNL     1      44.130 -14.789   1.344  1.00  0.00    -0.245 OA
HETATM   26  H   UNL     1      41.557 -15.273   3.107  1.00  0.00     0.170 HD
HETATM   27  H   UNL     1      42.860 -12.747   1.144  1.00  0.00     0.192 HD
BRANCH  24  28
HETATM   28  C   UNL     1      43.073 -16.641   3.400  1.00  0.00     0.037 A 
HETATM   29  C   UNL     1      43.059 -17.852   2.703  1.00  0.00     0.045 A 
HETATM   30  C   UNL     1      43.631 -19.013   3.255  1.00  0.00     0.050 A 
HETATM   31  C   UNL     1      44.221 -18.945   4.525  1.00  0.00     0.016 A 
HETATM   32  C   UNL     1      44.246 -17.740   5.225  1.00  0.00     0.003 A 
HETATM   33  C   UNL     1      43.672 -16.597   4.665  1.00  0.00     0.029 A 
BRANCH  30  34
HETATM   34  C   UNL     1      43.574 -20.327   2.515  1.00  0.00     0.417 C 
HETATM   35  F   UNL     1      44.516 -20.450   1.540  1.00  0.00    -0.166 F 
HETATM   36  F   UNL     1      43.756 -21.400   3.338  1.00  0.00    -0.166 F 
HETATM   37  F   UNL     1      42.372 -20.528   1.908  1.00  0.00    -0.166 F 
ENDBRANCH  30  34
ENDBRANCH  24  28
ENDBRANCH   2  22
TORSDOF 7
ENDMDL
MODEL 2
REMARK VINA RESULT:      -9.7      1.677      2.393
REMARK  7 active torsions:
REMARK  status: ('A' for Active; 'I' for Inactive)
REMARK    1  A    between atoms: C_4  and  C_5 
REMARK    2  A    between atoms: C_5  and  C_6 
REMARK    3  A    between atoms: C_8  and  C_9 
REMARK    4  A    between atoms: C_9  and  C_10 
REMARK       I    between atoms: C_10  and  N_11 
REMARK    5  A    between atoms: N_11  and  N_12 
REMARK       I    between atoms: N_12  and  C_13 
REMARK       I    between atoms: C_13  and  N_14 
REMARK    6  A    between atoms: N_14  and  C_15 
REMARK    7  A    between atoms: C_17  and  C_18 
ROOT
HETATM    1  C   UNL     1      42.973 -11.559   3.851  1.00  0.00     0.238 C 
HETATM    2  N   UNL     1      42.193 -12.608   3.408  1.00  0.00    -0.266 N 
HETATM    3  O   UNL     1      44.113 -11.372   3.425  1.00  0.00    -0.272 OA
HETATM    4  H   UNL     1      41.189 -12.579   3.551  1.00  0.00     0.190 HD
ENDROOT
BRANCH   1   5
HETATM    5  C   UNL     1      42.415 -10.720   4.992  1.00  0.00     0.139 C 
BRANCH   5   6
HETATM    6  C   UNL     1      42.613 -11.215   6.425  1.00  0.00     0.185 C 
HETATM    7  N   UNL     1      43.294 -10.197   7.216  1.00  0.00    -0.363 N 
HETATM    8  C   UNL     1      44.599 -10.329   7.607  1.00  0.00     0.125 C 
HETATM    9  H   UNL     1      42.749  -9.401   7.534  1.00  0.00     0.161 HD
HETATM   10  N   UNL     1      45.316 -11.394   7.374  1.00  0.00    -0.159 NA
HETATM   11  N   UNL     1      44.683 -12.485   6.835  1.00  0.00    -0.244 N 
HETATM   12  C   UNL     1      43.352 -12.550   6.471  1.00  0.00     0.261 C 
HETATM   13  H   UNL     1      45.194 -13.365   6.849  1.00  0.00     0.192 HD
HETATM   14  O   UNL     1      42.837 -13.606   6.114  1.00  0.00    -0.269 OA
BRANCH   8  15
HETATM   15  C   UNL     1      45.264  -9.156   8.319  1.00  0.00     0.118 C 
BRANCH  15  16
HETATM   16  C   UNL     1      44.455  -8.648   9.486  1.00  0.00    -0.051 A 
HETATM   17  C   UNL     1      43.670  -7.492   9.360  1.00  0.00     0.007 A 
HETATM   18  C   UNL     1      42.897  -7.039  10.430  1.00  0.00     0.001 A 
HETATM   19  C   UNL     1      42.893  -7.740  11.633  1.00  0.00     0.000 A 
HETATM   20  C   UNL     1      43.662  -8.895  11.768  1.00  0.00     0.001 A 
HETATM   21  C   UNL     1      44.438  -9.348  10.701  1.00  0.00     0.007 A 
ENDBRANCH  15  16
ENDBRANCH   8  15
ENDBRANCH   5   6
ENDBRANCH   1   5
BRANCH   2  22
HETATM   22  N   UNL     1      42.644 -13.297   2.267  1.00  0.00    -0.249 N 
HETATM   23  C   UNL     1      43.184 -14.566   2.321  1.00  0.00     0.339 C 
HETATM   24  N   UNL     1      42.766 -15.326   3.390  1.00  0.00    -0.308 N 
HETATM   25  O   UNL     1      43.955 -14.921   1.435  1.00  0.00    -0.245 OA
HETATM   26  H   UNL     1      41.924 -15.012   3.849  1.00  0.00     0.170 HD
HETATM   27  H   UNL     1      43.012 -12.702   1.522  1.00  0.00     0.192 HD
BRANCH  24  28
HETATM   28  C   UNL     1      43.232 -16.604   3.762  1.00  0.00     0.037 A 
HETATM   29  C   UNL     1      43.156 -17.732   2.940  1.00  0.00     0.045 A 
HETATM   30  C   UNL     1      43.654 -18.977   3.370  1.00  0.00     0.050 A 
HETATM   31  C   UNL     1      44.232 -19.078   4.643  1.00  0.00     0.016 A 
HETATM   32  C   UNL     1      44.318 -17.958   5.466  1.00  0.00     0.003 A 
HETATM   33  C   UNL     1      43.817 -16.730   5.028  1.00  0.00     0.029 A 
BRANCH  30  34
HETATM   34  C   UNL     1      43.530 -20.200   2.494  1.00  0.00     0.417 C 
HETATM   35  F   UNL     1      44.444 -20.249   1.486  1.00  0.00    -0.166 F 
HETATM   36  F   UNL     1      43.689 -21.361   3.192  1.00  0.00    -0.166 F 
HETATM   37  F   UNL     1      42.307 -20.290   1.901  1.00  0.00    -0.166 F 
ENDBRANCH  30  34
ENDBRANCH  24  28
ENDBRANCH   2  22
TORSDOF 7
ENDMDL
MODEL 3
REMARK VINA RESULT:      -9.6      5.792      9.950
REMARK  7 active torsions:
REMARK  status: ('A' for Active; 'I' for Inactive)
REMARK    1  A    between atoms: C_4  and  C_5 
REMARK    2  A    between atoms: C_5  and  C_6 
REMARK    3  A    between atoms: C_8  and  C_9 
REMARK    4  A    between atoms: C_9  and  C_10 
REMARK       I    between atoms: C_10  and  N_11 
REMARK    5  A    between atoms: N_11  and  N_12 
REMARK       I    between atoms: N_12  and  C_13 
REMARK       I    between atoms: C_13  and  N_14 
REMARK    6  A    between atoms: N_14  and  C_15 
REMARK    7  A    between atoms: C_17  and  C_18 
ROOT
HETATM    1  C   UNL     1      43.159 -12.173   5.884  1.00  0.00     0.238 C 
HETATM    2  N   UNL     1      43.617 -12.399   7.166  1.00  0.00    -0.266 N 
HETATM    3  O   UNL     1      43.591 -11.249   5.193  1.00  0.00    -0.272 OA
HETATM    4  H   UNL     1      43.464 -13.304   7.599  1.00  0.00     0.190 HD
ENDROOT
BRANCH   1   5
HETATM    5  C   UNL     1      41.993 -13.029   5.409  1.00  0.00     0.139 C 
BRANCH   5   6
HETATM    6  C   UNL     1      41.990 -14.516   5.760  1.00  0.00     0.185 C 
HETATM    7  N   UNL     1      42.822 -15.255   4.816  1.00  0.00    -0.363 N 
HETATM    8  C   UNL     1      42.288 -16.073   3.858  1.00  0.00     0.125 C 
HETATM    9  H   UNL     1      43.830 -15.199   4.931  1.00  0.00     0.161 HD
HETATM   10  N   UNL     1      41.011 -16.319   3.752  1.00  0.00    -0.159 NA
HETATM   11  N   UNL     1      40.184 -15.845   4.737  1.00  0.00    -0.244 N 
HETATM   12  C   UNL     1      40.574 -15.084   5.824  1.00  0.00     0.261 C 
HETATM   13  H   UNL     1      39.236 -16.212   4.757  1.00  0.00     0.192 HD
HETATM   14  O   UNL     1      39.789 -14.808   6.726  1.00  0.00    -0.269 OA
BRANCH   8  15
HETATM   15  C   UNL     1      43.229 -16.700   2.835  1.00  0.00     0.118 C 
BRANCH  15  16
HETATM   16  C   UNL     1      43.498 -18.159   3.108  1.00  0.00    -0.051 A 
HETATM   17  C   UNL     1      43.977 -18.574   4.359  1.00  0.00     0.007 A 
HETATM   18  C   UNL     1      44.197 -19.927   4.623  1.00  0.00     0.001 A 
HETATM   19  C   UNL     1      43.932 -20.879   3.643  1.00  0.00     0.000 A 
HETATM   20  C   UNL     1      43.448 -20.481   2.398  1.00  0.00     0.001 A 
HETATM   21  C   UNL     1      43.230 -19.128   2.131  1.00  0.00     0.007 A 
ENDBRANCH  15  16
ENDBRANCH   8  15
ENDBRANCH   5   6
ENDBRANCH   1   5
BRANCH   2  22
HETATM   22  N   UNL     1      44.778 -11.706   7.557  1.00  0.00    -0.249 N 
HETATM   23  C   UNL     1      44.743 -10.527   8.273  1.00  0.00     0.339 C 
HETATM   24  N   UNL     1      43.618 -10.356   9.048  1.00  0.00    -0.308 N 
HETATM   25  O   UNL     1      45.690  -9.752   8.188  1.00  0.00    -0.245 OA
HETATM   26  H   UNL     1      43.086 -11.192   9.241  1.00  0.00     0.170 HD
HETATM   27  H   UNL     1      45.571 -11.801   6.921  1.00  0.00     0.192 HD
BRANCH  24  28
HETATM   28  C   UNL     1      43.258  -9.211   9.790  1.00  0.00     0.037 A 
HETATM   29  C   UNL     1      43.227  -9.165  11.186  1.00  0.00     0.045 A 
HETATM   30  C   UNL     1      42.872  -7.984  11.865  1.00  0.00     0.050 A 
HETATM   31  C   UNL     1      42.546  -6.841  11.121  1.00  0.00     0.016 A 
HETATM   32  C   UNL     1      42.581  -6.876   9.728  1.00  0.00     0.003 A 
HETATM   33  C   UNL     1      42.932  -8.056   9.069  1.00  0.00     0.029 A 
BRANCH  30  34
HETATM   34  C   UNL     1      42.799  -7.953  13.372  1.00  0.00     0.417 C 
HETATM   35  F   UNL     1      42.725  -9.186  13.944  1.00  0.00    -0.166 F 
HETATM   36  F   UNL     1      43.885  -7.350  13.936  1.00  0.00    -0.166 F 
HETATM   37  F   UNL     1      41.716  -7.261  13.823  1.00  0.00    -0.166 F 
ENDBRANCH  30  34
ENDBRANCH  24  28
ENDBRANCH   2  22
TORSDOF 7
ENDMDL
MODEL 4
REMARK VINA RESULT:      -9.4      2.726      4.431
REMARK  7 active torsions:
REMARK  status: ('A' for Active; 'I' for Inactive)
REMARK    1  A    between atoms: C_4  and  C_5 
REMARK    2  A    between atoms: C_5  and  C_6 
REMARK    3  A    between atoms: C_8  and  C_9 
REMARK    4  A    between atoms: C_9  and  C_10 
REMARK       I    between atoms: C_10  and  N_11 
REMARK    5  A    between atoms: N_11  and  N_12 
REMARK       I    between atoms: N_12  and  C_13 
REMARK       I    between atoms: C_13  and  N_14 
REMARK    6  A    between atoms: N_14  and  C_15 
REMARK    7  A    between atoms: C_17  and  C_18 
ROOT
HETATM    1  C   UNL     1      42.634 -11.955   6.123  1.00  0.00     0.238 C 
HETATM    2  N   UNL     1      42.798 -13.140   6.811  1.00  0.00    -0.266 N 
HETATM    3  O   UNL     1      41.700 -11.782   5.339  1.00  0.00    -0.272 OA
HETATM    4  H   UNL     1      43.385 -13.161   7.638  1.00  0.00     0.190 HD
ENDROOT
BRANCH   1   5
HETATM    5  C   UNL     1      43.738 -10.918   6.268  1.00  0.00     0.139 C 
BRANCH   5   6
HETATM    6  C   UNL     1      44.461 -10.804   7.610  1.00  0.00     0.185 C 
HETATM    7  N   UNL     1      43.788  -9.828   8.460  1.00  0.00    -0.363 N 
HETATM    8  C   UNL     1      44.325  -8.597   8.724  1.00  0.00     0.125 C 
HETATM    9  H   UNL     1      42.925 -10.112   8.914  1.00  0.00     0.161 HD
HETATM   10  N   UNL     1      45.503  -8.221   8.306  1.00  0.00    -0.159 NA
HETATM   11  N   UNL     1      46.294  -9.159   7.693  1.00  0.00    -0.244 N 
HETATM   12  C   UNL     1      45.941 -10.470   7.434  1.00  0.00     0.261 C 
HETATM   13  H   UNL     1      47.273  -8.917   7.560  1.00  0.00     0.192 HD
HETATM   14  O   UNL     1      46.756 -11.277   6.996  1.00  0.00    -0.269 OA
BRANCH   8  15
HETATM   15  C   UNL     1      43.489  -7.597   9.515  1.00  0.00     0.118 C 
BRANCH  15  16
HETATM   16  C   UNL     1      42.801  -8.223  10.702  1.00  0.00    -0.051 A 
HETATM   17  C   UNL     1      43.514  -8.496  11.878  1.00  0.00     0.007 A 
HETATM   18  C   UNL     1      42.870  -9.047  12.988  1.00  0.00     0.001 A 
HETATM   19  C   UNL     1      41.507  -9.324  12.935  1.00  0.00     0.000 A 
HETATM   20  C   UNL     1      40.785  -9.050  11.775  1.00  0.00     0.001 A 
HETATM   21  C   UNL     1      41.427  -8.502  10.664  1.00  0.00     0.007 A 
ENDBRANCH  15  16
ENDBRANCH   8  15
ENDBRANCH   5   6
ENDBRANCH   1   5
BRANCH   2  22
HETATM   22  N   UNL     1      41.717 -14.042   6.788  1.00  0.00    -0.249 N 
HETATM   23  C   UNL     1      41.693 -15.163   5.984  1.00  0.00     0.339 C 
HETATM   24  N   UNL     1      42.933 -15.658   5.647  1.00  0.00    -0.308 N 
HETATM   25  O   UNL     1      40.610 -15.635   5.654  1.00  0.00    -0.245 OA
HETATM   26  H   UNL     1      43.701 -15.351   6.226  1.00  0.00     0.170 HD
HETATM   27  H   UNL     1      40.804 -13.625   6.974  1.00  0.00     0.192 HD
BRANCH  24  28
HETATM   28  C   UNL     1      43.218 -16.714   4.755  1.00  0.00     0.037 A 
HETATM   29  C   UNL     1      43.486 -18.025   5.158  1.00  0.00     0.045 A 
HETATM   30  C   UNL     1      43.748 -19.035   4.213  1.00  0.00     0.050 A 
HETATM   31  C   UNL     1      43.739 -18.712   2.849  1.00  0.00     0.016 A 
HETATM   32  C   UNL     1      43.466 -17.409   2.438  1.00  0.00     0.003 A 
HETATM   33  C   UNL     1      43.210 -16.417   3.386  1.00  0.00     0.029 A 
BRANCH  30  34
HETATM   34  C   UNL     1      44.079 -20.439   4.657  1.00  0.00     0.417 C 
HETATM   35  F   UNL     1      45.359 -20.589   5.098  1.00  0.00    -0.166 F 
HETATM   36  F   UNL     1      43.286 -20.865   5.681  1.00  0.00    -0.166 F 
HETATM   37  F   UNL     1      43.914 -21.350   3.658  1.00  0.00    -0.166 F 
ENDBRANCH  30  34
ENDBRANCH  24  28
ENDBRANCH   2  22
TORSDOF 7
ENDMDL
MODEL 5
REMARK VINA RESULT:      -9.4      3.067      4.799
REMARK  7 active torsions:
REMARK  status: ('A' for Active; 'I' for Inactive)
REMARK    1  A    between atoms: C_4  and  C_5 
REMARK    2  A    between atoms: C_5  and  C_6 
REMARK    3  A    between atoms: C_8  and  C_9 
REMARK    4  A    between atoms: C_9  and  C_10 
REMARK       I    between atoms: C_10  and  N_11 
REMARK    5  A    between atoms: N_11  and  N_12 
REMARK       I    between atoms: N_12  and  C_13 
REMARK       I    between atoms: C_13  and  N_14 
REMARK    6  A    between atoms: N_14  and  C_15 
REMARK    7  A    between atoms: C_17  and  C_18 
ROOT
HETATM    1  C   UNL     1      43.506 -12.081   6.948  1.00  0.00     0.238 C 
HETATM    2  N   UNL     1      43.691 -13.423   7.211  1.00  0.00    -0.266 N 
HETATM    3  O   UNL     1      42.452 -11.650   6.476  1.00  0.00    -0.272 OA
HETATM    4  H   UNL     1      44.430 -13.711   7.843  1.00  0.00     0.190 HD
ENDROOT
BRANCH   1   5
HETATM    5  C   UNL     1      44.711 -11.170   7.134  1.00  0.00     0.139 C 
BRANCH   5   6
HETATM    6  C   UNL     1      44.931 -10.522   8.500  1.00  0.00     0.185 C 
HETATM    7  N   UNL     1      43.679 -10.492   9.248  1.00  0.00    -0.363 N 
HETATM    8  C   UNL     1      42.981  -9.333   9.457  1.00  0.00     0.125 C 
HETATM    9  H   UNL     1      43.363 -11.358   9.675  1.00  0.00     0.161 HD
HETATM   10  N   UNL     1      43.406  -8.160   9.075  1.00  0.00    -0.159 NA
HETATM   11  N   UNL     1      44.677  -8.073   8.568  1.00  0.00    -0.244 N 
HETATM   12  C   UNL     1      45.546  -9.130   8.379  1.00  0.00     0.261 C 
HETATM   13  H   UNL     1      45.068  -7.139   8.468  1.00  0.00     0.192 HD
HETATM   14  O   UNL     1      46.712  -8.947   8.038  1.00  0.00    -0.269 OA
BRANCH   8  15
HETATM   15  C   UNL     1      41.619  -9.420  10.135  1.00  0.00     0.118 C 
BRANCH  15  16
HETATM   16  C   UNL     1      41.695  -9.199  11.625  1.00  0.00    -0.051 A 
HETATM   17  C   UNL     1      42.795  -8.538  12.193  1.00  0.00     0.007 A 
HETATM   18  C   UNL     1      42.851  -8.306  13.568  1.00  0.00     0.001 A 
HETATM   19  C   UNL     1      41.807  -8.723  14.388  1.00  0.00     0.000 A 
HETATM   20  C   UNL     1      40.705  -9.373  13.836  1.00  0.00     0.001 A 
HETATM   21  C   UNL     1      40.647  -9.610  12.462  1.00  0.00     0.007 A 
ENDBRANCH  15  16
ENDBRANCH   8  15
ENDBRANCH   5   6
ENDBRANCH   1   5
BRANCH   2  22
HETATM   22  N   UNL     1      42.546 -14.242   7.171  1.00  0.00    -0.249 N 
HETATM   23  C   UNL     1      42.217 -15.019   6.080  1.00  0.00     0.339 C 
HETATM   24  N   UNL     1      43.285 -15.392   5.294  1.00  0.00    -0.308 N 
HETATM   25  O   UNL     1      41.043 -15.328   5.902  1.00  0.00    -0.245 OA
HETATM   26  H   UNL     1      44.195 -15.316   5.725  1.00  0.00     0.170 HD
HETATM   27  H   UNL     1      41.750 -13.895   7.710  1.00  0.00     0.192 HD
BRANCH  24  28
HETATM   28  C   UNL     1      43.241 -16.084   4.066  1.00  0.00     0.037 A 
HETATM   29  C   UNL     1      43.325 -17.474   3.950  1.00  0.00     0.045 A 
HETATM   30  C   UNL     1      43.260 -18.102   2.692  1.00  0.00     0.050 A 
HETATM   31  C   UNL     1      43.108 -17.313   1.543  1.00  0.00     0.016 A 
HETATM   32  C   UNL     1      43.015 -15.927   1.649  1.00  0.00     0.003 A 
HETATM   33  C   UNL     1      43.085 -15.318   2.904  1.00  0.00     0.029 A 
BRANCH  30  34
HETATM   34  C   UNL     1      43.395 -19.600   2.570  1.00  0.00     0.417 C 
HETATM   35  F   UNL     1      44.425 -19.996   1.773  1.00  0.00    -0.166 F 
HETATM   36  F   UNL     1      43.608 -20.207   3.773  1.00  0.00    -0.166 F 
HETATM   37  F   UNL     1      42.275 -20.181   2.056  1.00  0.00    -0.166 F 
ENDBRANCH  30  34
ENDBRANCH  24  28
ENDBRANCH   2  22
TORSDOF 7
ENDMDL
MODEL 6
REMARK VINA RESULT:      -9.4      2.587      6.032
REMARK  7 active torsions:
REMARK  status: ('A' for Active; 'I' for Inactive)
REMARK    1  A    between atoms: C_4  and  C_5 
REMARK    2  A    between atoms: C_5  and  C_6 
REMARK    3  A    between atoms: C_8  and  C_9 
REMARK    4  A    between atoms: C_9  and  C_10 
REMARK       I    between atoms: C_10  and  N_11 
REMARK    5  A    between atoms: N_11  and  N_12 
REMARK       I    between atoms: N_12  and  C_13 
REMARK       I    between atoms: C_13  and  N_14 
REMARK    6  A    between atoms: N_14  and  C_15 
REMARK    7  A    between atoms: C_17  and  C_18 
ROOT
HETATM    1  C   UNL     1      41.657 -12.429   5.804  1.00  0.00     0.238 C 
HETATM    2  N   UNL     1      42.634 -13.173   6.432  1.00  0.00    -0.266 N 
HETATM    3  O   UNL     1      40.527 -12.877   5.602  1.00  0.00    -0.272 OA
HETATM    4  H   UNL     1      43.439 -12.704   6.833  1.00  0.00     0.190 HD
ENDROOT
BRANCH   1   5
HETATM    5  C   UNL     1      42.075 -11.077   5.244  1.00  0.00     0.139 C 
BRANCH   5   6
HETATM    6  C   UNL     1      42.465 -10.987   3.769  1.00  0.00     0.185 C 
HETATM    7  N   UNL     1      41.346 -11.402   2.929  1.00  0.00    -0.363 N 
HETATM    8  C   UNL     1      41.342 -12.594   2.256  1.00  0.00     0.125 C 
HETATM    9  H   UNL     1      40.583 -10.744   2.799  1.00  0.00     0.161 HD
HETATM   10  N   UNL     1      42.352 -13.419   2.247  1.00  0.00    -0.159 NA
HETATM   11  N   UNL     1      43.524 -13.001   2.825  1.00  0.00    -0.244 N 
HETATM   12  C   UNL     1      43.726 -11.791   3.461  1.00  0.00     0.261 C 
HETATM   13  H   UNL     1      44.354 -13.558   2.633  1.00  0.00     0.192 HD
HETATM   14  O   UNL     1      44.841 -11.445   3.839  1.00  0.00    -0.269 OA
BRANCH   8  15
HETATM   15  C   UNL     1      40.075 -12.999   1.510  1.00  0.00     0.118 C 
BRANCH  15  16
HETATM   16  C   UNL     1      40.254 -12.991   0.012  1.00  0.00    -0.051 A 
HETATM   17  C   UNL     1      40.858 -11.899  -0.628  1.00  0.00     0.007 A 
HETATM   18  C   UNL     1      41.051 -11.905  -2.010  1.00  0.00     0.001 A 
HETATM   19  C   UNL     1      40.652 -13.004  -2.765  1.00  0.00     0.000 A 
HETATM   20  C   UNL     1      40.057 -14.099  -2.140  1.00  0.00     0.001 A 
HETATM   21  C   UNL     1      39.860 -14.094  -0.759  1.00  0.00     0.007 A 
ENDBRANCH  15  16
ENDBRANCH   8  15
ENDBRANCH   5   6
ENDBRANCH   1   5
BRANCH   2  22
HETATM   22  N   UNL     1      42.219 -14.359   7.068  1.00  0.00    -0.249 N 
HETATM   23  C   UNL     1      42.229 -15.589   6.443  1.00  0.00     0.339 C 
HETATM   24  N   UNL     1      43.145 -15.710   5.423  1.00  0.00    -0.308 N 
HETATM   25  O   UNL     1      41.462 -16.462   6.838  1.00  0.00    -0.245 OA
HETATM   26  H   UNL     1      43.890 -15.028   5.418  1.00  0.00     0.170 HD
HETATM   27  H   UNL     1      41.487 -14.237   7.771  1.00  0.00     0.192 HD
BRANCH  24  28
HETATM   28  C   UNL     1      43.302 -16.800   4.541  1.00  0.00     0.037 A 
HETATM   29  C   UNL     1      43.600 -18.102   4.954  1.00  0.00     0.045 A 
HETATM   30  C   UNL     1      43.728 -19.147   4.021  1.00  0.00     0.050 A 
HETATM   31  C   UNL     1      43.554 -18.870   2.657  1.00  0.00     0.016 A 
HETATM   32  C   UNL     1      43.250 -17.577   2.237  1.00  0.00     0.003 A 
HETATM   33  C   UNL     1      43.128 -16.549   3.174  1.00  0.00     0.029 A 
BRANCH  30  34
HETATM   34  C   UNL     1      44.093 -20.541   4.470  1.00  0.00     0.417 C 
HETATM   35  F   UNL     1      45.244 -20.602   5.193  1.00  0.00    -0.166 F 
HETATM   36  F   UNL     1      43.133 -21.105   5.258  1.00  0.00    -0.166 F 
HETATM   37  F   UNL     1      44.259 -21.395   3.422  1.00  0.00    -0.166 F 
ENDBRANCH  30  34
ENDBRANCH  24  28
ENDBRANCH   2  22
TORSDOF 7
ENDMDL
MODEL 7
REMARK VINA RESULT:      -9.3      4.585      7.713
REMARK  7 active torsions:
REMARK  status: ('A' for Active; 'I' for Inactive)
REMARK    1  A    between atoms: C_4  and  C_5 
REMARK    2  A    between atoms: C_5  and  C_6 
REMARK    3  A    between atoms: C_8  and  C_9 
REMARK    4  A    between atoms: C_9  and  C_10 
REMARK       I    between atoms: C_10  and  N_11 
REMARK    5  A    between atoms: N_11  and  N_12 
REMARK       I    between atoms: N_12  and  C_13 
REMARK       I    between atoms: C_13  and  N_14 
REMARK    6  A    between atoms: N_14  and  C_15 
REMARK    7  A    between atoms: C_17  and  C_18 
ROOT
HETATM    1  C   UNL     1      37.854 -12.179  -1.632  1.00  0.00     0.238 C 
HETATM    2  N   UNL     1      37.570 -12.237  -0.283  1.00  0.00    -0.266 N 
HETATM    3  O   UNL     1      37.948 -11.107  -2.232  1.00  0.00    -0.272 OA
HETATM    4  H   UNL     1      37.774 -13.085   0.235  1.00  0.00     0.190 HD
ENDROOT
BRANCH   1   5
HETATM    5  C   UNL     1      37.908 -13.503  -2.381  1.00  0.00     0.139 C 
BRANCH   5   6
HETATM    6  C   UNL     1      39.170 -14.356  -2.264  1.00  0.00     0.185 C 
HETATM    7  N   UNL     1      39.127 -15.149  -1.041  1.00  0.00    -0.363 N 
HETATM    8  C   UNL     1      39.918 -14.867   0.040  1.00  0.00     0.125 C 
HETATM    9  H   UNL     1      38.533 -15.973  -1.032  1.00  0.00     0.161 HD
HETATM   10  N   UNL     1      40.819 -13.924   0.045  1.00  0.00    -0.159 NA
HETATM   11  N   UNL     1      41.079 -13.281  -1.138  1.00  0.00    -0.244 N 
HETATM   12  C   UNL     1      40.440 -13.511  -2.341  1.00  0.00     0.261 C 
HETATM   13  H   UNL     1      41.915 -12.701  -1.171  1.00  0.00     0.192 HD
HETATM   14  O   UNL     1      40.822 -12.981  -3.381  1.00  0.00    -0.269 OA
BRANCH   8  15
HETATM   15  C   UNL     1      39.709 -15.670   1.319  1.00  0.00     0.118 C 
BRANCH  15  16
HETATM   16  C   UNL     1      40.971 -15.807   2.134  1.00  0.00    -0.051 A 
HETATM   17  C   UNL     1      42.210 -15.990   1.503  1.00  0.00     0.007 A 
HETATM   18  C   UNL     1      43.383 -16.086   2.255  1.00  0.00     0.001 A 
HETATM   19  C   UNL     1      43.329 -15.992   3.643  1.00  0.00     0.000 A 
HETATM   20  C   UNL     1      42.105 -15.802   4.282  1.00  0.00     0.001 A 
HETATM   21  C   UNL     1      40.931 -15.708   3.532  1.00  0.00     0.007 A 
ENDBRANCH  15  16
ENDBRANCH   8  15
ENDBRANCH   5   6
ENDBRANCH   1   5
BRANCH   2  22
HETATM   22  N   UNL     1      37.654 -11.029   0.436  1.00  0.00    -0.249 N 
HETATM   23  C   UNL     1      38.261 -10.932   1.671  1.00  0.00     0.339 C 
HETATM   24  N   UNL     1      39.234 -11.876   1.912  1.00  0.00    -0.308 N 
HETATM   25  O   UNL     1      37.918 -10.033   2.433  1.00  0.00    -0.245 OA
HETATM   26  H   UNL     1      39.602 -12.345   1.097  1.00  0.00     0.170 HD
HETATM   27  H   UNL     1      36.878 -10.383   0.284  1.00  0.00     0.192 HD
BRANCH  24  28
HETATM   28  C   UNL     1      39.937 -12.090   3.116  1.00  0.00     0.037 A 
HETATM   29  C   UNL     1      41.323 -11.962   3.244  1.00  0.00     0.045 A 
HETATM   30  C   UNL     1      41.960 -12.177   4.481  1.00  0.00     0.050 A 
HETATM   31  C   UNL     1      41.184 -12.524   5.596  1.00  0.00     0.016 A 
HETATM   32  C   UNL     1      39.801 -12.647   5.480  1.00  0.00     0.003 A 
HETATM   33  C   UNL     1      39.184 -12.434   4.246  1.00  0.00     0.029 A 
BRANCH  30  34
HETATM   34  C   UNL     1      43.461 -12.079   4.603  1.00  0.00     0.417 C 
HETATM   35  F   UNL     1      43.897 -10.881   5.078  1.00  0.00    -0.166 F 
HETATM   36  F   UNL     1      43.980 -13.019   5.443  1.00  0.00    -0.166 F 
HETATM   37  F   UNL     1      44.090 -12.264   3.409  1.00  0.00    -0.166 F 
ENDBRANCH  30  34
ENDBRANCH  24  28
ENDBRANCH   2  22
TORSDOF 7
ENDMDL
MODEL 8
REMARK VINA RESULT:      -9.1      3.789      6.992
REMARK  7 active torsions:
REMARK  status: ('A' for Active; 'I' for Inactive)
REMARK    1  A    between atoms: C_4  and  C_5 
REMARK    2  A    between atoms: C_5  and  C_6 
REMARK    3  A    between atoms: C_8  and  C_9 
REMARK    4  A    between atoms: C_9  and  C_10 
REMARK       I    between atoms: C_10  and  N_11 
REMARK    5  A    between atoms: N_11  and  N_12 
REMARK       I    between atoms: N_12  and  C_13 
REMARK       I    between atoms: C_13  and  N_14 
REMARK    6  A    between atoms: N_14  and  C_15 
REMARK    7  A    between atoms: C_17  and  C_18 
ROOT
HETATM    1  C   UNL     1      42.639 -11.304   4.288  1.00  0.00     0.238 C 
HETATM    2  N   UNL     1      41.596 -10.711   3.604  1.00  0.00    -0.266 N 
HETATM    3  O   UNL     1      43.750 -11.453   3.777  1.00  0.00    -0.272 OA
HETATM    4  H   UNL     1      40.802 -10.350   4.121  1.00  0.00     0.190 HD
ENDROOT
BRANCH   1   5
HETATM    5  C   UNL     1      42.319 -11.894   5.654  1.00  0.00     0.139 C 
BRANCH   5   6
HETATM    6  C   UNL     1      41.854 -13.348   5.730  1.00  0.00     0.185 C 
HETATM    7  N   UNL     1      42.572 -14.155   4.749  1.00  0.00    -0.363 N 
HETATM    8  C   UNL     1      41.971 -14.630   3.614  1.00  0.00     0.125 C 
HETATM    9  H   UNL     1      43.530 -14.417   4.962  1.00  0.00     0.161 HD
HETATM   10  N   UNL     1      40.704 -14.468   3.350  1.00  0.00    -0.159 NA
HETATM   11  N   UNL     1      39.912 -13.919   4.326  1.00  0.00    -0.244 N 
HETATM   12  C   UNL     1      40.342 -13.474   5.562  1.00  0.00     0.261 C 
HETATM   13  H   UNL     1      38.905 -13.987   4.193  1.00  0.00     0.192 HD
HETATM   14  O   UNL     1      39.547 -13.113   6.425  1.00  0.00    -0.269 OA
BRANCH   8  15
HETATM   15  C   UNL     1      42.834 -15.351   2.585  1.00  0.00     0.118 C 
BRANCH  15  16
HETATM   16  C   UNL     1      43.271 -16.719   3.048  1.00  0.00    -0.051 A 
HETATM   17  C   UNL     1      43.709 -16.920   4.365  1.00  0.00     0.007 A 
HETATM   18  C   UNL     1      44.084 -18.192   4.802  1.00  0.00     0.001 A 
HETATM   19  C   UNL     1      44.017 -19.275   3.932  1.00  0.00     0.000 A 
HETATM   20  C   UNL     1      43.575 -19.091   2.623  1.00  0.00     0.001 A 
HETATM   21  C   UNL     1      43.203 -17.820   2.182  1.00  0.00     0.007 A 
ENDBRANCH  15  16
ENDBRANCH   8  15
ENDBRANCH   5   6
ENDBRANCH   1   5
BRANCH   2  22
HETATM   22  N   UNL     1      41.919 -10.047   2.406  1.00  0.00    -0.249 N 
HETATM   23  C   UNL     1      41.346 -10.368   1.192  1.00  0.00     0.339 C 
HETATM   24  N   UNL     1      40.096 -10.939   1.278  1.00  0.00    -0.308 N 
HETATM   25  O   UNL     1      41.959 -10.113   0.160  1.00  0.00    -0.245 OA
HETATM   26  H   UNL     1      39.613 -10.810   2.155  1.00  0.00     0.170 HD
HETATM   27  H   UNL     1      42.877  -9.697   2.352  1.00  0.00     0.192 HD
BRANCH  24  28
HETATM   28  C   UNL     1      39.325 -11.468   0.221  1.00  0.00     0.037 A 
HETATM   29  C   UNL     1      39.564 -12.711  -0.373  1.00  0.00     0.045 A 
HETATM   30  C   UNL     1      38.746 -13.185  -1.415  1.00  0.00     0.050 A 
HETATM   31  C   UNL     1      37.677 -12.393  -1.858  1.00  0.00     0.016 A 
HETATM   32  C   UNL     1      37.427 -11.156  -1.267  1.00  0.00     0.003 A 
HETATM   33  C   UNL     1      38.249 -10.697  -0.236  1.00  0.00     0.029 A 
BRANCH  30  34
HETATM   34  C   UNL     1      39.035 -14.508  -2.081  1.00  0.00     0.417 C 
HETATM   35  F   UNL     1      38.044 -14.934  -2.912  1.00  0.00    -0.166 F 
HETATM   36  F   UNL     1      40.165 -14.474  -2.844  1.00  0.00    -0.166 F 
HETATM   37  F   UNL     1      39.229 -15.510  -1.179  1.00  0.00    -0.166 F 
ENDBRANCH  30  34
ENDBRANCH  24  28
ENDBRANCH   2  22
TORSDOF 7
ENDMDL
MODEL 9
REMARK VINA RESULT:      -9.1      5.837      9.868
REMARK  7 active torsions:
REMARK  status: ('A' for Active; 'I' for Inactive)
REMARK    1  A    between atoms: C_4  and  C_5 
REMARK    2  A    between atoms: C_5  and  C_6 
REMARK    3  A    between atoms: C_8  and  C_9 
REMARK    4  A    between atoms: C_9  and  C_10 
REMARK       I    between atoms: C_10  and  N_11 
REMARK    5  A    between atoms: N_11  and  N_12 
REMARK       I    between atoms: N_12  and  C_13 
REMARK       I    between atoms: C_13  and  N_14 
REMARK    6  A    between atoms: N_14  and  C_15 
REMARK    7  A    between atoms: C_17  and  C_18 
ROOT
HETATM    1  C   UNL     1      42.574 -13.218   6.266  1.00  0.00     0.238 C 
HETATM    2  N   UNL     1      42.709 -12.067   7.015  1.00  0.00    -0.266 N 
HETATM    3  O   UNL     1      43.501 -14.017   6.128  1.00  0.00    -0.272 OA
HETATM    4  H   UNL     1      41.880 -11.584   7.343  1.00  0.00     0.190 HD
ENDROOT
BRANCH   1   5
HETATM    5  C   UNL     1      41.271 -13.391   5.499  1.00  0.00     0.139 C 
BRANCH   5   6
HETATM    6  C   UNL     1      41.256 -13.072   4.004  1.00  0.00     0.185 C 
HETATM    7  N   UNL     1      41.317 -14.306   3.229  1.00  0.00    -0.363 N 
HETATM    8  C   UNL     1      42.441 -14.685   2.546  1.00  0.00     0.125 C 
HETATM    9  H   UNL     1      40.467 -14.858   3.151  1.00  0.00     0.161 HD
HETATM   10  N   UNL     1      43.517 -13.951   2.469  1.00  0.00    -0.159 NA
HETATM   11  N   UNL     1      43.462 -12.679   2.979  1.00  0.00    -0.244 N 
HETATM   12  C   UNL     1      42.375 -12.109   3.614  1.00  0.00     0.261 C 
HETATM   13  H   UNL     1      44.225 -12.053   2.733  1.00  0.00     0.192 HD
HETATM   14  O   UNL     1      42.367 -10.922   3.929  1.00  0.00    -0.269 OA
BRANCH   8  15
HETATM   15  C   UNL     1      42.453 -16.053   1.873  1.00  0.00     0.118 C 
BRANCH  15  16
HETATM   16  C   UNL     1      43.057 -17.126   2.743  1.00  0.00    -0.051 A 
HETATM   17  C   UNL     1      43.338 -18.396   2.219  1.00  0.00     0.007 A 
HETATM   18  C   UNL     1      43.926 -19.379   3.016  1.00  0.00     0.001 A 
HETATM   19  C   UNL     1      44.247 -19.102   4.341  1.00  0.00     0.000 A 
HETATM   20  C   UNL     1      43.980 -17.841   4.873  1.00  0.00     0.001 A 
HETATM   21  C   UNL     1      43.390 -16.857   4.079  1.00  0.00     0.007 A 
ENDBRANCH  15  16
ENDBRANCH   8  15
ENDBRANCH   5   6
ENDBRANCH   1   5
BRANCH   2  22
HETATM   22  N   UNL     1      43.853 -11.971   7.830  1.00  0.00    -0.249 N 
HETATM   23  C   UNL     1      44.089 -10.901   8.670  1.00  0.00     0.339 C 
HETATM   24  N   UNL     1      42.957 -10.240   9.093  1.00  0.00    -0.308 N 
HETATM   25  O   UNL     1      45.244 -10.636   8.984  1.00  0.00    -0.245 OA
HETATM   26  H   UNL     1      42.090 -10.747   8.995  1.00  0.00     0.170 HD
HETATM   27  H   UNL     1      44.691 -12.414   7.450  1.00  0.00     0.192 HD
BRANCH  24  28
HETATM   28  C   UNL     1      42.896  -9.055   9.856  1.00  0.00     0.037 A 
HETATM   29  C   UNL     1      42.861  -9.027  11.253  1.00  0.00     0.045 A 
HETATM   30  C   UNL     1      42.814  -7.807  11.953  1.00  0.00     0.050 A 
HETATM   31  C   UNL     1      42.803  -6.606  11.230  1.00  0.00     0.016 A 
HETATM   32  C   UNL     1      42.846  -6.623   9.837  1.00  0.00     0.003 A 
HETATM   33  C   UNL     1      42.889  -7.842   9.156  1.00  0.00     0.029 A 
BRANCH  30  34
HETATM   34  C   UNL     1      42.732  -7.785  13.459  1.00  0.00     0.417 C 
HETATM   35  F   UNL     1      41.603  -7.196  13.940  1.00  0.00    -0.166 F 
HETATM   36  F   UNL     1      42.754  -9.036  14.003  1.00  0.00    -0.166 F 
HETATM   37  F   UNL     1      43.777  -7.118  14.025  1.00  0.00    -0.166 F 
ENDBRANCH  30  34
ENDBRANCH  24  28
ENDBRANCH   2  22
TORSDOF 7
ENDMDL
MODEL 10
REMARK VINA RESULT:      -9.1      4.070      7.196
REMARK  7 active torsions:
REMARK  status: ('A' for Active; 'I' for Inactive)
REMARK    1  A    between atoms: C_4  and  C_5 
REMARK    2  A    between atoms: C_5  and  C_6 
REMARK    3  A    between atoms: C_8  and  C_9 
REMARK    4  A    between atoms: C_9  and  C_10 
REMARK       I    between atoms: C_10  and  N_11 
REMARK    5  A    between atoms: N_11  and  N_12 
REMARK       I    between atoms: N_12  and  C_13 
REMARK       I    between atoms: C_13  and  N_14 
REMARK    6  A    between atoms: N_14  and  C_15 
REMARK    7  A    between atoms: C_17  and  C_18 
ROOT
HETATM    1  C   UNL     1      37.944 -11.296  -0.471  1.00  0.00     0.238 C 
HETATM    2  N   UNL     1      37.626 -11.710   0.806  1.00  0.00    -0.266 N 
HETATM    3  O   UNL     1      38.284 -10.137  -0.714  1.00  0.00    -0.272 OA
HETATM    4  H   UNL     1      37.628 -12.700   1.025  1.00  0.00     0.190 HD
ENDROOT
BRANCH   1   5
HETATM    5  C   UNL     1      37.722 -12.298  -1.595  1.00  0.00     0.139 C 
BRANCH   5   6
HETATM    6  C   UNL     1      38.862 -13.246  -1.963  1.00  0.00     0.185 C 
HETATM    7  N   UNL     1      38.929 -14.344  -1.005  1.00  0.00    -0.363 N 
HETATM    8  C   UNL     1      39.926 -14.439  -0.072  1.00  0.00     0.125 C 
HETATM    9  H   UNL     1      38.242 -15.088  -1.090  1.00  0.00     0.161 HD
HETATM   10  N   UNL     1      40.930 -13.608  -0.006  1.00  0.00    -0.159 NA
HETATM   11  N   UNL     1      41.063 -12.683  -1.009  1.00  0.00    -0.244 N 
HETATM   12  C   UNL     1      40.198 -12.516  -2.075  1.00  0.00     0.261 C 
HETATM   13  H   UNL     1      41.948 -12.185  -1.060  1.00  0.00     0.192 HD
HETATM   14  O   UNL     1      40.460 -11.748  -2.997  1.00  0.00    -0.269 OA
BRANCH   8  15
HETATM   15  C   UNL     1      39.840 -15.549   0.969  1.00  0.00     0.118 C 
BRANCH  15  16
HETATM   16  C   UNL     1      41.186 -15.915   1.543  1.00  0.00    -0.051 A 
HETATM   17  C   UNL     1      42.334 -15.195   1.184  1.00  0.00     0.007 A 
HETATM   18  C   UNL     1      43.575 -15.514   1.738  1.00  0.00     0.001 A 
HETATM   19  C   UNL     1      43.680 -16.549   2.663  1.00  0.00     0.000 A 
HETATM   20  C   UNL     1      42.545 -17.268   3.034  1.00  0.00     0.001 A 
HETATM   21  C   UNL     1      41.303 -16.953   2.479  1.00  0.00     0.007 A 
ENDBRANCH  15  16
ENDBRANCH   8  15
ENDBRANCH   5   6
ENDBRANCH   1   5
BRANCH   2  22
HETATM   22  N   UNL     1      37.959 -10.836   1.858  1.00  0.00    -0.249 N 
HETATM   23  C   UNL     1      38.781 -11.199   2.905  1.00  0.00     0.339 C 
HETATM   24  N   UNL     1      39.681 -12.199   2.611  1.00  0.00    -0.308 N 
HETATM   25  O   UNL     1      38.672 -10.614   3.977  1.00  0.00    -0.245 OA
HETATM   26  H   UNL     1      39.849 -12.364   1.629  1.00  0.00     0.170 HD
HETATM   27  H   UNL     1      37.237 -10.152   2.093  1.00  0.00     0.192 HD
BRANCH  24  28
HETATM   28  C   UNL     1      40.560 -12.847   3.504  1.00  0.00     0.037 A 
HETATM   29  C   UNL     1      40.188 -13.909   4.333  1.00  0.00     0.045 A 
HETATM   30  C   UNL     1      41.120 -14.519   5.192  1.00  0.00     0.050 A 
HETATM   31  C   UNL     1      42.441 -14.049   5.210  1.00  0.00     0.016 A 
HETATM   32  C   UNL     1      42.823 -12.996   4.382  1.00  0.00     0.003 A 
HETATM   33  C   UNL     1      41.886 -12.398   3.537  1.00  0.00     0.029 A 
BRANCH  30  34
HETATM   34  C   UNL     1      40.701 -15.637   6.116  1.00  0.00     0.417 C 
HETATM   35  F   UNL     1      39.739 -15.280   7.009  1.00  0.00    -0.166 F 
HETATM   36  F   UNL     1      40.198 -16.711   5.443  1.00  0.00    -0.166 F 
HETATM   37  F   UNL     1      41.742 -16.117   6.853  1.00  0.00    -0.166 F 
ENDBRANCH  30  34
ENDBRANCH  24  28
ENDBRANCH   2  22
TORSDOF 7
ENDMDL
