MODEL 1
REMARK VINA RESULT:      -9.4      0.000      0.000
REMARK  6 active torsions:
REMARK  status: ('A' for Active; 'I' for Inactive)
REMARK    1  A    between atoms: C_5  and  C_6 
REMARK    2  A    between atoms: C_6  and  S_7 
REMARK    3  A    between atoms: S_7  and  C_8 
REMARK    4  A    between atoms: C_10  and  N_11 
REMARK    5  A    between atoms: C_12  and  N_13 
REMARK       I    between atoms: N_13  and  C_14 
REMARK    6  A    between atoms: C_14  and  C_15 
ROOT
HETATM    1  C   UNL     1      41.505 -13.242   3.336  1.00  0.00     0.171 C 
HETATM    2  N   UNL     1      40.726 -12.761   4.245  1.00  0.00    -0.210 NA
HETATM    3  C   UNL     1      41.310 -12.028   5.255  1.00  0.00     0.136 C 
HETATM    4  C   UNL     1      42.624 -11.692   5.254  1.00  0.00     0.144 C 
HETATM    5  C   UNL     1      43.361 -11.986   3.990  1.00  0.00     0.277 C 
HETATM    6  O   UNL     1      44.267 -11.288   3.549  1.00  0.00    -0.266 OA
HETATM    7  N   UNL     1      42.836 -13.005   3.260  1.00  0.00    -0.300 N 
HETATM    8  H   UNL     1      43.303 -13.234   2.396  1.00  0.00     0.171 HD
ENDROOT
BRANCH   1   9
HETATM    9  S   UNL     1      40.979 -14.256   2.034  1.00  0.00    -0.087 SA
BRANCH   9  10
HETATM   10  C   UNL     1      40.454 -15.744   2.927  1.00  0.00     0.121 C 
BRANCH  10  11
HETATM   11  C   UNL     1      41.654 -16.585   3.318  1.00  0.00    -0.037 A 
HETATM   12  C   UNL     1      42.154 -16.646   4.652  1.00  0.00    -0.019 A 
HETATM   13  C   UNL     1      43.300 -17.443   4.914  1.00  0.00    -0.025 A 
HETATM   14  C   UNL     1      41.584 -15.953   5.747  1.00  0.00     0.013 A 
HETATM   15  C   UNL     1      43.816 -17.533   6.218  1.00  0.00     0.012 A 
HETATM   16  C   UNL     1      43.925 -18.139   3.871  1.00  0.00     0.012 A 
HETATM   17  C   UNL     1      43.224 -16.844   7.275  1.00  0.00     0.001 A 
HETATM   18  C   UNL     1      42.109 -16.052   7.038  1.00  0.00     0.001 A 
HETATM   19  C   UNL     1      43.440 -18.063   2.569  1.00  0.00     0.001 A 
HETATM   20  C   UNL     1      42.316 -17.293   2.296  1.00  0.00     0.009 A 
ENDBRANCH  10  11
ENDBRANCH   9  10
ENDBRANCH   1   9
BRANCH   3  21
HETATM   21  N   UNL     1      40.496 -11.665   6.322  1.00  0.00    -0.285 NA
HETATM   22  H   UNL     1      39.564 -11.488   5.947  1.00  0.00     0.125 HD
HETATM   23  H   UNL     1      40.839 -10.811   6.759  1.00  0.00     0.125 HD
ENDBRANCH   3  21
BRANCH   4  24
HETATM   24  N   UNL     1      43.220 -11.093   6.349  1.00  0.00    -0.314 N 
HETATM   25  C   UNL     1      43.879 -11.737   7.379  1.00  0.00     0.280 C 
HETATM   26  O   UNL     1      43.991 -12.954   7.486  1.00  0.00    -0.265 OA
HETATM   27  H   UNL     1      42.955 -10.131   6.534  1.00  0.00     0.169 HD
BRANCH  25  28
HETATM   28  C   UNL     1      44.371 -10.837   8.404  1.00  0.00     0.144 A 
HETATM   29  O   UNL     1      43.513 -10.356   9.360  1.00  0.00    -0.298 OA
HETATM   30  C   UNL     1      44.250  -9.583  10.204  1.00  0.00     0.122 A 
HETATM   31 BR   UNL     1      43.558  -8.719  11.704  1.00  0.00    -0.023 Br
HETATM   32  C   UNL     1      45.563  -9.539   9.796  1.00  0.00     0.048 A 
HETATM   33  C   UNL     1      45.643 -10.349   8.638  1.00  0.00     0.046 A 
ENDBRANCH  25  28
ENDBRANCH   4  24
TORSDOF 6
ENDMDL
MODEL 2
REMARK VINA RESULT:      -9.1      1.428      2.643
REMARK  6 active torsions:
REMARK  status: ('A' for Active; 'I' for Inactive)
REMARK    1  A    between atoms: C_5  and  C_6 
REMARK    2  A    between atoms: C_6  and  S_7 
REMARK    3  A    between atoms: S_7  and  C_8 
REMARK    4  A    between atoms: C_10  and  N_11 
REMARK    5  A    between atoms: C_12  and  N_13 
REMARK       I    between atoms: N_13  and  C_14 
REMARK    6  A    between atoms: C_14  and  C_15 
ROOT
HETATM    1  C   UNL     1      41.651 -13.849   4.315  1.00  0.00     0.171 C 
HETATM    2  N   UNL     1      40.683 -13.466   5.077  1.00  0.00    -0.210 NA
HETATM    3  C   UNL     1      40.928 -12.412   5.930  1.00  0.00     0.136 C 
HETATM    4  C   UNL     1      42.082 -11.698   5.901  1.00  0.00     0.144 C 
HETATM    5  C   UNL     1      42.988 -11.987   4.752  1.00  0.00     0.277 C 
HETATM    6  O   UNL     1      43.688 -11.143   4.204  1.00  0.00    -0.266 OA
HETATM    7  N   UNL     1      42.856 -13.237   4.235  1.00  0.00    -0.300 N 
HETATM    8  H   UNL     1      43.448 -13.471   3.453  1.00  0.00     0.171 HD
ENDROOT
BRANCH   1   9
HETATM    9  S   UNL     1      41.569 -15.203   3.238  1.00  0.00    -0.087 SA
BRANCH   9  10
HETATM   10  C   UNL     1      43.284 -15.792   3.270  1.00  0.00     0.121 C 
BRANCH  10  11
HETATM   11  C   UNL     1      43.448 -16.909   4.283  1.00  0.00    -0.037 A 
HETATM   12  C   UNL     1      43.593 -18.277   3.909  1.00  0.00    -0.019 A 
HETATM   13  C   UNL     1      43.715 -19.253   4.932  1.00  0.00    -0.025 A 
HETATM   14  C   UNL     1      43.618 -18.736   2.570  1.00  0.00     0.013 A 
HETATM   15  C   UNL     1      43.868 -20.611   4.601  1.00  0.00     0.012 A 
HETATM   16  C   UNL     1      43.677 -18.868   6.279  1.00  0.00     0.012 A 
HETATM   17  C   UNL     1      43.897 -21.027   3.272  1.00  0.00     0.001 A 
HETATM   18  C   UNL     1      43.770 -20.090   2.257  1.00  0.00     0.001 A 
HETATM   19  C   UNL     1      43.520 -17.533   6.637  1.00  0.00     0.001 A 
HETATM   20  C   UNL     1      43.406 -16.563   5.648  1.00  0.00     0.009 A 
ENDBRANCH  10  11
ENDBRANCH   9  10
ENDBRANCH   1   9
BRANCH   3  21
HETATM   21  N   UNL     1      39.948 -12.119   6.870  1.00  0.00    -0.285 NA
HETATM   22  H   UNL     1      39.238 -11.556   6.403  1.00  0.00     0.125 HD
HETATM   23  H   UNL     1      40.339 -11.579   7.639  1.00  0.00     0.125 HD
ENDBRANCH   3  21
BRANCH   4  24
HETATM   24  N   UNL     1      42.370 -10.749   6.866  1.00  0.00    -0.314 N 
HETATM   25  C   UNL     1      43.388 -10.811   7.800  1.00  0.00     0.280 C 
HETATM   26  O   UNL     1      44.162 -11.754   7.929  1.00  0.00    -0.265 OA
HETATM   27  H   UNL     1      41.643 -10.068   7.057  1.00  0.00     0.169 HD
BRANCH  25  28
HETATM   28  C   UNL     1      43.417  -9.676   8.700  1.00  0.00     0.144 A 
HETATM   29  O   UNL     1      43.209  -9.863  10.043  1.00  0.00    -0.298 OA
HETATM   30  C   UNL     1      43.336  -8.646  10.639  1.00  0.00     0.122 A 
HETATM   31 BR   UNL     1      43.179  -8.359  12.476  1.00  0.00    -0.023 Br
HETATM   32  C   UNL     1      43.602  -7.674   9.703  1.00  0.00     0.048 A 
HETATM   33  C   UNL     1      43.656  -8.336   8.453  1.00  0.00     0.046 A 
ENDBRANCH  25  28
ENDBRANCH   4  24
TORSDOF 6
ENDMDL
MODEL 3
REMARK VINA RESULT:      -8.5      2.070      3.013
REMARK  6 active torsions:
REMARK  status: ('A' for Active; 'I' for Inactive)
REMARK    1  A    between atoms: C_5  and  C_6 
REMARK    2  A    between atoms: C_6  and  S_7 
REMARK    3  A    between atoms: S_7  and  C_8 
REMARK    4  A    between atoms: C_10  and  N_11 
REMARK    5  A    between atoms: C_12  and  N_13 
REMARK       I    between atoms: N_13  and  C_14 
REMARK    6  A    between atoms: C_14  and  C_15 
ROOT
HETATM    1  C   UNL     1      43.376 -11.345   5.060  1.00  0.00     0.171 C 
HETATM    2  N   UNL     1      42.536 -10.409   5.348  1.00  0.00    -0.210 NA
HETATM    3  C   UNL     1      42.448 -10.022   6.667  1.00  0.00     0.136 C 
HETATM    4  C   UNL     1      43.287 -10.488   7.627  1.00  0.00     0.144 C 
HETATM    5  C   UNL     1      44.446 -11.287   7.133  1.00  0.00     0.277 C 
HETATM    6  O   UNL     1      45.556 -11.276   7.654  1.00  0.00    -0.266 OA
HETATM    7  N   UNL     1      44.232 -11.909   5.944  1.00  0.00    -0.300 N 
HETATM    8  H   UNL     1      44.992 -12.458   5.573  1.00  0.00     0.171 HD
ENDROOT
BRANCH   1   9
HETATM    9  S   UNL     1      43.575 -12.027   3.480  1.00  0.00    -0.087 SA
BRANCH   9  10
HETATM   10  C   UNL     1      42.154 -13.149   3.392  1.00  0.00     0.121 C 
BRANCH  10  11
HETATM   11  C   UNL     1      42.610 -14.573   3.137  1.00  0.00    -0.037 A 
HETATM   12  C   UNL     1      42.857 -15.506   4.187  1.00  0.00    -0.019 A 
HETATM   13  C   UNL     1      43.307 -16.809   3.848  1.00  0.00    -0.025 A 
HETATM   14  C   UNL     1      42.688 -15.217   5.562  1.00  0.00     0.013 A 
HETATM   15  C   UNL     1      43.553 -17.758   4.856  1.00  0.00     0.012 A 
HETATM   16  C   UNL     1      43.515 -17.154   2.505  1.00  0.00     0.012 A 
HETATM   17  C   UNL     1      43.368 -17.442   6.200  1.00  0.00     0.001 A 
HETATM   18  C   UNL     1      42.937 -16.171   6.552  1.00  0.00     0.001 A 
HETATM   19  C   UNL     1      43.286 -16.234   1.487  1.00  0.00     0.001 A 
HETATM   20  C   UNL     1      42.839 -14.956   1.800  1.00  0.00     0.009 A 
ENDBRANCH  10  11
ENDBRANCH   9  10
ENDBRANCH   1   9
BRANCH   3  21
HETATM   21  N   UNL     1      41.423  -9.145   7.001  1.00  0.00    -0.285 NA
HETATM   22  H   UNL     1      40.853  -9.601   7.714  1.00  0.00     0.125 HD
HETATM   23  H   UNL     1      40.838  -8.954   6.190  1.00  0.00     0.125 HD
ENDBRANCH   3  21
BRANCH   4  24
HETATM   24  N   UNL     1      43.083 -10.208   8.965  1.00  0.00    -0.314 N 
HETATM   25  C   UNL     1      43.673  -9.188   9.690  1.00  0.00     0.280 C 
HETATM   26  O   UNL     1      44.505  -8.404   9.245  1.00  0.00    -0.265 OA
HETATM   27  H   UNL     1      42.651 -10.941   9.517  1.00  0.00     0.169 HD
BRANCH  25  28
HETATM   28  C   UNL     1      43.283  -9.169  11.086  1.00  0.00     0.144 A 
HETATM   29  O   UNL     1      43.422  -8.018  11.818  1.00  0.00    -0.298 OA
HETATM   30  C   UNL     1      42.940  -8.279  13.065  1.00  0.00     0.122 A 
HETATM   31 BR   UNL     1      42.869  -7.024  14.443  1.00  0.00    -0.023 Br
HETATM   32  C   UNL     1      42.514  -9.584  13.155  1.00  0.00     0.048 A 
HETATM   33  C   UNL     1      42.731 -10.158  11.880  1.00  0.00     0.046 A 
ENDBRANCH  25  28
ENDBRANCH   4  24
TORSDOF 6
ENDMDL
MODEL 4
REMARK VINA RESULT:      -8.5      5.712      8.111
REMARK  6 active torsions:
REMARK  status: ('A' for Active; 'I' for Inactive)
REMARK    1  A    between atoms: C_5  and  C_6 
REMARK    2  A    between atoms: C_6  and  S_7 
REMARK    3  A    between atoms: S_7  and  C_8 
REMARK    4  A    between atoms: C_10  and  N_11 
REMARK    5  A    between atoms: C_12  and  N_13 
REMARK       I    between atoms: N_13  and  C_14 
REMARK    6  A    between atoms: C_14  and  C_15 
ROOT
HETATM    1  C   UNL     1      41.686 -13.716   1.470  1.00  0.00     0.171 C 
HETATM    2  N   UNL     1      40.984 -12.855   2.127  1.00  0.00    -0.210 NA
HETATM    3  C   UNL     1      39.843 -12.376   1.522  1.00  0.00     0.136 C 
HETATM    4  C   UNL     1      39.374 -12.865   0.347  1.00  0.00     0.144 C 
HETATM    5  C   UNL     1      40.052 -14.097  -0.152  1.00  0.00     0.277 C 
HETATM    6  O   UNL     1      39.480 -14.992  -0.764  1.00  0.00    -0.266 OA
HETATM    7  N   UNL     1      41.334 -14.242   0.273  1.00  0.00    -0.300 N 
HETATM    8  H   UNL     1      41.828 -15.064  -0.039  1.00  0.00     0.171 HD
ENDROOT
BRANCH   1   9
HETATM    9  S   UNL     1      43.192 -14.373   2.020  1.00  0.00    -0.087 SA
BRANCH   9  10
HETATM   10  C   UNL     1      42.869 -16.153   1.908  1.00  0.00     0.121 C 
BRANCH  10  11
HETATM   11  C   UNL     1      43.287 -16.855   3.186  1.00  0.00    -0.037 A 
HETATM   12  C   UNL     1      43.504 -18.263   3.261  1.00  0.00    -0.019 A 
HETATM   13  C   UNL     1      43.868 -18.830   4.510  1.00  0.00    -0.025 A 
HETATM   14  C   UNL     1      43.373 -19.146   2.162  1.00  0.00     0.013 A 
HETATM   15  C   UNL     1      44.097 -20.212   4.620  1.00  0.00     0.012 A 
HETATM   16  C   UNL     1      43.994 -18.014   5.642  1.00  0.00     0.012 A 
HETATM   17  C   UNL     1      43.969 -21.052   3.515  1.00  0.00     0.001 A 
HETATM   18  C   UNL     1      43.604 -20.518   2.287  1.00  0.00     0.001 A 
HETATM   19  C   UNL     1      43.766 -16.644   5.566  1.00  0.00     0.001 A 
HETATM   20  C   UNL     1      43.416 -16.070   4.349  1.00  0.00     0.009 A 
ENDBRANCH  10  11
ENDBRANCH   9  10
ENDBRANCH   1   9
BRANCH   3  21
HETATM   21  N   UNL     1      39.190 -11.323   2.151  1.00  0.00    -0.285 NA
HETATM   22  H   UNL     1      38.281 -11.669   2.459  1.00  0.00     0.125 HD
HETATM   23  H   UNL     1      39.042 -10.554   1.500  1.00  0.00     0.125 HD
ENDBRANCH   3  21
BRANCH   4  24
HETATM   24  N   UNL     1      38.318 -12.267  -0.317  1.00  0.00    -0.314 N 
HETATM   25  C   UNL     1      38.409 -11.274  -1.275  1.00  0.00     0.280 C 
HETATM   26  O   UNL     1      39.455 -10.749  -1.642  1.00  0.00    -0.265 OA
HETATM   27  H   UNL     1      37.399 -12.397   0.091  1.00  0.00     0.169 HD
BRANCH  25  28
HETATM   28  C   UNL     1      37.121 -10.825  -1.767  1.00  0.00     0.144 A 
HETATM   29  O   UNL     1      36.381  -9.936  -1.030  1.00  0.00    -0.298 OA
HETATM   30  C   UNL     1      35.257  -9.663  -1.748  1.00  0.00     0.122 A 
HETATM   31 BR   UNL     1      33.927  -8.475  -1.200  1.00  0.00    -0.023 Br
HETATM   32  C   UNL     1      35.249 -10.377  -2.924  1.00  0.00     0.048 A 
HETATM   33  C   UNL     1      36.451 -11.124  -2.939  1.00  0.00     0.046 A 
ENDBRANCH  25  28
ENDBRANCH   4  24
TORSDOF 6
ENDMDL
MODEL 5
REMARK VINA RESULT:      -8.4      5.824      8.046
REMARK  6 active torsions:
REMARK  status: ('A' for Active; 'I' for Inactive)
REMARK    1  A    between atoms: C_5  and  C_6 
REMARK    2  A    between atoms: C_6  and  S_7 
REMARK    3  A    between atoms: S_7  and  C_8 
REMARK    4  A    between atoms: C_10  and  N_11 
REMARK    5  A    between atoms: C_12  and  N_13 
REMARK       I    between atoms: N_13  and  C_14 
REMARK    6  A    between atoms: C_14  and  C_15 
ROOT
HETATM    1  C   UNL     1      40.744 -14.347   1.034  1.00  0.00     0.171 C 
HETATM    2  N   UNL     1      41.157 -13.220   1.506  1.00  0.00    -0.210 NA
HETATM    3  C   UNL     1      41.028 -12.111   0.698  1.00  0.00     0.136 C 
HETATM    4  C   UNL     1      40.379 -12.142  -0.493  1.00  0.00     0.144 C 
HETATM    5  C   UNL     1      39.631 -13.399  -0.784  1.00  0.00     0.277 C 
HETATM    6  O   UNL     1      38.574 -13.438  -1.405  1.00  0.00    -0.266 OA
HETATM    7  N   UNL     1      40.121 -14.501  -0.158  1.00  0.00    -0.300 N 
HETATM    8  H   UNL     1      39.640 -15.372  -0.325  1.00  0.00     0.171 HD
ENDROOT
BRANCH   1   9
HETATM    9  S   UNL     1      40.893 -15.864   1.858  1.00  0.00    -0.087 SA
BRANCH   9  10
HETATM   10  C   UNL     1      42.684 -16.140   1.781  1.00  0.00     0.121 C 
BRANCH  10  11
HETATM   11  C   UNL     1      43.186 -16.765   3.069  1.00  0.00    -0.037 A 
HETATM   12  C   UNL     1      43.423 -18.164   3.209  1.00  0.00    -0.019 A 
HETATM   13  C   UNL     1      43.868 -18.657   4.464  1.00  0.00    -0.025 A 
HETATM   14  C   UNL     1      43.236 -19.109   2.171  1.00  0.00     0.013 A 
HETATM   15  C   UNL     1      44.119 -20.029   4.637  1.00  0.00     0.012 A 
HETATM   16  C   UNL     1      44.052 -17.777   5.539  1.00  0.00     0.012 A 
HETATM   17  C   UNL     1      43.934 -20.931   3.591  1.00  0.00     0.001 A 
HETATM   18  C   UNL     1      43.490 -20.470   2.359  1.00  0.00     0.001 A 
HETATM   19  C   UNL     1      43.804 -16.416   5.400  1.00  0.00     0.001 A 
HETATM   20  C   UNL     1      43.375 -15.914   4.176  1.00  0.00     0.009 A 
ENDBRANCH  10  11
ENDBRANCH   9  10
ENDBRANCH   1   9
BRANCH   3  21
HETATM   21  N   UNL     1      41.632 -10.938   1.135  1.00  0.00    -0.285 NA
HETATM   22  H   UNL     1      41.590 -10.937   2.154  1.00  0.00     0.125 HD
HETATM   23  H   UNL     1      41.128 -10.125   0.787  1.00  0.00     0.125 HD
ENDBRANCH   3  21
BRANCH   4  24
HETATM   24  N   UNL     1      40.397 -11.061  -1.356  1.00  0.00    -0.314 N 
HETATM   25  C   UNL     1      40.820 -11.070  -2.673  1.00  0.00     0.280 C 
HETATM   26  O   UNL     1      41.284 -12.045  -3.253  1.00  0.00    -0.265 OA
HETATM   27  H   UNL     1      40.316 -10.145  -0.929  1.00  0.00     0.169 HD
BRANCH  25  28
HETATM   28  C   UNL     1      40.749  -9.770  -3.311  1.00  0.00     0.144 A 
HETATM   29  O   UNL     1      41.690  -8.815  -3.022  1.00  0.00    -0.298 OA
HETATM   30  C   UNL     1      41.403  -7.728  -3.791  1.00  0.00     0.122 A 
HETATM   31 BR   UNL     1      42.411  -6.158  -3.800  1.00  0.00    -0.023 Br
HETATM   32  C   UNL     1      40.282  -7.957  -4.553  1.00  0.00     0.048 A 
HETATM   33  C   UNL     1      39.860  -9.274  -4.247  1.00  0.00     0.046 A 
ENDBRANCH  25  28
ENDBRANCH   4  24
TORSDOF 6
ENDMDL
MODEL 6
REMARK VINA RESULT:      -8.4      2.654      4.249
REMARK  6 active torsions:
REMARK  status: ('A' for Active; 'I' for Inactive)
REMARK    1  A    between atoms: C_5  and  C_6 
REMARK    2  A    between atoms: C_6  and  S_7 
REMARK    3  A    between atoms: S_7  and  C_8 
REMARK    4  A    between atoms: C_10  and  N_11 
REMARK    5  A    between atoms: C_12  and  N_13 
REMARK       I    between atoms: N_13  and  C_14 
REMARK    6  A    between atoms: C_14  and  C_15 
ROOT
HETATM    1  C   UNL     1      42.909 -11.111   6.392  1.00  0.00     0.171 C 
HETATM    2  N   UNL     1      42.490  -9.892   6.351  1.00  0.00    -0.210 NA
HETATM    3  C   UNL     1      42.605  -9.144   7.503  1.00  0.00     0.136 C 
HETATM    4  C   UNL     1      43.248  -9.595   8.609  1.00  0.00     0.144 C 
HETATM    5  C   UNL     1      44.005 -10.868   8.438  1.00  0.00     0.277 C 
HETATM    6  O   UNL     1      45.059 -11.120   9.012  1.00  0.00    -0.266 OA
HETATM    7  N   UNL     1      43.528 -11.677   7.455  1.00  0.00    -0.300 N 
HETATM    8  H   UNL     1      44.015 -12.547   7.304  1.00  0.00     0.171 HD
ENDROOT
BRANCH   1   9
HETATM    9  S   UNL     1      42.777 -12.235   5.080  1.00  0.00    -0.087 SA
BRANCH   9  10
HETATM   10  C   UNL     1      42.062 -13.677   5.913  1.00  0.00     0.121 C 
BRANCH  10  11
HETATM   11  C   UNL     1      42.902 -14.915   5.659  1.00  0.00    -0.037 A 
HETATM   12  C   UNL     1      42.701 -15.770   4.536  1.00  0.00    -0.019 A 
HETATM   13  C   UNL     1      43.523 -16.919   4.400  1.00  0.00    -0.025 A 
HETATM   14  C   UNL     1      41.720 -15.553   3.538  1.00  0.00     0.013 A 
HETATM   15  C   UNL     1      43.358 -17.781   3.301  1.00  0.00     0.012 A 
HETATM   16  C   UNL     1      44.499 -17.203   5.364  1.00  0.00     0.012 A 
HETATM   17  C   UNL     1      42.388 -17.532   2.332  1.00  0.00     0.001 A 
HETATM   18  C   UNL     1      41.569 -16.419   2.452  1.00  0.00     0.001 A 
HETATM   19  C   UNL     1      44.680 -16.373   6.465  1.00  0.00     0.001 A 
HETATM   20  C   UNL     1      43.889 -15.239   6.611  1.00  0.00     0.009 A 
ENDBRANCH  10  11
ENDBRANCH   9  10
ENDBRANCH   1   9
BRANCH   3  21
HETATM   21  N   UNL     1      41.993  -7.897   7.509  1.00  0.00    -0.285 NA
HETATM   22  H   UNL     1      42.113  -7.504   8.442  1.00  0.00     0.125 HD
HETATM   23  H   UNL     1      40.997  -7.986   7.318  1.00  0.00     0.125 HD
ENDBRANCH   3  21
BRANCH   4  24
HETATM   24  N   UNL     1      43.216  -8.894   9.801  1.00  0.00    -0.314 N 
HETATM   25  C   UNL     1      42.242  -8.981  10.779  1.00  0.00     0.280 C 
HETATM   26  O   UNL     1      41.233  -9.674  10.701  1.00  0.00    -0.265 OA
HETATM   27  H   UNL     1      43.826  -8.085   9.862  1.00  0.00     0.169 HD
BRANCH  25  28
HETATM   28  C   UNL     1      42.470  -8.095  11.903  1.00  0.00     0.144 A 
HETATM   29  O   UNL     1      41.774  -6.917  11.997  1.00  0.00    -0.298 OA
HETATM   30  C   UNL     1      42.154  -6.321  13.161  1.00  0.00     0.122 A 
HETATM   31 BR   UNL     1      41.470  -4.700  13.779  1.00  0.00    -0.023 Br
HETATM   32  C   UNL     1      43.100  -7.083  13.808  1.00  0.00     0.048 A 
HETATM   33  C   UNL     1      43.302  -8.228  13.000  1.00  0.00     0.046 A 
ENDBRANCH  25  28
ENDBRANCH   4  24
TORSDOF 6
ENDMDL
MODEL 7
REMARK VINA RESULT:      -8.3      3.140      3.610
REMARK  6 active torsions:
REMARK  status: ('A' for Active; 'I' for Inactive)
REMARK    1  A    between atoms: C_5  and  C_6 
REMARK    2  A    between atoms: C_6  and  S_7 
REMARK    3  A    between atoms: S_7  and  C_8 
REMARK    4  A    between atoms: C_10  and  N_11 
REMARK    5  A    between atoms: C_12  and  N_13 
REMARK       I    between atoms: N_13  and  C_14 
REMARK    6  A    between atoms: C_14  and  C_15 
ROOT
HETATM    1  C   UNL     1      40.951 -13.476   3.575  1.00  0.00     0.171 C 
HETATM    2  N   UNL     1      41.717 -12.447   3.714  1.00  0.00    -0.210 NA
HETATM    3  C   UNL     1      41.519 -11.656   4.825  1.00  0.00     0.136 C 
HETATM    4  C   UNL     1      40.656 -11.988   5.818  1.00  0.00     0.144 C 
HETATM    5  C   UNL     1      40.085 -13.364   5.739  1.00  0.00     0.277 C 
HETATM    6  O   UNL     1      39.825 -14.053   6.719  1.00  0.00    -0.266 OA
HETATM    7  N   UNL     1      40.029 -13.877   4.482  1.00  0.00    -0.300 N 
HETATM    8  H   UNL     1      39.653 -14.807   4.386  1.00  0.00     0.171 HD
ENDROOT
BRANCH   1   9
HETATM    9  S   UNL     1      40.986 -14.543   2.211  1.00  0.00    -0.087 SA
BRANCH   9  10
HETATM   10  C   UNL     1      42.755 -14.925   2.100  1.00  0.00     0.121 C 
BRANCH  10  11
HETATM   11  C   UNL     1      43.057 -16.261   2.752  1.00  0.00    -0.037 A 
HETATM   12  C   UNL     1      43.372 -16.392   4.137  1.00  0.00    -0.019 A 
HETATM   13  C   UNL     1      43.665 -17.683   4.649  1.00  0.00    -0.025 A 
HETATM   14  C   UNL     1      43.419 -15.308   5.047  1.00  0.00     0.013 A 
HETATM   15  C   UNL     1      43.973 -17.852   6.010  1.00  0.00     0.012 A 
HETATM   16  C   UNL     1      43.657 -18.796   3.797  1.00  0.00     0.012 A 
HETATM   17  C   UNL     1      44.001 -16.764   6.880  1.00  0.00     0.001 A 
HETATM   18  C   UNL     1      43.727 -15.493   6.397  1.00  0.00     0.001 A 
HETATM   19  C   UNL     1      43.363 -18.658   2.444  1.00  0.00     0.001 A 
HETATM   20  C   UNL     1      43.067 -17.403   1.927  1.00  0.00     0.009 A 
ENDBRANCH  10  11
ENDBRANCH   9  10
ENDBRANCH   1   9
BRANCH   3  21
HETATM   21  N   UNL     1      42.221 -10.458   4.880  1.00  0.00    -0.285 NA
HETATM   22  H   UNL     1      43.078 -10.583   4.342  1.00  0.00     0.125 HD
HETATM   23  H   UNL     1      42.469 -10.232   5.841  1.00  0.00     0.125 HD
ENDBRANCH   3  21
BRANCH   4  24
HETATM   24  N   UNL     1      40.358 -11.108   6.842  1.00  0.00    -0.314 N 
HETATM   25  C   UNL     1      39.096 -10.687   7.221  1.00  0.00     0.280 C 
HETATM   26  O   UNL     1      38.053 -11.011   6.663  1.00  0.00    -0.265 OA
HETATM   27  H   UNL     1      41.128 -10.548   7.192  1.00  0.00     0.169 HD
BRANCH  25  28
HETATM   28  C   UNL     1      39.108  -9.733   8.314  1.00  0.00     0.144 A 
HETATM   29  O   UNL     1      38.962  -8.395   8.053  1.00  0.00    -0.298 OA
HETATM   30  C   UNL     1      38.966  -7.753   9.254  1.00  0.00     0.122 A 
HETATM   31 BR   UNL     1      38.760  -5.911   9.456  1.00  0.00    -0.023 Br
HETATM   32  C   UNL     1      39.135  -8.652  10.282  1.00  0.00     0.048 A 
HETATM   33  C   UNL     1      39.224  -9.929   9.677  1.00  0.00     0.046 A 
ENDBRANCH  25  28
ENDBRANCH   4  24
TORSDOF 6
ENDMDL
MODEL 8
REMARK VINA RESULT:      -8.1      4.943      8.355
REMARK  6 active torsions:
REMARK  status: ('A' for Active; 'I' for Inactive)
REMARK    1  A    between atoms: C_5  and  C_6 
REMARK    2  A    between atoms: C_6  and  S_7 
REMARK    3  A    between atoms: S_7  and  C_8 
REMARK    4  A    between atoms: C_10  and  N_11 
REMARK    5  A    between atoms: C_12  and  N_13 
REMARK       I    between atoms: N_13  and  C_14 
REMARK    6  A    between atoms: C_14  and  C_15 
ROOT
HETATM    1  C   UNL     1      40.439 -12.367   2.442  1.00  0.00     0.171 C 
HETATM    2  N   UNL     1      39.608 -13.354   2.425  1.00  0.00    -0.210 NA
HETATM    3  C   UNL     1      40.116 -14.612   2.666  1.00  0.00     0.136 C 
HETATM    4  C   UNL     1      41.403 -14.825   3.040  1.00  0.00     0.144 C 
HETATM    5  C   UNL     1      42.185 -13.601   3.378  1.00  0.00     0.277 C 
HETATM    6  O   UNL     1      43.047 -13.558   4.249  1.00  0.00    -0.266 OA
HETATM    7  N   UNL     1      41.750 -12.470   2.761  1.00  0.00    -0.300 N 
HETATM    8  H   UNL     1      42.250 -11.619   2.966  1.00  0.00     0.171 HD
ENDROOT
BRANCH   1   9
HETATM    9  S   UNL     1      40.013 -10.726   2.083  1.00  0.00    -0.087 SA
BRANCH   9  10
HETATM   10  C   UNL     1      40.433 -10.624   0.322  1.00  0.00     0.121 C 
BRANCH  10  11
HETATM   11  C   UNL     1      39.221 -10.930  -0.537  1.00  0.00    -0.037 A 
HETATM   12  C   UNL     1      39.074 -12.150  -1.261  1.00  0.00    -0.019 A 
HETATM   13  C   UNL     1      37.914 -12.333  -2.059  1.00  0.00    -0.025 A 
HETATM   14  C   UNL     1      40.021 -13.202  -1.245  1.00  0.00     0.013 A 
HETATM   15  C   UNL     1      37.732 -13.525  -2.780  1.00  0.00     0.012 A 
HETATM   16  C   UNL     1      36.948 -11.321  -2.135  1.00  0.00     0.012 A 
HETATM   17  C   UNL     1      38.680 -14.545  -2.734  1.00  0.00     0.001 A 
HETATM   18  C   UNL     1      39.826 -14.382  -1.968  1.00  0.00     0.001 A 
HETATM   19  C   UNL     1      37.104 -10.128  -1.438  1.00  0.00     0.001 A 
HETATM   20  C   UNL     1      38.231  -9.934  -0.646  1.00  0.00     0.009 A 
ENDBRANCH  10  11
ENDBRANCH   9  10
ENDBRANCH   1   9
BRANCH   3  21
HETATM   21  N   UNL     1      39.257 -15.687   2.472  1.00  0.00    -0.285 NA
HETATM   22  H   UNL     1      38.381 -15.314   2.108  1.00  0.00     0.125 HD
HETATM   23  H   UNL     1      39.069 -16.159   3.355  1.00  0.00     0.125 HD
ENDBRANCH   3  21
BRANCH   4  24
HETATM   24  N   UNL     1      41.931 -16.101   3.123  1.00  0.00    -0.314 N 
HETATM   25  C   UNL     1      42.969 -16.611   2.364  1.00  0.00     0.280 C 
HETATM   26  O   UNL     1      43.545 -16.003   1.468  1.00  0.00    -0.265 OA
HETATM   27  H   UNL     1      41.368 -16.789   3.611  1.00  0.00     0.169 HD
BRANCH  25  28
HETATM   28  C   UNL     1      43.277 -17.996   2.662  1.00  0.00     0.144 A 
HETATM   29  O   UNL     1      43.611 -18.361   3.941  1.00  0.00    -0.298 OA
HETATM   30  C   UNL     1      43.801 -19.710   3.933  1.00  0.00     0.122 A 
HETATM   31 BR   UNL     1      44.240 -20.713   5.442  1.00  0.00    -0.023 Br
HETATM   32  C   UNL     1      43.617 -20.216   2.667  1.00  0.00     0.048 A 
HETATM   33  C   UNL     1      43.277 -19.113   1.848  1.00  0.00     0.046 A 
ENDBRANCH  25  28
ENDBRANCH   4  24
TORSDOF 6
ENDMDL
MODEL 9
REMARK VINA RESULT:      -8.0      3.637      7.914
REMARK  6 active torsions:
REMARK  status: ('A' for Active; 'I' for Inactive)
REMARK    1  A    between atoms: C_5  and  C_6 
REMARK    2  A    between atoms: C_6  and  S_7 
REMARK    3  A    between atoms: S_7  and  C_8 
REMARK    4  A    between atoms: C_10  and  N_11 
REMARK    5  A    between atoms: C_12  and  N_13 
REMARK       I    between atoms: N_13  and  C_14 
REMARK    6  A    between atoms: C_14  and  C_15 
ROOT
HETATM    1  C   UNL     1      40.563 -11.806   6.145  1.00  0.00     0.171 C 
HETATM    2  N   UNL     1      39.939 -12.913   6.368  1.00  0.00    -0.210 NA
HETATM    3  C   UNL     1      40.578 -14.081   6.015  1.00  0.00     0.136 C 
HETATM    4  C   UNL     1      41.861 -14.113   5.575  1.00  0.00     0.144 C 
HETATM    5  C   UNL     1      42.611 -12.829   5.691  1.00  0.00     0.277 C 
HETATM    6  O   UNL     1      43.809 -12.757   5.939  1.00  0.00    -0.266 OA
HETATM    7  N   UNL     1      41.828 -11.718   5.670  1.00  0.00    -0.300 N 
HETATM    8  H   UNL     1      42.296 -10.829   5.750  1.00  0.00     0.171 HD
ENDROOT
BRANCH   1   9
HETATM    9  S   UNL     1      39.899 -10.233   6.439  1.00  0.00    -0.087 SA
BRANCH   9  10
HETATM   10  C   UNL     1      41.383  -9.296   6.893  1.00  0.00     0.121 C 
BRANCH  10  11
HETATM   11  C   UNL     1      41.596  -9.324   8.395  1.00  0.00    -0.037 A 
HETATM   12  C   UNL     1      42.872  -9.545   8.991  1.00  0.00    -0.019 A 
HETATM   13  C   UNL     1      42.965  -9.579  10.408  1.00  0.00    -0.025 A 
HETATM   14  C   UNL     1      44.068  -9.742   8.259  1.00  0.00     0.013 A 
HETATM   15  C   UNL     1      44.208  -9.787  11.031  1.00  0.00     0.012 A 
HETATM   16  C   UNL     1      41.815  -9.412  11.191  1.00  0.00     0.012 A 
HETATM   17  C   UNL     1      45.367  -9.968  10.279  1.00  0.00     0.001 A 
HETATM   18  C   UNL     1      45.296  -9.948   8.894  1.00  0.00     0.001 A 
HETATM   19  C   UNL     1      40.571  -9.211  10.602  1.00  0.00     0.001 A 
HETATM   20  C   UNL     1      40.463  -9.168   9.217  1.00  0.00     0.009 A 
ENDBRANCH  10  11
ENDBRANCH   9  10
ENDBRANCH   1   9
BRANCH   3  21
HETATM   21  N   UNL     1      39.836 -15.254   6.091  1.00  0.00    -0.285 NA
HETATM   22  H   UNL     1      39.998 -15.657   7.014  1.00  0.00     0.125 HD
HETATM   23  H   UNL     1      40.145 -15.920   5.385  1.00  0.00     0.125 HD
ENDBRANCH   3  21
BRANCH   4  24
HETATM   24  N   UNL     1      42.428 -15.273   5.080  1.00  0.00    -0.314 N 
HETATM   25  C   UNL     1      42.168 -15.856   3.853  1.00  0.00     0.280 C 
HETATM   26  O   UNL     1      41.351 -15.438   3.039  1.00  0.00    -0.265 OA
HETATM   27  H   UNL     1      42.894 -15.868   5.756  1.00  0.00     0.169 HD
BRANCH  25  28
HETATM   28  C   UNL     1      42.897 -17.089   3.632  1.00  0.00     0.144 A 
HETATM   29  O   UNL     1      43.131 -17.941   4.680  1.00  0.00    -0.298 OA
HETATM   30  C   UNL     1      43.787 -19.022   4.175  1.00  0.00     0.122 A 
HETATM   31 BR   UNL     1      44.309 -20.498   5.190  1.00  0.00    -0.023 Br
HETATM   32  C   UNL     1      44.000 -18.872   2.824  1.00  0.00     0.048 A 
HETATM   33  C   UNL     1      43.424 -17.627   2.472  1.00  0.00     0.046 A 
ENDBRANCH  25  28
ENDBRANCH   4  24
TORSDOF 6
ENDMDL
MODEL 10
REMARK VINA RESULT:      -7.9      3.794      8.119
REMARK  6 active torsions:
REMARK  status: ('A' for Active; 'I' for Inactive)
REMARK    1  A    between atoms: C_5  and  C_6 
REMARK    2  A    between atoms: C_6  and  S_7 
REMARK    3  A    between atoms: S_7  and  C_8 
REMARK    4  A    between atoms: C_10  and  N_11 
REMARK    5  A    between atoms: C_12  and  N_13 
REMARK       I    between atoms: N_13  and  C_14 
REMARK    6  A    between atoms: C_14  and  C_15 
ROOT
HETATM    1  C   UNL     1      41.747 -10.419   5.984  1.00  0.00     0.171 C 
HETATM    2  N   UNL     1      42.433 -10.556   4.901  1.00  0.00    -0.210 NA
HETATM    3  C   UNL     1      42.640 -11.839   4.441  1.00  0.00     0.136 C 
HETATM    4  C   UNL     1      42.050 -12.924   5.004  1.00  0.00     0.144 C 
HETATM    5  C   UNL     1      40.999 -12.629   6.021  1.00  0.00     0.277 C 
HETATM    6  O   UNL     1      39.995 -13.312   6.184  1.00  0.00    -0.266 OA
HETATM    7  N   UNL     1      41.149 -11.434   6.651  1.00  0.00    -0.300 N 
HETATM    8  H   UNL     1      40.456 -11.194   7.343  1.00  0.00     0.171 HD
ENDROOT
BRANCH   1   9
HETATM    9  S   UNL     1      41.449  -8.901   6.766  1.00  0.00    -0.087 SA
BRANCH   9  10
HETATM   10  C   UNL     1      40.781  -9.445   8.362  1.00  0.00     0.121 C 
BRANCH  10  11
HETATM   11  C   UNL     1      41.823  -9.305   9.455  1.00  0.00    -0.037 A 
HETATM   12  C   UNL     1      41.507  -9.400  10.842  1.00  0.00    -0.019 A 
HETATM   13  C   UNL     1      42.549  -9.229  11.791  1.00  0.00    -0.025 A 
HETATM   14  C   UNL     1      40.207  -9.651  11.345  1.00  0.00     0.013 A 
HETATM   15  C   UNL     1      42.276  -9.324  13.167  1.00  0.00     0.012 A 
HETATM   16  C   UNL     1      43.854  -8.957  11.360  1.00  0.00     0.012 A 
HETATM   17  C   UNL     1      40.986  -9.582  13.627  1.00  0.00     0.001 A 
HETATM   18  C   UNL     1      39.952  -9.743  12.716  1.00  0.00     0.001 A 
HETATM   19  C   UNL     1      44.153  -8.851  10.006  1.00  0.00     0.001 A 
HETATM   20  C   UNL     1      43.146  -9.022   9.062  1.00  0.00     0.009 A 
ENDBRANCH  10  11
ENDBRANCH   9  10
ENDBRANCH   1   9
BRANCH   3  21
HETATM   21  N   UNL     1      43.523 -11.995   3.380  1.00  0.00    -0.285 NA
HETATM   22  H   UNL     1      43.349 -12.913   2.972  1.00  0.00     0.125 HD
HETATM   23  H   UNL     1      44.487 -11.962   3.709  1.00  0.00     0.125 HD
ENDBRANCH   3  21
BRANCH   4  24
HETATM   24  N   UNL     1      42.392 -14.210   4.628  1.00  0.00    -0.314 N 
HETATM   25  C   UNL     1      43.190 -15.088   5.339  1.00  0.00     0.280 C 
HETATM   26  O   UNL     1      43.747 -14.826   6.400  1.00  0.00    -0.265 OA
HETATM   27  H   UNL     1      42.242 -14.448   3.653  1.00  0.00     0.169 HD
BRANCH  25  28
HETATM   28  C   UNL     1      43.393 -16.358   4.669  1.00  0.00     0.144 A 
HETATM   29  O   UNL     1      43.737 -17.467   5.397  1.00  0.00    -0.298 OA
HETATM   30  C   UNL     1      43.816 -18.509   4.524  1.00  0.00     0.122 A 
HETATM   31 BR   UNL     1      44.220 -20.261   5.018  1.00  0.00    -0.023 Br
HETATM   32  C   UNL     1      43.550 -18.086   3.242  1.00  0.00     0.048 A 
HETATM   33  C   UNL     1      43.274 -16.700   3.334  1.00  0.00     0.046 A 
ENDBRANCH  25  28
ENDBRANCH   4  24
TORSDOF 6
ENDMDL
