MODEL 1
REMARK VINA RESULT:      -9.4      0.000      0.000
REMARK  6 active torsions:
REMARK  status: ('A' for Active; 'I' for Inactive)
REMARK    1  A    between atoms: C_9  and  N_10 
REMARK       I    between atoms: N_10  and  C_11 
REMARK    2  A    between atoms: C_11  and  C_12 
REMARK    3  A    between atoms: C_12  and  N_13 
REMARK    4  A    between atoms: C_12  and  C_21 
REMARK       I    between atoms: N_13  and  C_14 
REMARK    5  A    between atoms: C_14  and  C_15 
REMARK    6  A    between atoms: C_21  and  C_22 
ROOT
HETATM    1  C   UNL     1      42.084 -15.827   3.146  1.00  0.00     0.181 C 
ENDROOT
BRANCH   1   2
HETATM    2  C   UNL     1      41.938 -14.850   4.338  1.00  0.00     0.245 C 
HETATM    3  N   UNL     1      42.794 -13.767   4.294  1.00  0.00    -0.325 N 
HETATM    4  H   UNL     1      43.340 -13.666   3.436  1.00  0.00     0.169 HD
HETATM    5  O   UNL     1      41.090 -15.067   5.202  1.00  0.00    -0.271 OA
BRANCH   3   6
HETATM    6  C   UNL     1      42.953 -12.742   5.249  1.00  0.00     0.037 A 
HETATM    7  C   UNL     1      43.905 -12.775   6.275  1.00  0.00     0.063 A 
HETATM    8  C   UNL     1      43.980 -11.694   7.170  1.00  0.00     0.087 A 
HETATM    9  N   UNL     1      44.810 -11.501   8.249  1.00  0.00    -0.234 NA
HETATM   10  C   UNL     1      43.119 -10.616   7.013  1.00  0.00     0.062 A 
HETATM   11  C   UNL     1      44.474 -10.333   8.754  1.00  0.00     0.101 A 
HETATM   12  C   UNL     1      45.072  -9.672   9.938  1.00  0.00     0.091 C 
HETATM   13  N   UNL     1      43.459  -9.760   8.030  1.00  0.00    -0.343 N 
HETATM   14  H   UNL     1      43.033  -8.865   8.217  1.00  0.00     0.167 HD
HETATM   15  C   UNL     1      42.163 -10.542   6.003  1.00  0.00     0.034 A 
HETATM   16  C   UNL     1      42.099 -11.634   5.126  1.00  0.00     0.032 A 
ENDBRANCH   3   6
ENDBRANCH   1   2
BRANCH   1  17
HETATM   17  N   UNL     1      41.658 -15.159   1.909  1.00  0.00    -0.343 N 
HETATM   18  C   UNL     1      40.377 -15.186   1.404  1.00  0.00     0.259 C 
HETATM   19  O   UNL     1      39.488 -15.814   1.980  1.00  0.00    -0.267 OA
HETATM   20  H   UNL     1      42.375 -14.730   1.337  1.00  0.00     0.163 HD
BRANCH  18  21
HETATM   21  C   UNL     1      40.158 -14.459   0.162  1.00  0.00     0.072 A 
HETATM   22  S   UNL     1      40.654 -12.830  -0.050  1.00  0.00    -0.097 SA
HETATM   23  C   UNL     1      40.050 -12.778  -1.648  1.00  0.00     0.050 A 
HETATM   24  C   UNL     1      39.481 -13.973  -2.023  1.00  0.00     0.009 A 
HETATM   25  C   UNL     1      39.543 -14.941  -0.980  1.00  0.00     0.025 A 
ENDBRANCH  18  21
ENDBRANCH   1  17
BRANCH   1  26
HETATM   26  C   UNL     1      43.477 -16.482   3.040  1.00  0.00     0.073 C 
BRANCH  26  27
HETATM   27  C   UNL     1      43.572 -17.986   3.214  1.00  0.00    -0.056 A 
HETATM   28  C   UNL     1      44.088 -18.612   4.355  1.00  0.00     0.007 A 
HETATM   29  C   UNL     1      44.179 -20.006   4.423  1.00  0.00     0.001 A 
HETATM   30  C   UNL     1      43.767 -20.793   3.351  1.00  0.00     0.000 A 
HETATM   31  C   UNL     1      43.264 -20.187   2.205  1.00  0.00     0.001 A 
HETATM   32  C   UNL     1      43.171 -18.796   2.136  1.00  0.00     0.007 A 
ENDBRANCH  26  27
ENDBRANCH   1  26
TORSDOF 6
ENDMDL
MODEL 2
REMARK VINA RESULT:      -9.1      1.492      2.052
REMARK  6 active torsions:
REMARK  status: ('A' for Active; 'I' for Inactive)
REMARK    1  A    between atoms: C_9  and  N_10 
REMARK       I    between atoms: N_10  and  C_11 
REMARK    2  A    between atoms: C_11  and  C_12 
REMARK    3  A    between atoms: C_12  and  N_13 
REMARK    4  A    between atoms: C_12  and  C_21 
REMARK       I    between atoms: N_13  and  C_14 
REMARK    5  A    between atoms: C_14  and  C_15 
REMARK    6  A    between atoms: C_21  and  C_22 
ROOT
HETATM    1  C   UNL     1      42.761 -15.938   5.011  1.00  0.00     0.181 C 
ENDROOT
BRANCH   1   2
HETATM    2  C   UNL     1      42.864 -14.796   6.051  1.00  0.00     0.245 C 
HETATM    3  N   UNL     1      43.333 -13.601   5.539  1.00  0.00    -0.325 N 
HETATM    4  H   UNL     1      43.447 -13.566   4.524  1.00  0.00     0.169 HD
HETATM    5  O   UNL     1      42.515 -14.997   7.213  1.00  0.00    -0.271 OA
BRANCH   3   6
HETATM    6  C   UNL     1      43.600 -12.401   6.229  1.00  0.00     0.037 A 
HETATM    7  C   UNL     1      42.659 -11.382   6.413  1.00  0.00     0.063 A 
HETATM    8  C   UNL     1      43.033 -10.228   7.124  1.00  0.00     0.087 A 
HETATM    9  N   UNL     1      42.303  -9.102   7.422  1.00  0.00    -0.234 NA
HETATM   10  C   UNL     1      44.320 -10.129   7.637  1.00  0.00     0.062 A 
HETATM   11  C   UNL     1      43.113  -8.319   8.102  1.00  0.00     0.101 A 
HETATM   12  C   UNL     1      42.802  -6.978   8.648  1.00  0.00     0.091 C 
HETATM   13  N   UNL     1      44.343  -8.908   8.260  1.00  0.00    -0.343 N 
HETATM   14  H   UNL     1      45.130  -8.507   8.748  1.00  0.00     0.167 HD
HETATM   15  C   UNL     1      45.283 -11.123   7.481  1.00  0.00     0.034 A 
HETATM   16  C   UNL     1      44.892 -12.261   6.762  1.00  0.00     0.032 A 
ENDBRANCH   3   6
ENDBRANCH   1   2
BRANCH   1  17
HETATM   17  N   UNL     1      42.290 -15.393   3.730  1.00  0.00    -0.343 N 
HETATM   18  C   UNL     1      41.032 -15.594   3.207  1.00  0.00     0.259 C 
HETATM   19  O   UNL     1      40.206 -16.284   3.805  1.00  0.00    -0.267 OA
HETATM   20  H   UNL     1      42.967 -14.919   3.145  1.00  0.00     0.163 HD
BRANCH  18  21
HETATM   21  C   UNL     1      40.761 -14.968   1.921  1.00  0.00     0.072 A 
HETATM   22  S   UNL     1      41.399 -13.434   1.493  1.00  0.00    -0.097 SA
HETATM   23  C   UNL     1      40.639 -13.465  -0.038  1.00  0.00     0.050 A 
HETATM   24  C   UNL     1      39.912 -14.617  -0.229  1.00  0.00     0.009 A 
HETATM   25  C   UNL     1      39.982 -15.483   0.900  1.00  0.00     0.025 A 
ENDBRANCH  18  21
ENDBRANCH   1  17
BRANCH   1  26
HETATM   26  C   UNL     1      44.043 -16.786   4.882  1.00  0.00     0.073 C 
BRANCH  26  27
HETATM   27  C   UNL     1      43.909 -18.201   4.353  1.00  0.00    -0.056 A 
HETATM   28  C   UNL     1      44.067 -19.350   5.137  1.00  0.00     0.007 A 
HETATM   29  C   UNL     1      43.969 -20.623   4.566  1.00  0.00     0.001 A 
HETATM   30  C   UNL     1      43.721 -20.767   3.204  1.00  0.00     0.000 A 
HETATM   31  C   UNL     1      43.574 -19.637   2.407  1.00  0.00     0.001 A 
HETATM   32  C   UNL     1      43.671 -18.366   2.975  1.00  0.00     0.007 A 
ENDBRANCH  26  27
ENDBRANCH   1  26
TORSDOF 6
ENDMDL
MODEL 3
REMARK VINA RESULT:      -8.6      1.962      5.274
REMARK  6 active torsions:
REMARK  status: ('A' for Active; 'I' for Inactive)
REMARK    1  A    between atoms: C_9  and  N_10 
REMARK       I    between atoms: N_10  and  C_11 
REMARK    2  A    between atoms: C_11  and  C_12 
REMARK    3  A    between atoms: C_12  and  N_13 
REMARK    4  A    between atoms: C_12  and  C_21 
REMARK       I    between atoms: N_13  and  C_14 
REMARK    5  A    between atoms: C_14  and  C_15 
REMARK    6  A    between atoms: C_21  and  C_22 
ROOT
HETATM    1  C   UNL     1      41.582 -15.351   3.165  1.00  0.00     0.181 C 
ENDROOT
BRANCH   1   2
HETATM    2  C   UNL     1      41.582 -14.440   4.416  1.00  0.00     0.245 C 
HETATM    3  N   UNL     1      42.462 -13.377   4.346  1.00  0.00    -0.325 N 
HETATM    4  H   UNL     1      42.925 -13.242   3.446  1.00  0.00     0.169 HD
HETATM    5  O   UNL     1      40.816 -14.685   5.348  1.00  0.00    -0.271 OA
BRANCH   3   6
HETATM    6  C   UNL     1      42.745 -12.413   5.335  1.00  0.00     0.037 A 
HETATM    7  C   UNL     1      43.738 -12.566   6.309  1.00  0.00     0.063 A 
HETATM    8  C   UNL     1      43.938 -11.536   7.245  1.00  0.00     0.087 A 
HETATM    9  N   UNL     1      44.831 -11.456   8.289  1.00  0.00    -0.234 NA
HETATM   10  C   UNL     1      43.157 -10.389   7.177  1.00  0.00     0.062 A 
HETATM   11  C   UNL     1      44.610 -10.290   8.859  1.00  0.00     0.101 A 
HETATM   12  C   UNL     1      45.312  -9.732  10.038  1.00  0.00     0.091 C 
HETATM   13  N   UNL     1      43.610  -9.609   8.211  1.00  0.00    -0.343 N 
HETATM   14  H   UNL     1      43.264  -8.694   8.457  1.00  0.00     0.167 HD
HETATM   15  C   UNL     1      42.164 -10.197   6.220  1.00  0.00     0.034 A 
HETATM   16  C   UNL     1      41.975 -11.239   5.302  1.00  0.00     0.032 A 
ENDBRANCH   3   6
ENDBRANCH   1   2
BRANCH   1  17
HETATM   17  N   UNL     1      42.128 -16.669   3.519  1.00  0.00    -0.343 N 
HETATM   18  C   UNL     1      43.088 -17.341   2.795  1.00  0.00     0.259 C 
HETATM   19  O   UNL     1      43.546 -16.857   1.759  1.00  0.00    -0.267 OA
HETATM   20  H   UNL     1      41.699 -17.161   4.293  1.00  0.00     0.163 HD
BRANCH  18  21
HETATM   21  C   UNL     1      43.496 -18.638   3.313  1.00  0.00     0.072 A 
HETATM   22  S   UNL     1      44.099 -18.843   4.906  1.00  0.00    -0.097 SA
HETATM   23  C   UNL     1      44.319 -20.523   4.684  1.00  0.00     0.050 A 
HETATM   24  C   UNL     1      43.942 -20.931   3.425  1.00  0.00     0.009 A 
HETATM   25  C   UNL     1      43.468 -19.844   2.635  1.00  0.00     0.025 A 
ENDBRANCH  18  21
ENDBRANCH   1  17
BRANCH   1  26
HETATM   26  C   UNL     1      40.220 -15.426   2.444  1.00  0.00     0.073 C 
BRANCH  26  27
HETATM   27  C   UNL     1      39.967 -14.464   1.299  1.00  0.00    -0.056 A 
HETATM   28  C   UNL     1      39.724 -13.095   1.466  1.00  0.00     0.007 A 
HETATM   29  C   UNL     1      39.459 -12.278   0.361  1.00  0.00     0.001 A 
HETATM   30  C   UNL     1      39.423 -12.817  -0.921  1.00  0.00     0.000 A 
HETATM   31  C   UNL     1      39.649 -14.177  -1.104  1.00  0.00     0.001 A 
HETATM   32  C   UNL     1      39.915 -14.993  -0.003  1.00  0.00     0.007 A 
ENDBRANCH  26  27
ENDBRANCH   1  26
TORSDOF 6
ENDMDL
MODEL 4
REMARK VINA RESULT:      -8.4      2.601      7.606
REMARK  6 active torsions:
REMARK  status: ('A' for Active; 'I' for Inactive)
REMARK    1  A    between atoms: C_9  and  N_10 
REMARK       I    between atoms: N_10  and  C_11 
REMARK    2  A    between atoms: C_11  and  C_12 
REMARK    3  A    between atoms: C_12  and  N_13 
REMARK    4  A    between atoms: C_12  and  C_21 
REMARK       I    between atoms: N_13  and  C_14 
REMARK    5  A    between atoms: C_14  and  C_15 
REMARK    6  A    between atoms: C_21  and  C_22 
ROOT
HETATM    1  C   UNL     1      43.429 -14.153   6.337  1.00  0.00     0.181 C 
ENDROOT
BRANCH   1   2
HETATM    2  C   UNL     1      42.307 -13.959   5.289  1.00  0.00     0.245 C 
HETATM    3  N   UNL     1      42.520 -14.625   4.097  1.00  0.00    -0.325 N 
HETATM    4  H   UNL     1      43.322 -15.258   4.078  1.00  0.00     0.169 HD
HETATM    5  O   UNL     1      41.323 -13.277   5.569  1.00  0.00    -0.271 OA
BRANCH   3   6
HETATM    6  C   UNL     1      41.729 -14.601   2.931  1.00  0.00     0.037 A 
HETATM    7  C   UNL     1      41.806 -13.597   1.958  1.00  0.00     0.063 A 
HETATM    8  C   UNL     1      40.971 -13.677   0.830  1.00  0.00     0.087 A 
HETATM    9  N   UNL     1      40.855 -12.821  -0.241  1.00  0.00    -0.234 NA
HETATM   10  C   UNL     1      40.098 -14.749   0.699  1.00  0.00     0.062 A 
HETATM   11  C   UNL     1      39.932 -13.346  -1.019  1.00  0.00     0.101 A 
HETATM   12  C   UNL     1      39.436 -12.796  -2.302  1.00  0.00     0.091 C 
HETATM   13  N   UNL     1      39.454 -14.519  -0.490  1.00  0.00    -0.343 N 
HETATM   14  H   UNL     1      38.746 -15.106  -0.903  1.00  0.00     0.167 HD
HETATM   15  C   UNL     1      39.996 -15.770   1.641  1.00  0.00     0.034 A 
HETATM   16  C   UNL     1      40.831 -15.668   2.762  1.00  0.00     0.032 A 
ENDBRANCH   3   6
ENDBRANCH   1   2
BRANCH   1  17
HETATM   17  N   UNL     1      43.510 -12.962   7.194  1.00  0.00    -0.343 N 
HETATM   18  C   UNL     1      44.466 -11.977   7.082  1.00  0.00     0.259 C 
HETATM   19  O   UNL     1      45.351 -12.056   6.230  1.00  0.00    -0.267 OA
HETATM   20  H   UNL     1      42.879 -12.910   7.985  1.00  0.00     0.163 HD
BRANCH  18  21
HETATM   21  C   UNL     1      44.373 -10.877   8.030  1.00  0.00     0.072 A 
HETATM   22  S   UNL     1      42.991  -9.866   8.132  1.00  0.00    -0.097 SA
HETATM   23  C   UNL     1      43.681  -8.928   9.383  1.00  0.00     0.050 A 
HETATM   24  C   UNL     1      44.939  -9.368   9.725  1.00  0.00     0.009 A 
HETATM   25  C   UNL     1      45.337 -10.491   8.944  1.00  0.00     0.025 A 
ENDBRANCH  18  21
ENDBRANCH   1  17
BRANCH   1  26
HETATM   26  C   UNL     1      43.325 -15.472   7.130  1.00  0.00     0.073 C 
BRANCH  26  27
HETATM   27  C   UNL     1      43.651 -16.765   6.406  1.00  0.00    -0.056 A 
HETATM   28  C   UNL     1      44.315 -16.828   5.175  1.00  0.00     0.007 A 
HETATM   29  C   UNL     1      44.543 -18.058   4.550  1.00  0.00     0.001 A 
HETATM   30  C   UNL     1      44.103 -19.240   5.139  1.00  0.00     0.000 A 
HETATM   31  C   UNL     1      43.431 -19.195   6.355  1.00  0.00     0.001 A 
HETATM   32  C   UNL     1      43.203 -17.969   6.981  1.00  0.00     0.007 A 
ENDBRANCH  26  27
ENDBRANCH   1  26
TORSDOF 6
ENDMDL
MODEL 5
REMARK VINA RESULT:      -8.4      2.652      7.479
REMARK  6 active torsions:
REMARK  status: ('A' for Active; 'I' for Inactive)
REMARK    1  A    between atoms: C_9  and  N_10 
REMARK       I    between atoms: N_10  and  C_11 
REMARK    2  A    between atoms: C_11  and  C_12 
REMARK    3  A    between atoms: C_12  and  N_13 
REMARK    4  A    between atoms: C_12  and  C_21 
REMARK       I    between atoms: N_13  and  C_14 
REMARK    5  A    between atoms: C_14  and  C_15 
REMARK    6  A    between atoms: C_21  and  C_22 
ROOT
HETATM    1  C   UNL     1      42.589 -14.272   3.997  1.00  0.00     0.181 C 
ENDROOT
BRANCH   1   2
HETATM    2  C   UNL     1      41.517 -13.689   3.045  1.00  0.00     0.245 C 
HETATM    3  N   UNL     1      41.722 -13.981   1.710  1.00  0.00    -0.325 N 
HETATM    4  H   UNL     1      42.479 -14.637   1.509  1.00  0.00     0.169 HD
HETATM    5  O   UNL     1      40.573 -13.051   3.509  1.00  0.00    -0.271 OA
BRANCH   3   6
HETATM    6  C   UNL     1      40.971 -13.549   0.597  1.00  0.00     0.037 A 
HETATM    7  C   UNL     1      40.990 -12.237   0.108  1.00  0.00     0.063 A 
HETATM    8  C   UNL     1      40.204 -11.917  -1.013  1.00  0.00     0.087 A 
HETATM    9  N   UNL     1      40.048 -10.716  -1.665  1.00  0.00    -0.234 NA
HETATM   10  C   UNL     1      39.438 -12.907  -1.616  1.00  0.00     0.062 A 
HETATM   11  C   UNL     1      39.204 -10.950  -2.647  1.00  0.00     0.101 A 
HETATM   12  C   UNL     1      38.702  -9.970  -3.638  1.00  0.00     0.091 C 
HETATM   13  N   UNL     1      38.816 -12.267  -2.657  1.00  0.00    -0.343 N 
HETATM   14  H   UNL     1      38.179 -12.689  -3.315  1.00  0.00     0.167 HD
HETATM   15  C   UNL     1      39.397 -14.223  -1.163  1.00  0.00     0.034 A 
HETATM   16  C   UNL     1      40.181 -14.519  -0.039  1.00  0.00     0.032 A 
ENDBRANCH   3   6
ENDBRANCH   1   2
BRANCH   1  17
HETATM   17  N   UNL     1      42.923 -13.278   5.027  1.00  0.00    -0.343 N 
HETATM   18  C   UNL     1      43.661 -12.137   4.806  1.00  0.00     0.259 C 
HETATM   19  O   UNL     1      44.115 -11.889   3.689  1.00  0.00    -0.267 OA
HETATM   20  H   UNL     1      42.676 -13.495   5.985  1.00  0.00     0.163 HD
BRANCH  18  21
HETATM   21  C   UNL     1      43.883 -11.279   5.961  1.00  0.00     0.072 A 
HETATM   22  S   UNL     1      42.638 -10.315   6.643  1.00  0.00    -0.097 SA
HETATM   23  C   UNL     1      43.682  -9.685   7.840  1.00  0.00     0.050 A 
HETATM   24  C   UNL     1      44.957 -10.193   7.731  1.00  0.00     0.009 A 
HETATM   25  C   UNL     1      45.072 -11.112   6.649  1.00  0.00     0.025 A 
ENDBRANCH  18  21
ENDBRANCH   1  17
BRANCH   1  26
HETATM   26  C   UNL     1      42.228 -15.656   4.575  1.00  0.00     0.073 C 
BRANCH  26  27
HETATM   27  C   UNL     1      42.850 -16.880   3.932  1.00  0.00    -0.056 A 
HETATM   28  C   UNL     1      42.449 -17.407   2.698  1.00  0.00     0.007 A 
HETATM   29  C   UNL     1      43.046 -18.566   2.190  1.00  0.00     0.001 A 
HETATM   30  C   UNL     1      44.044 -19.219   2.909  1.00  0.00     0.000 A 
HETATM   31  C   UNL     1      44.445 -18.716   4.142  1.00  0.00     0.001 A 
HETATM   32  C   UNL     1      43.852 -17.560   4.650  1.00  0.00     0.007 A 
ENDBRANCH  26  27
ENDBRANCH   1  26
TORSDOF 6
ENDMDL
MODEL 6
REMARK VINA RESULT:      -8.3      2.793      7.772
REMARK  6 active torsions:
REMARK  status: ('A' for Active; 'I' for Inactive)
REMARK    1  A    between atoms: C_9  and  N_10 
REMARK       I    between atoms: N_10  and  C_11 
REMARK    2  A    between atoms: C_11  and  C_12 
REMARK    3  A    between atoms: C_12  and  N_13 
REMARK    4  A    between atoms: C_12  and  C_21 
REMARK       I    between atoms: N_13  and  C_14 
REMARK    5  A    between atoms: C_14  and  C_15 
REMARK    6  A    between atoms: C_21  and  C_22 
ROOT
HETATM    1  C   UNL     1      42.441 -14.741   2.102  1.00  0.00     0.181 C 
ENDROOT
BRANCH   1   2
HETATM    2  C   UNL     1      41.561 -13.856   1.187  1.00  0.00     0.245 C 
HETATM    3  N   UNL     1      40.591 -14.549   0.488  1.00  0.00    -0.325 N 
HETATM    4  H   UNL     1      40.484 -15.535   0.734  1.00  0.00     0.169 HD
HETATM    5  O   UNL     1      41.746 -12.640   1.155  1.00  0.00    -0.271 OA
BRANCH   3   6
HETATM    6  C   UNL     1      39.680 -14.050  -0.466  1.00  0.00     0.037 A 
HETATM    7  C   UNL     1      39.079 -12.789  -0.383  1.00  0.00     0.063 A 
HETATM    8  C   UNL     1      38.188 -12.392  -1.396  1.00  0.00     0.087 A 
HETATM    9  N   UNL     1      37.474 -11.224  -1.531  1.00  0.00    -0.234 NA
HETATM   10  C   UNL     1      37.933 -13.250  -2.458  1.00  0.00     0.062 A 
HETATM   11  C   UNL     1      36.790 -11.351  -2.648  1.00  0.00     0.101 A 
HETATM   12  C   UNL     1      35.856 -10.362  -3.235  1.00  0.00     0.091 C 
HETATM   13  N   UNL     1      37.045 -12.561  -3.244  1.00  0.00    -0.343 N 
HETATM   14  H   UNL     1      36.644 -12.888  -4.110  1.00  0.00     0.167 HD
HETATM   15  C   UNL     1      38.516 -14.509  -2.579  1.00  0.00     0.034 A 
HETATM   16  C   UNL     1      39.394 -14.890  -1.555  1.00  0.00     0.032 A 
ENDBRANCH   3   6
ENDBRANCH   1   2
BRANCH   1  17
HETATM   17  N   UNL     1      42.920 -13.944   3.240  1.00  0.00    -0.343 N 
HETATM   18  C   UNL     1      42.147 -13.567   4.315  1.00  0.00     0.259 C 
HETATM   19  O   UNL     1      40.957 -13.878   4.372  1.00  0.00    -0.267 OA
HETATM   20  H   UNL     1      43.857 -13.563   3.184  1.00  0.00     0.163 HD
BRANCH  18  21
HETATM   21  C   UNL     1      42.810 -12.777   5.341  1.00  0.00     0.072 A 
HETATM   22  S   UNL     1      42.540 -11.092   5.523  1.00  0.00    -0.097 SA
HETATM   23  C   UNL     1      43.628 -10.986   6.837  1.00  0.00     0.050 A 
HETATM   24  C   UNL     1      44.192 -12.204   7.139  1.00  0.00     0.009 A 
HETATM   25  C   UNL     1      43.720 -13.236   6.278  1.00  0.00     0.025 A 
ENDBRANCH  18  21
ENDBRANCH   1  17
BRANCH   1  26
HETATM   26  C   UNL     1      41.775 -16.068   2.521  1.00  0.00     0.073 C 
BRANCH  26  27
HETATM   27  C   UNL     1      42.668 -17.183   3.031  1.00  0.00    -0.056 A 
HETATM   28  C   UNL     1      43.062 -18.286   2.264  1.00  0.00     0.007 A 
HETATM   29  C   UNL     1      43.855 -19.294   2.820  1.00  0.00     0.001 A 
HETATM   30  C   UNL     1      44.258 -19.222   4.151  1.00  0.00     0.000 A 
HETATM   31  C   UNL     1      43.865 -18.140   4.932  1.00  0.00     0.001 A 
HETATM   32  C   UNL     1      43.074 -17.132   4.378  1.00  0.00     0.007 A 
ENDBRANCH  26  27
ENDBRANCH   1  26
TORSDOF 6
ENDMDL
MODEL 7
REMARK VINA RESULT:      -8.3      2.203      5.425
REMARK  6 active torsions:
REMARK  status: ('A' for Active; 'I' for Inactive)
REMARK    1  A    between atoms: C_9  and  N_10 
REMARK       I    between atoms: N_10  and  C_11 
REMARK    2  A    between atoms: C_11  and  C_12 
REMARK    3  A    between atoms: C_12  and  N_13 
REMARK    4  A    between atoms: C_12  and  C_21 
REMARK       I    between atoms: N_13  and  C_14 
REMARK    5  A    between atoms: C_14  and  C_15 
REMARK    6  A    between atoms: C_21  and  C_22 
ROOT
HETATM    1  C   UNL     1      42.489 -13.571   2.517  1.00  0.00     0.181 C 
ENDROOT
BRANCH   1   2
HETATM    2  C   UNL     1      43.017 -12.387   3.363  1.00  0.00     0.245 C 
HETATM    3  N   UNL     1      43.128 -12.657   4.713  1.00  0.00    -0.325 N 
HETATM    4  H   UNL     1      42.964 -13.627   4.988  1.00  0.00     0.169 HD
HETATM    5  O   UNL     1      43.319 -11.330   2.809  1.00  0.00    -0.271 OA
BRANCH   3   6
HETATM    6  C   UNL     1      43.511 -11.781   5.749  1.00  0.00     0.037 A 
HETATM    7  C   UNL     1      42.713 -10.729   6.214  1.00  0.00     0.063 A 
HETATM    8  C   UNL     1      43.195  -9.919   7.258  1.00  0.00     0.087 A 
HETATM    9  N   UNL     1      42.612  -8.835   7.872  1.00  0.00    -0.234 NA
HETATM   10  C   UNL     1      44.441 -10.185   7.811  1.00  0.00     0.062 A 
HETATM   11  C   UNL     1      43.473  -8.433   8.782  1.00  0.00     0.101 A 
HETATM   12  C   UNL     1      43.316  -7.289   9.709  1.00  0.00     0.091 C 
HETATM   13  N   UNL     1      44.591  -9.230   8.783  1.00  0.00    -0.343 N 
HETATM   14  H   UNL     1      45.389  -9.125   9.392  1.00  0.00     0.167 HD
HETATM   15  C   UNL     1      45.261 -11.225   7.380  1.00  0.00     0.034 A 
HETATM   16  C   UNL     1      44.767 -12.015   6.333  1.00  0.00     0.032 A 
ENDBRANCH   3   6
ENDBRANCH   1   2
BRANCH   1  17
HETATM   17  N   UNL     1      42.847 -14.837   3.170  1.00  0.00    -0.343 N 
HETATM   18  C   UNL     1      43.178 -15.997   2.505  1.00  0.00     0.259 C 
HETATM   19  O   UNL     1      43.173 -16.038   1.275  1.00  0.00    -0.267 OA
HETATM   20  H   UNL     1      42.750 -14.890   4.177  1.00  0.00     0.163 HD
BRANCH  18  21
HETATM   21  C   UNL     1      43.502 -17.147   3.336  1.00  0.00     0.072 A 
HETATM   22  S   UNL     1      43.567 -17.055   5.048  1.00  0.00    -0.097 SA
HETATM   23  C   UNL     1      43.987 -18.705   5.193  1.00  0.00     0.050 A 
HETATM   24  C   UNL     1      44.078 -19.324   3.968  1.00  0.00     0.009 A 
HETATM   25  C   UNL     1      43.798 -18.426   2.898  1.00  0.00     0.025 A 
ENDBRANCH  18  21
ENDBRANCH   1  17
BRANCH   1  26
HETATM   26  C   UNL     1      40.991 -13.468   2.160  1.00  0.00     0.073 C 
BRANCH  26  27
HETATM   27  C   UNL     1      40.606 -13.495   0.693  1.00  0.00    -0.056 A 
HETATM   28  C   UNL     1      39.966 -14.573   0.071  1.00  0.00     0.007 A 
HETATM   29  C   UNL     1      39.679 -14.539  -1.298  1.00  0.00     0.001 A 
HETATM   30  C   UNL     1      40.036 -13.433  -2.065  1.00  0.00     0.000 A 
HETATM   31  C   UNL     1      40.684 -12.359  -1.466  1.00  0.00     0.001 A 
HETATM   32  C   UNL     1      40.969 -12.391  -0.100  1.00  0.00     0.007 A 
ENDBRANCH  26  27
ENDBRANCH   1  26
TORSDOF 6
ENDMDL
MODEL 8
REMARK VINA RESULT:      -8.1      1.864      2.482
REMARK  6 active torsions:
REMARK  status: ('A' for Active; 'I' for Inactive)
REMARK    1  A    between atoms: C_9  and  N_10 
REMARK       I    between atoms: N_10  and  C_11 
REMARK    2  A    between atoms: C_11  and  C_12 
REMARK    3  A    between atoms: C_12  and  N_13 
REMARK    4  A    between atoms: C_12  and  C_21 
REMARK       I    between atoms: N_13  and  C_14 
REMARK    5  A    between atoms: C_14  and  C_15 
REMARK    6  A    between atoms: C_21  and  C_22 
ROOT
HETATM    1  C   UNL     1      42.277 -13.529   2.650  1.00  0.00     0.181 C 
ENDROOT
BRANCH   1   2
HETATM    2  C   UNL     1      42.907 -12.357   3.441  1.00  0.00     0.245 C 
HETATM    3  N   UNL     1      42.928 -12.540   4.810  1.00  0.00    -0.325 N 
HETATM    4  H   UNL     1      42.637 -13.462   5.140  1.00  0.00     0.169 HD
HETATM    5  O   UNL     1      43.357 -11.385   2.835  1.00  0.00    -0.271 OA
BRANCH   3   6
HETATM    6  C   UNL     1      43.370 -11.643   5.804  1.00  0.00     0.037 A 
HETATM    7  C   UNL     1      42.568 -10.637   6.357  1.00  0.00     0.063 A 
HETATM    8  C   UNL     1      43.112  -9.800   7.347  1.00  0.00     0.087 A 
HETATM    9  N   UNL     1      42.537  -8.750   8.024  1.00  0.00    -0.234 NA
HETATM   10  C   UNL     1      44.422  -9.994   7.762  1.00  0.00     0.062 A 
HETATM   11  C   UNL     1      43.466  -8.299   8.840  1.00  0.00     0.101 A 
HETATM   12  C   UNL     1      43.345  -7.164   9.784  1.00  0.00     0.091 C 
HETATM   13  N   UNL     1      44.621  -9.031   8.718  1.00  0.00    -0.343 N 
HETATM   14  H   UNL     1      45.472  -8.881   9.239  1.00  0.00     0.167 HD
HETATM   15  C   UNL     1      45.249 -10.987   7.242  1.00  0.00     0.034 A 
HETATM   16  C   UNL     1      44.691 -11.805   6.250  1.00  0.00     0.032 A 
ENDBRANCH   3   6
ENDBRANCH   1   2
BRANCH   1  17
HETATM   17  N   UNL     1      41.400 -12.995   1.599  1.00  0.00    -0.343 N 
HETATM   18  C   UNL     1      40.228 -13.584   1.180  1.00  0.00     0.259 C 
HETATM   19  O   UNL     1      39.846 -14.644   1.676  1.00  0.00    -0.267 OA
HETATM   20  H   UNL     1      41.729 -12.190   1.078  1.00  0.00     0.163 HD
BRANCH  18  21
HETATM   21  C   UNL     1      39.502 -12.896   0.122  1.00  0.00     0.072 A 
HETATM   22  S   UNL     1      39.697 -13.294  -1.535  1.00  0.00    -0.097 SA
HETATM   23  C   UNL     1      38.580 -12.097  -2.028  1.00  0.00     0.050 A 
HETATM   24  C   UNL     1      38.063 -11.403  -0.959  1.00  0.00     0.009 A 
HETATM   25  C   UNL     1      38.594 -11.864   0.280  1.00  0.00     0.025 A 
ENDBRANCH  18  21
ENDBRANCH   1  17
BRANCH   1  26
HETATM   26  C   UNL     1      43.302 -14.557   2.129  1.00  0.00     0.073 C 
BRANCH  26  27
HETATM   27  C   UNL     1      43.357 -15.913   2.806  1.00  0.00    -0.056 A 
HETATM   28  C   UNL     1      43.512 -16.094   4.186  1.00  0.00     0.007 A 
HETATM   29  C   UNL     1      43.594 -17.380   4.731  1.00  0.00     0.001 A 
HETATM   30  C   UNL     1      43.533 -18.500   3.907  1.00  0.00     0.000 A 
HETATM   31  C   UNL     1      43.393 -18.338   2.534  1.00  0.00     0.001 A 
HETATM   32  C   UNL     1      43.309 -17.056   1.988  1.00  0.00     0.007 A 
ENDBRANCH  26  27
ENDBRANCH   1  26
TORSDOF 6
ENDMDL
MODEL 9
REMARK VINA RESULT:      -8.1     15.787     17.914
REMARK  6 active torsions:
REMARK  status: ('A' for Active; 'I' for Inactive)
REMARK    1  A    between atoms: C_9  and  N_10 
REMARK       I    between atoms: N_10  and  C_11 
REMARK    2  A    between atoms: C_11  and  C_12 
REMARK    3  A    between atoms: C_12  and  N_13 
REMARK    4  A    between atoms: C_12  and  C_21 
REMARK       I    between atoms: N_13  and  C_14 
REMARK    5  A    between atoms: C_14  and  C_15 
REMARK    6  A    between atoms: C_21  and  C_22 
ROOT
HETATM    1  C   UNL     1      44.091 -29.705   0.830  1.00  0.00     0.181 C 
ENDROOT
BRANCH   1   2
HETATM    2  C   UNL     1      42.786 -29.867   1.646  1.00  0.00     0.245 C 
HETATM    3  N   UNL     1      42.777 -30.957   2.495  1.00  0.00    -0.325 N 
HETATM    4  H   UNL     1      43.660 -31.463   2.579  1.00  0.00     0.169 HD
HETATM    5  O   UNL     1      41.882 -29.041   1.519  1.00  0.00    -0.271 OA
BRANCH   3   6
HETATM    6  C   UNL     1      41.726 -31.414   3.316  1.00  0.00     0.037 A 
HETATM    7  C   UNL     1      40.598 -32.089   2.834  1.00  0.00     0.063 A 
HETATM    8  C   UNL     1      39.612 -32.505   3.745  1.00  0.00     0.087 A 
HETATM    9  N   UNL     1      38.427 -33.165   3.519  1.00  0.00    -0.234 NA
HETATM   10  C   UNL     1      39.781 -32.248   5.100  1.00  0.00     0.062 A 
HETATM   11  C   UNL     1      37.870 -33.315   4.702  1.00  0.00     0.101 A 
HETATM   12  C   UNL     1      36.570 -33.963   4.996  1.00  0.00     0.091 C 
HETATM   13  N   UNL     1      38.662 -32.780   5.688  1.00  0.00    -0.343 N 
HETATM   14  H   UNL     1      38.452 -32.775   6.674  1.00  0.00     0.167 HD
HETATM   15  C   UNL     1      40.890 -31.585   5.619  1.00  0.00     0.034 A 
HETATM   16  C   UNL     1      41.858 -31.172   4.693  1.00  0.00     0.032 A 
ENDBRANCH   3   6
ENDBRANCH   1   2
BRANCH   1  17
HETATM   17  N   UNL     1      45.247 -29.983   1.695  1.00  0.00    -0.343 N 
HETATM   18  C   UNL     1      46.233 -29.072   2.004  1.00  0.00     0.259 C 
HETATM   19  O   UNL     1      46.204 -27.934   1.537  1.00  0.00    -0.267 OA
HETATM   20  H   UNL     1      45.380 -30.938   2.007  1.00  0.00     0.163 HD
BRANCH  18  21
HETATM   21  C   UNL     1      47.295 -29.545   2.879  1.00  0.00     0.072 A 
HETATM   22  S   UNL     1      47.190 -31.027   3.736  1.00  0.00    -0.097 SA
HETATM   23  C   UNL     1      48.725 -30.805   4.454  1.00  0.00     0.050 A 
HETATM   24  C   UNL     1      49.315 -29.628   4.054  1.00  0.00     0.009 A 
HETATM   25  C   UNL     1      48.491 -28.903   3.147  1.00  0.00     0.025 A 
ENDBRANCH  18  21
ENDBRANCH   1  17
BRANCH   1  26
HETATM   26  C   UNL     1      44.109 -30.503  -0.491  1.00  0.00     0.073 C 
BRANCH  26  27
HETATM   27  C   UNL     1      44.382 -29.745  -1.776  1.00  0.00    -0.056 A 
HETATM   28  C   UNL     1      44.059 -30.223  -3.051  1.00  0.00     0.007 A 
HETATM   29  C   UNL     1      44.380 -29.482  -4.193  1.00  0.00     0.001 A 
HETATM   30  C   UNL     1      45.036 -28.260  -4.079  1.00  0.00     0.000 A 
HETATM   31  C   UNL     1      45.376 -27.775  -2.820  1.00  0.00     0.001 A 
HETATM   32  C   UNL     1      45.055 -28.513  -1.680  1.00  0.00     0.007 A 
ENDBRANCH  26  27
ENDBRANCH   1  26
TORSDOF 6
ENDMDL
MODEL 10
REMARK VINA RESULT:      -7.9      3.118      3.699
REMARK  6 active torsions:
REMARK  status: ('A' for Active; 'I' for Inactive)
REMARK    1  A    between atoms: C_9  and  N_10 
REMARK       I    between atoms: N_10  and  C_11 
REMARK    2  A    between atoms: C_11  and  C_12 
REMARK    3  A    between atoms: C_12  and  N_13 
REMARK    4  A    between atoms: C_12  and  C_21 
REMARK       I    between atoms: N_13  and  C_14 
REMARK    5  A    between atoms: C_14  and  C_15 
REMARK    6  A    between atoms: C_21  and  C_22 
ROOT
HETATM    1  C   UNL     1      41.275 -15.626   2.143  1.00  0.00     0.181 C 
ENDROOT
BRANCH   1   2
HETATM    2  C   UNL     1      41.260 -14.399   3.086  1.00  0.00     0.245 C 
HETATM    3  N   UNL     1      40.003 -13.876   3.320  1.00  0.00    -0.325 N 
HETATM    4  H   UNL     1      39.220 -14.415   2.946  1.00  0.00     0.169 HD
HETATM    5  O   UNL     1      42.315 -13.994   3.574  1.00  0.00    -0.271 OA
BRANCH   3   6
HETATM    6  C   UNL     1      39.660 -12.734   4.072  1.00  0.00     0.037 A 
HETATM    7  C   UNL     1      39.198 -11.539   3.507  1.00  0.00     0.063 A 
HETATM    8  C   UNL     1      38.880 -10.463   4.354  1.00  0.00     0.087 A 
HETATM    9  N   UNL     1      38.424  -9.203   4.043  1.00  0.00    -0.234 NA
HETATM   10  C   UNL     1      39.019 -10.610   5.728  1.00  0.00     0.062 A 
HETATM   11  C   UNL     1      38.285  -8.580   5.194  1.00  0.00     0.101 A 
HETATM   12  C   UNL     1      37.826  -7.186   5.398  1.00  0.00     0.091 C 
HETATM   13  N   UNL     1      38.627  -9.400   6.240  1.00  0.00    -0.343 N 
HETATM   14  H   UNL     1      38.601  -9.151   7.217  1.00  0.00     0.167 HD
HETATM   15  C   UNL     1      39.470 -11.783   6.328  1.00  0.00     0.034 A 
HETATM   16  C   UNL     1      39.790 -12.841   5.466  1.00  0.00     0.032 A 
ENDBRANCH   3   6
ENDBRANCH   1   2
BRANCH   1  17
HETATM   17  N   UNL     1      40.530 -15.309   0.916  1.00  0.00    -0.343 N 
HETATM   18  C   UNL     1      40.655 -14.138   0.202  1.00  0.00     0.259 C 
HETATM   19  O   UNL     1      41.419 -13.251   0.581  1.00  0.00    -0.267 OA
HETATM   20  H   UNL     1      39.803 -15.954   0.629  1.00  0.00     0.163 HD
BRANCH  18  21
HETATM   21  C   UNL     1      39.827 -14.017  -0.988  1.00  0.00     0.072 A 
HETATM   22  S   UNL     1      39.470 -12.502  -1.710  1.00  0.00    -0.097 SA
HETATM   23  C   UNL     1      38.522 -13.226  -2.933  1.00  0.00     0.050 A 
HETATM   24  C   UNL     1      38.471 -14.595  -2.804  1.00  0.00     0.009 A 
HETATM   25  C   UNL     1      39.224 -15.050  -1.683  1.00  0.00     0.025 A 
ENDBRANCH  18  21
ENDBRANCH   1  17
BRANCH   1  26
HETATM   26  C   UNL     1      42.684 -16.195   1.875  1.00  0.00     0.073 C 
BRANCH  26  27
HETATM   27  C   UNL     1      43.170 -17.332   2.752  1.00  0.00    -0.056 A 
HETATM   28  C   UNL     1      43.669 -17.164   4.049  1.00  0.00     0.007 A 
HETATM   29  C   UNL     1      44.137 -18.261   4.781  1.00  0.00     0.001 A 
HETATM   30  C   UNL     1      44.123 -19.537   4.225  1.00  0.00     0.000 A 
HETATM   31  C   UNL     1      43.644 -19.720   2.932  1.00  0.00     0.001 A 
HETATM   32  C   UNL     1      43.175 -18.628   2.201  1.00  0.00     0.007 A 
ENDBRANCH  26  27
ENDBRANCH   1  26
TORSDOF 6
ENDMDL
