MODEL 1
REMARK VINA RESULT:      -8.6      0.000      0.000
REMARK  8 active torsions:
REMARK  status: ('A' for Active; 'I' for Inactive)
REMARK    1  A    between atoms: C_2  and  O_3 
REMARK    2  A    between atoms: O_3  and  C_4 
REMARK    3  A    between atoms: C_5  and  C_6 
REMARK    4  A    between atoms: C_6  and  N_7 
REMARK    5  A    between atoms: C_23  and  C_24 
REMARK    6  A    between atoms: N_25  and  N_26 
REMARK       I    between atoms: N_26  and  C_27 
REMARK    7  A    between atoms: C_27  and  C_28 
REMARK    8  A    between atoms: C_31  and  N_32 
REMARK       I    between atoms: N_32  and  C_33 
ROOT
HETATM    1  C   UNL     1      38.898 -11.600   2.670  1.00  0.00     0.076 A 
HETATM    2  C   UNL     1      39.468 -12.567   3.517  1.00  0.00     0.002 A 
HETATM    3  C   UNL     1      39.773 -12.230   4.843  1.00  0.00     0.024 A 
HETATM    4  C   UNL     1      39.506 -10.949   5.330  1.00  0.00    -0.016 A 
HETATM    5  C   UNL     1      38.963  -9.983   4.485  1.00  0.00     0.016 A 
HETATM    6  C   UNL     1      38.661 -10.309   3.156  1.00  0.00     0.038 A 
ENDROOT
BRANCH   4   7
HETATM    7  C   UNL     1      39.761 -10.633   6.753  1.00  0.00     0.150 C 
HETATM    8  N   UNL     1      40.843 -10.007   7.084  1.00  0.00    -0.184 NA
BRANCH   8   9
HETATM    9  N   UNL     1      41.083  -9.707   8.396  1.00  0.00    -0.243 N 
HETATM   10  C   UNL     1      42.308  -9.392   8.969  1.00  0.00     0.271 C 
HETATM   11  O   UNL     1      43.382  -9.310   8.383  1.00  0.00    -0.266 OA
HETATM   12  H   UNL     1      40.335 -10.015   9.011  1.00  0.00     0.192 HD
BRANCH  10  13
HETATM   13  C   UNL     1      42.269  -9.193  10.448  1.00  0.00     0.033 A 
HETATM   14  C   UNL     1      43.319  -8.577  11.140  1.00  0.00     0.019 A 
HETATM   15  C   UNL     1      43.237  -8.390  12.526  1.00  0.00     0.030 A 
HETATM   16  C   UNL     1      42.117  -8.824  13.238  1.00  0.00     0.034 A 
HETATM   17  C   UNL     1      41.082  -9.465  12.545  1.00  0.00     0.030 A 
HETATM   18  C   UNL     1      41.157  -9.652  11.160  1.00  0.00     0.019 A 
BRANCH  16  19
HETATM   19  N   UNL     1      41.962  -8.665  14.630  1.00  0.00    -0.328 N 
HETATM   20  C   UNL     1      41.468  -7.559  15.301  1.00  0.00     0.218 C 
HETATM   21  C   UNL     1      41.457  -7.755  16.796  1.00  0.00     0.117 C 
HETATM   22  O   UNL     1      41.042  -6.526  14.799  1.00  0.00    -0.274 OA
HETATM   23  H   UNL     1      42.222  -9.461  15.201  1.00  0.00     0.169 HD
ENDBRANCH  16  19
ENDBRANCH  10  13
ENDBRANCH   8   9
ENDBRANCH   4   7
BRANCH   2  24
HETATM   24  C   UNL     1      39.737 -13.969   3.040  1.00  0.00     0.276 C 
BRANCH  24  25
HETATM   25  N   UNL     1      40.689 -14.047   1.859  1.00  0.00    -0.066 N 
HETATM   26  H   UNL     1      40.087 -13.652   1.119  1.00  0.00     0.280 HD
HETATM   27  C   UNL     1      41.869 -13.104   1.967  1.00  0.00     0.246 C 
HETATM   28  C   UNL     1      43.120 -13.760   2.587  1.00  0.00     0.062 C 
HETATM   29  C   UNL     1      43.487 -15.008   1.791  1.00  0.00     0.020 C 
HETATM   30  C   UNL     1      42.926 -14.099   4.052  1.00  0.00     0.020 A 
HETATM   31  C   UNL     1      42.342 -15.998   1.945  1.00  0.00     0.031 C 
HETATM   32  C   UNL     1      42.227 -16.416   3.412  1.00  0.00     0.138 C 
HETATM   33  C   UNL     1      41.042 -15.429   1.366  1.00  0.00     0.241 C 
HETATM   34  N   UNL     1      42.427 -15.357   4.400  1.00  0.00    -0.317 N 
HETATM   35  C   UNL     1      42.203 -15.730   5.735  1.00  0.00     0.247 A 
HETATM   36  O   UNL     1      41.753 -16.821   6.073  1.00  0.00    -0.268 OA
HETATM   37  C   UNL     1      42.514 -14.712   6.766  1.00  0.00     0.074 A 
HETATM   38  C   UNL     1      42.999 -13.521   6.404  1.00  0.00     0.007 A 
HETATM   39  C   UNL     1      43.215 -13.206   5.015  1.00  0.00     0.026 A 
ENDBRANCH  24  25
ENDBRANCH   2  24
BRANCH   1  40
HETATM   40  O   UNL     1      38.578 -12.045   1.412  1.00  0.00    -0.351 OA
BRANCH  40  41
HETATM   41  C   UNL     1      38.735 -11.107   0.339  1.00  0.00     0.171 C 
HETATM   42  C   UNL     1      39.592 -11.764  -0.727  1.00  0.00     0.034 C 
ENDBRANCH  40  41
ENDBRANCH   1  40
TORSDOF 8
ENDMDL
MODEL 2
REMARK VINA RESULT:      -8.5      1.990      3.455
REMARK  8 active torsions:
REMARK  status: ('A' for Active; 'I' for Inactive)
REMARK    1  A    between atoms: C_2  and  O_3 
REMARK    2  A    between atoms: O_3  and  C_4 
REMARK    3  A    between atoms: C_5  and  C_6 
REMARK    4  A    between atoms: C_6  and  N_7 
REMARK    5  A    between atoms: C_23  and  C_24 
REMARK    6  A    between atoms: N_25  and  N_26 
REMARK       I    between atoms: N_26  and  C_27 
REMARK    7  A    between atoms: C_27  and  C_28 
REMARK    8  A    between atoms: C_31  and  N_32 
REMARK       I    between atoms: N_32  and  C_33 
ROOT
HETATM    1  C   UNL     1      41.708 -10.712   4.184  1.00  0.00     0.076 A 
HETATM    2  C   UNL     1      42.291 -11.541   5.159  1.00  0.00     0.002 A 
HETATM    3  C   UNL     1      42.561 -11.024   6.434  1.00  0.00     0.024 A 
HETATM    4  C   UNL     1      42.247  -9.699   6.744  1.00  0.00    -0.016 A 
HETATM    5  C   UNL     1      41.690  -8.870   5.772  1.00  0.00     0.016 A 
HETATM    6  C   UNL     1      41.422  -9.377   4.493  1.00  0.00     0.038 A 
ENDROOT
BRANCH   4   7
HETATM    7  C   UNL     1      42.465  -9.191   8.116  1.00  0.00     0.150 C 
HETATM    8  N   UNL     1      41.563  -9.391   9.022  1.00  0.00    -0.184 NA
BRANCH   8   9
HETATM    9  N   UNL     1      41.759  -8.929  10.293  1.00  0.00    -0.243 N 
HETATM   10  C   UNL     1      42.502  -9.537  11.296  1.00  0.00     0.271 C 
HETATM   11  O   UNL     1      43.128 -10.587  11.198  1.00  0.00    -0.266 OA
HETATM   12  H   UNL     1      41.073  -8.231  10.566  1.00  0.00     0.192 HD
BRANCH  10  13
HETATM   13  C   UNL     1      42.464  -8.834  12.612  1.00  0.00     0.033 A 
HETATM   14  C   UNL     1      43.350  -7.795  12.923  1.00  0.00     0.019 A 
HETATM   15  C   UNL     1      43.270  -7.146  14.161  1.00  0.00     0.030 A 
HETATM   16  C   UNL     1      42.316  -7.529  15.106  1.00  0.00     0.034 A 
HETATM   17  C   UNL     1      41.450  -8.587  14.801  1.00  0.00     0.030 A 
HETATM   18  C   UNL     1      41.524  -9.238  13.565  1.00  0.00     0.019 A 
BRANCH  16  19
HETATM   19  N   UNL     1      42.172  -6.919  16.369  1.00  0.00    -0.328 N 
HETATM   20  C   UNL     1      41.618  -5.681  16.646  1.00  0.00     0.218 C 
HETATM   21  C   UNL     1      41.642  -5.361  18.120  1.00  0.00     0.117 C 
HETATM   22  O   UNL     1      41.118  -4.903  15.842  1.00  0.00    -0.274 OA
HETATM   23  H   UNL     1      42.492  -7.459  17.164  1.00  0.00     0.169 HD
ENDBRANCH  16  19
ENDBRANCH  10  13
ENDBRANCH   8   9
ENDBRANCH   4   7
BRANCH   2  24
HETATM   24  C   UNL     1      42.611 -12.984   4.874  1.00  0.00     0.276 C 
BRANCH  24  25
HETATM   25  N   UNL     1      42.465 -13.898   6.079  1.00  0.00    -0.066 N 
HETATM   26  H   UNL     1      42.525 -13.200   6.838  1.00  0.00     0.280 HD
HETATM   27  C   UNL     1      41.091 -14.519   6.208  1.00  0.00     0.246 C 
HETATM   28  C   UNL     1      40.988 -15.915   5.560  1.00  0.00     0.062 C 
HETATM   29  C   UNL     1      42.059 -16.828   6.147  1.00  0.00     0.020 C 
HETATM   30  C   UNL     1      41.105 -15.858   4.048  1.00  0.00     0.020 A 
HETATM   31  C   UNL     1      43.412 -16.252   5.755  1.00  0.00     0.031 C 
HETATM   32  C   UNL     1      43.562 -16.302   4.235  1.00  0.00     0.138 C 
HETATM   33  C   UNL     1      43.604 -14.851   6.345  1.00  0.00     0.241 C 
HETATM   34  N   UNL     1      42.367 -15.975   3.458  1.00  0.00    -0.317 N 
HETATM   35  C   UNL     1      42.551 -15.911   2.068  1.00  0.00     0.247 A 
HETATM   36  O   UNL     1      43.646 -15.995   1.520  1.00  0.00    -0.268 OA
HETATM   37  C   UNL     1      41.334 -15.701   1.249  1.00  0.00     0.074 A 
HETATM   38  C   UNL     1      40.140 -15.601   1.841  1.00  0.00     0.007 A 
HETATM   39  C   UNL     1      40.019 -15.687   3.274  1.00  0.00     0.026 A 
ENDBRANCH  24  25
ENDBRANCH   2  24
BRANCH   1  40
HETATM   40  O   UNL     1      41.425 -11.328   2.991  1.00  0.00    -0.351 OA
BRANCH  40  41
HETATM   41  C   UNL     1      40.110 -11.122   2.458  1.00  0.00     0.171 C 
HETATM   42  C   UNL     1      39.176 -12.104   3.142  1.00  0.00     0.034 C 
ENDBRANCH  40  41
ENDBRANCH   1  40
TORSDOF 8
ENDMDL
MODEL 3
REMARK VINA RESULT:      -8.3      1.817      2.528
REMARK  8 active torsions:
REMARK  status: ('A' for Active; 'I' for Inactive)
REMARK    1  A    between atoms: C_2  and  O_3 
REMARK    2  A    between atoms: O_3  and  C_4 
REMARK    3  A    between atoms: C_5  and  C_6 
REMARK    4  A    between atoms: C_6  and  N_7 
REMARK    5  A    between atoms: C_23  and  C_24 
REMARK    6  A    between atoms: N_25  and  N_26 
REMARK       I    between atoms: N_26  and  C_27 
REMARK    7  A    between atoms: C_27  and  C_28 
REMARK    8  A    between atoms: C_31  and  N_32 
REMARK       I    between atoms: N_32  and  C_33 
ROOT
HETATM    1  C   UNL     1      42.209 -10.821   3.243  1.00  0.00     0.076 A 
HETATM    2  C   UNL     1      42.495 -11.876   4.127  1.00  0.00     0.002 A 
HETATM    3  C   UNL     1      42.388 -11.667   5.510  1.00  0.00     0.024 A 
HETATM    4  C   UNL     1      41.990 -10.425   6.012  1.00  0.00    -0.016 A 
HETATM    5  C   UNL     1      41.729  -9.373   5.137  1.00  0.00     0.016 A 
HETATM    6  C   UNL     1      41.839  -9.571   3.754  1.00  0.00     0.038 A 
ENDROOT
BRANCH   4   7
HETATM    7  C   UNL     1      41.806 -10.244   7.468  1.00  0.00     0.150 C 
HETATM    8  N   UNL     1      42.349  -9.230   8.059  1.00  0.00    -0.184 NA
BRANCH   8   9
HETATM    9  N   UNL     1      42.179  -9.053   9.404  1.00  0.00    -0.243 N 
HETATM   10  C   UNL     1      42.973  -9.568  10.420  1.00  0.00     0.271 C 
HETATM   11  O   UNL     1      43.978 -10.256  10.276  1.00  0.00    -0.266 OA
HETATM   12  H   UNL     1      41.241  -8.746   9.643  1.00  0.00     0.192 HD
BRANCH  10  13
HETATM   13  C   UNL     1      42.487  -9.271  11.800  1.00  0.00     0.033 A 
HETATM   14  C   UNL     1      41.316  -9.843  12.312  1.00  0.00     0.019 A 
HETATM   15  C   UNL     1      40.903  -9.556  13.619  1.00  0.00     0.030 A 
HETATM   16  C   UNL     1      41.643  -8.688  14.425  1.00  0.00     0.034 A 
HETATM   17  C   UNL     1      42.798  -8.096  13.899  1.00  0.00     0.030 A 
HETATM   18  C   UNL     1      43.217  -8.382  12.594  1.00  0.00     0.019 A 
BRANCH  16  19
HETATM   19  N   UNL     1      41.292  -8.356  15.750  1.00  0.00    -0.328 N 
HETATM   20  C   UNL     1      40.511  -7.295  16.172  1.00  0.00     0.218 C 
HETATM   21  C   UNL     1      40.358  -7.259  17.672  1.00  0.00     0.117 C 
HETATM   22  O   UNL     1      39.951  -6.467  15.464  1.00  0.00    -0.274 OA
HETATM   23  H   UNL     1      41.635  -8.981  16.470  1.00  0.00     0.169 HD
ENDBRANCH  16  19
ENDBRANCH  10  13
ENDBRANCH   8   9
ENDBRANCH   4   7
BRANCH   2  24
HETATM   24  C   UNL     1      42.891 -13.238   3.624  1.00  0.00     0.276 C 
BRANCH  24  25
HETATM   25  N   UNL     1      42.028 -13.750   2.484  1.00  0.00    -0.066 N 
HETATM   26  H   UNL     1      42.080 -12.940   1.845  1.00  0.00     0.280 HD
HETATM   27  C   UNL     1      42.646 -14.905   1.726  1.00  0.00     0.246 C 
HETATM   28  C   UNL     1      42.193 -16.287   2.241  1.00  0.00     0.062 C 
HETATM   29  C   UNL     1      40.670 -16.365   2.214  1.00  0.00     0.020 C 
HETATM   30  C   UNL     1      42.717 -16.582   3.633  1.00  0.00     0.020 A 
HETATM   31  C   UNL     1      40.144 -15.328   3.195  1.00  0.00     0.031 C 
HETATM   32  C   UNL     1      40.589 -15.698   4.610  1.00  0.00     0.138 C 
HETATM   33  C   UNL     1      40.556 -13.913   2.772  1.00  0.00     0.241 C 
HETATM   34  N   UNL     1      41.949 -16.217   4.742  1.00  0.00    -0.317 N 
HETATM   35  C   UNL     1      42.382 -16.441   6.059  1.00  0.00     0.247 A 
HETATM   36  O   UNL     1      41.739 -16.120   7.054  1.00  0.00    -0.268 OA
HETATM   37  C   UNL     1      43.710 -17.079   6.218  1.00  0.00     0.074 A 
HETATM   38  C   UNL     1      44.419 -17.425   5.138  1.00  0.00     0.007 A 
HETATM   39  C   UNL     1      43.910 -17.176   3.814  1.00  0.00     0.026 A 
ENDBRANCH  24  25
ENDBRANCH   2  24
BRANCH   1  40
HETATM   40  O   UNL     1      42.281 -11.143   1.911  1.00  0.00    -0.351 OA
BRANCH  40  41
HETATM   41  C   UNL     1      41.198 -10.699   1.083  1.00  0.00     0.171 C 
HETATM   42  C   UNL     1      41.790  -9.889  -0.056  1.00  0.00     0.034 C 
ENDBRANCH  40  41
ENDBRANCH   1  40
TORSDOF 8
ENDMDL
MODEL 4
REMARK VINA RESULT:      -8.2      4.332     10.246
REMARK  8 active torsions:
REMARK  status: ('A' for Active; 'I' for Inactive)
REMARK    1  A    between atoms: C_2  and  O_3 
REMARK    2  A    between atoms: O_3  and  C_4 
REMARK    3  A    between atoms: C_5  and  C_6 
REMARK    4  A    between atoms: C_6  and  N_7 
REMARK    5  A    between atoms: C_23  and  C_24 
REMARK    6  A    between atoms: N_25  and  N_26 
REMARK       I    between atoms: N_26  and  C_27 
REMARK    7  A    between atoms: C_27  and  C_28 
REMARK    8  A    between atoms: C_31  and  N_32 
REMARK       I    between atoms: N_32  and  C_33 
ROOT
HETATM    1  C   UNL     1      42.723 -11.951   6.365  1.00  0.00     0.076 A 
HETATM    2  C   UNL     1      42.818 -12.885   5.318  1.00  0.00     0.002 A 
HETATM    3  C   UNL     1      41.963 -12.774   4.212  1.00  0.00     0.024 A 
HETATM    4  C   UNL     1      41.027 -11.739   4.140  1.00  0.00    -0.016 A 
HETATM    5  C   UNL     1      40.917 -10.827   5.187  1.00  0.00     0.016 A 
HETATM    6  C   UNL     1      41.764 -10.934   6.299  1.00  0.00     0.038 A 
ENDROOT
BRANCH   4   7
HETATM    7  C   UNL     1      40.187 -11.588   2.932  1.00  0.00     0.150 C 
HETATM    8  N   UNL     1      39.931 -12.623   2.199  1.00  0.00    -0.184 NA
BRANCH   8   9
HETATM    9  N   UNL     1      39.152 -12.493   1.084  1.00  0.00    -0.243 N 
HETATM   10  C   UNL     1      39.580 -12.485  -0.237  1.00  0.00     0.271 C 
HETATM   11  O   UNL     1      40.737 -12.614  -0.624  1.00  0.00    -0.266 OA
HETATM   12  H   UNL     1      38.236 -12.105   1.289  1.00  0.00     0.192 HD
BRANCH  10  13
HETATM   13  C   UNL     1      38.501 -12.242  -1.239  1.00  0.00     0.033 A 
HETATM   14  C   UNL     1      37.856 -13.292  -1.903  1.00  0.00     0.019 A 
HETATM   15  C   UNL     1      36.834 -13.025  -2.822  1.00  0.00     0.030 A 
HETATM   16  C   UNL     1      36.450 -11.711  -3.099  1.00  0.00     0.034 A 
HETATM   17  C   UNL     1      37.116 -10.663  -2.453  1.00  0.00     0.030 A 
HETATM   18  C   UNL     1      38.137 -10.924  -1.531  1.00  0.00     0.019 A 
BRANCH  16  19
HETATM   19  N   UNL     1      35.427 -11.367  -4.006  1.00  0.00    -0.328 N 
HETATM   20  C   UNL     1      34.202 -10.794  -3.713  1.00  0.00     0.218 C 
HETATM   21  C   UNL     1      33.363 -10.575  -4.947  1.00  0.00     0.117 C 
HETATM   22  O   UNL     1      33.796 -10.449  -2.609  1.00  0.00    -0.274 OA
HETATM   23  H   UNL     1      35.624 -11.539  -4.984  1.00  0.00     0.169 HD
ENDBRANCH  16  19
ENDBRANCH  10  13
ENDBRANCH   8   9
ENDBRANCH   4   7
BRANCH   2  24
HETATM   24  C   UNL     1      43.837 -13.993   5.343  1.00  0.00     0.276 C 
BRANCH  24  25
HETATM   25  N   UNL     1      43.746 -14.887   6.566  1.00  0.00    -0.066 N 
HETATM   26  H   UNL     1      44.091 -14.235   7.289  1.00  0.00     0.280 HD
HETATM   27  C   UNL     1      42.326 -15.223   6.970  1.00  0.00     0.246 C 
HETATM   28  C   UNL     1      41.820 -16.554   6.376  1.00  0.00     0.062 C 
HETATM   29  C   UNL     1      42.779 -17.677   6.759  1.00  0.00     0.020 C 
HETATM   30  C   UNL     1      41.652 -16.486   4.870  1.00  0.00     0.020 A 
HETATM   31  C   UNL     1      44.118 -17.376   6.103  1.00  0.00     0.031 C 
HETATM   32  C   UNL     1      43.958 -17.418   4.583  1.00  0.00     0.138 C 
HETATM   33  C   UNL     1      44.699 -16.056   6.622  1.00  0.00     0.241 C 
HETATM   34  N   UNL     1      42.726 -16.839   4.048  1.00  0.00    -0.317 N 
HETATM   35  C   UNL     1      42.647 -16.780   2.648  1.00  0.00     0.247 A 
HETATM   36  O   UNL     1      43.576 -17.069   1.898  1.00  0.00    -0.268 OA
HETATM   37  C   UNL     1      41.362 -16.310   2.078  1.00  0.00     0.074 A 
HETATM   38  C   UNL     1      40.350 -15.988   2.889  1.00  0.00     0.007 A 
HETATM   39  C   UNL     1      40.494 -16.082   4.319  1.00  0.00     0.026 A 
ENDBRANCH  24  25
ENDBRANCH   2  24
BRANCH   1  40
HETATM   40  O   UNL     1      43.645 -12.108   7.369  1.00  0.00    -0.351 OA
BRANCH  40  41
HETATM   41  C   UNL     1      44.503 -10.991   7.633  1.00  0.00     0.171 C 
HETATM   42  C   UNL     1      45.790 -11.205   6.858  1.00  0.00     0.034 C 
ENDBRANCH  40  41
ENDBRANCH   1  40
TORSDOF 8
ENDMDL
MODEL 5
REMARK VINA RESULT:      -8.1      2.834     10.773
REMARK  8 active torsions:
REMARK  status: ('A' for Active; 'I' for Inactive)
REMARK    1  A    between atoms: C_2  and  O_3 
REMARK    2  A    between atoms: O_3  and  C_4 
REMARK    3  A    between atoms: C_5  and  C_6 
REMARK    4  A    between atoms: C_6  and  N_7 
REMARK    5  A    between atoms: C_23  and  C_24 
REMARK    6  A    between atoms: N_25  and  N_26 
REMARK       I    between atoms: N_26  and  C_27 
REMARK    7  A    between atoms: C_27  and  C_28 
REMARK    8  A    between atoms: C_31  and  N_32 
REMARK       I    between atoms: N_32  and  C_33 
ROOT
HETATM    1  C   UNL     1      39.531  -7.649   8.419  1.00  0.00     0.076 A 
HETATM    2  C   UNL     1      39.571  -8.894   9.071  1.00  0.00     0.002 A 
HETATM    3  C   UNL     1      39.797 -10.058   8.323  1.00  0.00     0.024 A 
HETATM    4  C   UNL     1      39.993  -9.988   6.942  1.00  0.00    -0.016 A 
HETATM    5  C   UNL     1      39.931  -8.757   6.293  1.00  0.00     0.016 A 
HETATM    6  C   UNL     1      39.699  -7.589   7.031  1.00  0.00     0.038 A 
ENDROOT
BRANCH   4   7
HETATM    7  C   UNL     1      40.309 -11.215   6.179  1.00  0.00     0.150 C 
HETATM    8  N   UNL     1      41.542 -11.502   5.914  1.00  0.00    -0.184 NA
BRANCH   8   9
HETATM    9  N   UNL     1      41.843 -12.637   5.214  1.00  0.00    -0.243 N 
HETATM   10  C   UNL     1      42.318 -12.713   3.911  1.00  0.00     0.271 C 
HETATM   11  O   UNL     1      42.567 -11.764   3.176  1.00  0.00    -0.266 OA
HETATM   12  H   UNL     1      41.417 -13.468   5.614  1.00  0.00     0.192 HD
BRANCH  10  13
HETATM   13  C   UNL     1      42.475 -14.101   3.387  1.00  0.00     0.033 A 
HETATM   14  C   UNL     1      43.261 -14.384   2.263  1.00  0.00     0.019 A 
HETATM   15  C   UNL     1      43.401 -15.702   1.813  1.00  0.00     0.030 A 
HETATM   16  C   UNL     1      42.751 -16.751   2.467  1.00  0.00     0.034 A 
HETATM   17  C   UNL     1      41.944 -16.460   3.574  1.00  0.00     0.030 A 
HETATM   18  C   UNL     1      41.803 -15.144   4.030  1.00  0.00     0.019 A 
BRANCH  16  19
HETATM   19  N   UNL     1      42.849 -18.102   2.075  1.00  0.00    -0.328 N 
HETATM   20  C   UNL     1      43.681 -19.072   2.604  1.00  0.00     0.218 C 
HETATM   21  C   UNL     1      43.509 -20.407   1.923  1.00  0.00     0.117 C 
HETATM   22  O   UNL     1      44.463 -18.941   3.539  1.00  0.00    -0.274 OA
HETATM   23  H   UNL     1      42.222 -18.397   1.336  1.00  0.00     0.169 HD
ENDBRANCH  16  19
ENDBRANCH  10  13
ENDBRANCH   8   9
ENDBRANCH   4   7
BRANCH   2  24
HETATM   24  C   UNL     1      39.400  -9.007  10.562  1.00  0.00     0.276 C 
BRANCH  24  25
HETATM   25  N   UNL     1      40.389  -9.948  11.227  1.00  0.00    -0.066 N 
HETATM   26  H   UNL     1      40.169 -10.822  10.722  1.00  0.00     0.280 HD
HETATM   27  C   UNL     1      41.834  -9.642  10.897  1.00  0.00     0.246 C 
HETATM   28  C   UNL     1      42.519  -8.730  11.935  1.00  0.00     0.062 C 
HETATM   29  C   UNL     1      42.394  -9.355  13.321  1.00  0.00     0.020 C 
HETATM   30  C   UNL     1      41.950  -7.324  11.930  1.00  0.00     0.020 A 
HETATM   31  C   UNL     1      40.914  -9.395  13.669  1.00  0.00     0.031 C 
HETATM   32  C   UNL     1      40.378  -7.967  13.769  1.00  0.00     0.138 C 
HETATM   33  C   UNL     1      40.140 -10.273  12.679  1.00  0.00     0.241 C 
HETATM   34  N   UNL     1      40.876  -7.021  12.772  1.00  0.00    -0.317 N 
HETATM   35  C   UNL     1      40.287  -5.747  12.804  1.00  0.00     0.247 A 
HETATM   36  O   UNL     1      39.335  -5.452  13.521  1.00  0.00    -0.268 OA
HETATM   37  C   UNL     1      40.857  -4.732  11.886  1.00  0.00     0.074 A 
HETATM   38  C   UNL     1      41.890  -5.049  11.099  1.00  0.00     0.007 A 
HETATM   39  C   UNL     1      42.455  -6.374  11.123  1.00  0.00     0.026 A 
ENDBRANCH  24  25
ENDBRANCH   2  24
BRANCH   1  40
HETATM   40  O   UNL     1      39.367  -6.565   9.247  1.00  0.00    -0.351 OA
BRANCH  40  41
HETATM   41  C   UNL     1      38.429  -5.569   8.821  1.00  0.00     0.171 C 
HETATM   42  C   UNL     1      39.192  -4.272   8.622  1.00  0.00     0.034 C 
ENDBRANCH  40  41
ENDBRANCH   1  40
TORSDOF 8
ENDMDL
MODEL 6
REMARK VINA RESULT:      -7.9      4.976     10.897
REMARK  8 active torsions:
REMARK  status: ('A' for Active; 'I' for Inactive)
REMARK    1  A    between atoms: C_2  and  O_3 
REMARK    2  A    between atoms: O_3  and  C_4 
REMARK    3  A    between atoms: C_5  and  C_6 
REMARK    4  A    between atoms: C_6  and  N_7 
REMARK    5  A    between atoms: C_23  and  C_24 
REMARK    6  A    between atoms: N_25  and  N_26 
REMARK       I    between atoms: N_26  and  C_27 
REMARK    7  A    between atoms: C_27  and  C_28 
REMARK    8  A    between atoms: C_31  and  N_32 
REMARK       I    between atoms: N_32  and  C_33 
ROOT
HETATM    1  C   UNL     1      41.634 -11.716   4.451  1.00  0.00     0.076 A 
HETATM    2  C   UNL     1      42.191 -12.219   3.262  1.00  0.00     0.002 A 
HETATM    3  C   UNL     1      42.041 -11.497   2.070  1.00  0.00     0.024 A 
HETATM    4  C   UNL     1      41.354 -10.281   2.057  1.00  0.00    -0.016 A 
HETATM    5  C   UNL     1      40.783  -9.793   3.230  1.00  0.00     0.016 A 
HETATM    6  C   UNL     1      40.922 -10.511   4.426  1.00  0.00     0.038 A 
ENDROOT
BRANCH   4   7
HETATM    7  C   UNL     1      41.274  -9.493   0.808  1.00  0.00     0.150 C 
HETATM    8  N   UNL     1      42.143  -9.691  -0.129  1.00  0.00    -0.184 NA
BRANCH   8   9
HETATM    9  N   UNL     1      42.072  -8.971  -1.288  1.00  0.00    -0.243 N 
HETATM   10  C   UNL     1      41.355  -9.297  -2.432  1.00  0.00     0.271 C 
HETATM   11  O   UNL     1      40.643 -10.285  -2.583  1.00  0.00    -0.266 OA
HETATM   12  H   UNL     1      42.828  -8.297  -1.377  1.00  0.00     0.192 HD
BRANCH  10  13
HETATM   13  C   UNL     1      41.539  -8.353  -3.572  1.00  0.00     0.033 A 
HETATM   14  C   UNL     1      40.653  -8.317  -4.656  1.00  0.00     0.019 A 
HETATM   15  C   UNL     1      40.849  -7.402  -5.698  1.00  0.00     0.030 A 
HETATM   16  C   UNL     1      41.934  -6.523  -5.680  1.00  0.00     0.034 A 
HETATM   17  C   UNL     1      42.833  -6.582  -4.608  1.00  0.00     0.030 A 
HETATM   18  C   UNL     1      42.641  -7.492  -3.563  1.00  0.00     0.019 A 
BRANCH  16  19
HETATM   19  N   UNL     1      42.191  -5.573  -6.690  1.00  0.00    -0.328 N 
HETATM   20  C   UNL     1      43.077  -5.689  -7.746  1.00  0.00     0.218 C 
HETATM   21  C   UNL     1      43.084  -4.462  -8.623  1.00  0.00     0.117 C 
HETATM   22  O   UNL     1      43.777  -6.658  -8.016  1.00  0.00    -0.274 OA
HETATM   23  H   UNL     1      41.647  -4.720  -6.646  1.00  0.00     0.169 HD
ENDBRANCH  16  19
ENDBRANCH  10  13
ENDBRANCH   8   9
ENDBRANCH   4   7
BRANCH   2  24
HETATM   24  C   UNL     1      42.969 -13.507   3.242  1.00  0.00     0.276 C 
BRANCH  24  25
HETATM   25  N   UNL     1      42.606 -14.430   2.092  1.00  0.00    -0.066 N 
HETATM   26  H   UNL     1      42.807 -13.806   1.294  1.00  0.00     0.280 HD
HETATM   27  C   UNL     1      43.547 -15.605   1.934  1.00  0.00     0.246 C 
HETATM   28  C   UNL     1      43.064 -16.876   2.663  1.00  0.00     0.062 C 
HETATM   29  C   UNL     1      41.660 -17.232   2.187  1.00  0.00     0.020 C 
HETATM   30  C   UNL     1      43.094 -16.722   4.171  1.00  0.00     0.020 A 
HETATM   31  C   UNL     1      40.737 -16.098   2.609  1.00  0.00     0.031 C 
HETATM   32  C   UNL     1      40.690 -16.023   4.135  1.00  0.00     0.138 C 
HETATM   33  C   UNL     1      41.145 -14.780   1.942  1.00  0.00     0.241 C 
HETATM   34  N   UNL     1      41.959 -16.240   4.829  1.00  0.00    -0.317 N 
HETATM   35  C   UNL     1      41.923 -16.053   6.220  1.00  0.00     0.247 A 
HETATM   36  O   UNL     1      40.947 -15.619   6.826  1.00  0.00    -0.268 OA
HETATM   37  C   UNL     1      43.162 -16.383   6.963  1.00  0.00     0.074 A 
HETATM   38  C   UNL     1      44.229 -16.849   6.308  1.00  0.00     0.007 A 
HETATM   39  C   UNL     1      44.196 -17.028   4.879  1.00  0.00     0.026 A 
ENDBRANCH  24  25
ENDBRANCH   2  24
BRANCH   1  40
HETATM   40  O   UNL     1      41.889 -12.463   5.574  1.00  0.00    -0.351 OA
BRANCH  40  41
HETATM   41  C   UNL     1      42.756 -11.875   6.553  1.00  0.00     0.171 C 
HETATM   42  C   UNL     1      43.941 -12.806   6.739  1.00  0.00     0.034 C 
ENDBRANCH  40  41
ENDBRANCH   1  40
TORSDOF 8
ENDMDL
MODEL 7
REMARK VINA RESULT:      -7.7     19.316     21.733
REMARK  8 active torsions:
REMARK  status: ('A' for Active; 'I' for Inactive)
REMARK    1  A    between atoms: C_2  and  O_3 
REMARK    2  A    between atoms: O_3  and  C_4 
REMARK    3  A    between atoms: C_5  and  C_6 
REMARK    4  A    between atoms: C_6  and  N_7 
REMARK    5  A    between atoms: C_23  and  C_24 
REMARK    6  A    between atoms: N_25  and  N_26 
REMARK       I    between atoms: N_26  and  C_27 
REMARK    7  A    between atoms: C_27  and  C_28 
REMARK    8  A    between atoms: C_31  and  N_32 
REMARK       I    between atoms: N_32  and  C_33 
ROOT
HETATM    1  C   UNL     1      43.940 -29.980   1.567  1.00  0.00     0.076 A 
HETATM    2  C   UNL     1      44.893 -30.480   0.662  1.00  0.00     0.002 A 
HETATM    3  C   UNL     1      46.199 -30.732   1.105  1.00  0.00     0.024 A 
HETATM    4  C   UNL     1      46.556 -30.500   2.435  1.00  0.00    -0.016 A 
HETATM    5  C   UNL     1      45.619 -29.983   3.326  1.00  0.00     0.016 A 
HETATM    6  C   UNL     1      44.312 -29.722   2.892  1.00  0.00     0.038 A 
ENDROOT
BRANCH   4   7
HETATM    7  C   UNL     1      47.916 -30.846   2.904  1.00  0.00     0.150 C 
HETATM    8  N   UNL     1      48.140 -30.977   4.171  1.00  0.00    -0.184 NA
BRANCH   8   9
HETATM    9  N   UNL     1      49.392 -31.300   4.613  1.00  0.00    -0.243 N 
HETATM   10  C   UNL     1      49.866 -32.568   4.922  1.00  0.00     0.271 C 
HETATM   11  O   UNL     1      49.239 -33.618   4.828  1.00  0.00    -0.266 OA
HETATM   12  H   UNL     1      49.894 -30.501   4.988  1.00  0.00     0.192 HD
BRANCH  10  13
HETATM   13  C   UNL     1      51.257 -32.598   5.461  1.00  0.00     0.033 A 
HETATM   14  C   UNL     1      52.046 -33.754   5.416  1.00  0.00     0.019 A 
HETATM   15  C   UNL     1      53.354 -33.736   5.915  1.00  0.00     0.030 A 
HETATM   16  C   UNL     1      53.888 -32.573   6.473  1.00  0.00     0.034 A 
HETATM   17  C   UNL     1      53.087 -31.427   6.540  1.00  0.00     0.030 A 
HETATM   18  C   UNL     1      51.779 -31.438   6.041  1.00  0.00     0.019 A 
BRANCH  16  19
HETATM   19  N   UNL     1      55.197 -32.479   6.988  1.00  0.00    -0.328 N 
HETATM   20  C   UNL     1      56.277 -31.822   6.425  1.00  0.00     0.218 C 
HETATM   21  C   UNL     1      57.523 -31.944   7.266  1.00  0.00     0.117 C 
HETATM   22  O   UNL     1      56.282 -31.170   5.387  1.00  0.00    -0.274 OA
HETATM   23  H   UNL     1      55.356 -32.925   7.883  1.00  0.00     0.169 HD
ENDBRANCH  16  19
ENDBRANCH  10  13
ENDBRANCH   8   9
ENDBRANCH   4   7
BRANCH   2  24
HETATM   24  C   UNL     1      44.537 -30.777  -0.770  1.00  0.00     0.276 C 
BRANCH  24  25
HETATM   25  N   UNL     1      44.024 -29.573  -1.540  1.00  0.00    -0.066 N 
HETATM   26  H   UNL     1      43.107 -29.447  -1.081  1.00  0.00     0.280 HD
HETATM   27  C   UNL     1      44.793 -28.300  -1.261  1.00  0.00     0.246 C 
HETATM   28  C   UNL     1      45.929 -28.038  -2.272  1.00  0.00     0.062 C 
HETATM   29  C   UNL     1      45.359 -28.035  -3.686  1.00  0.00     0.020 C 
HETATM   30  C   UNL     1      47.052 -29.050  -2.151  1.00  0.00     0.020 A 
HETATM   31  C   UNL     1      44.827 -29.433  -3.965  1.00  0.00     0.031 C 
HETATM   32  C   UNL     1      45.987 -30.429  -3.948  1.00  0.00     0.138 C 
HETATM   33  C   UNL     1      43.695 -29.793  -2.996  1.00  0.00     0.241 C 
HETATM   34  N   UNL     1      47.003 -30.217  -2.919  1.00  0.00    -0.317 N 
HETATM   35  C   UNL     1      47.997 -31.205  -2.842  1.00  0.00     0.247 A 
HETATM   36  O   UNL     1      47.976 -32.247  -3.491  1.00  0.00    -0.268 OA
HETATM   37  C   UNL     1      49.105 -30.955  -1.890  1.00  0.00     0.074 A 
HETATM   38  C   UNL     1      49.130 -29.826  -1.175  1.00  0.00     0.007 A 
HETATM   39  C   UNL     1      48.082 -28.847  -1.311  1.00  0.00     0.026 A 
ENDBRANCH  24  25
ENDBRANCH   2  24
BRANCH   1  40
HETATM   40  O   UNL     1      42.676 -29.827   1.054  1.00  0.00    -0.351 OA
BRANCH  40  41
HETATM   41  C   UNL     1      41.598 -30.362   1.834  1.00  0.00     0.171 C 
HETATM   42  C   UNL     1      41.439 -31.824   1.459  1.00  0.00     0.034 C 
ENDBRANCH  40  41
ENDBRANCH   1  40
TORSDOF 8
ENDMDL
MODEL 8
REMARK VINA RESULT:      -7.6     19.174     21.685
REMARK  8 active torsions:
REMARK  status: ('A' for Active; 'I' for Inactive)
REMARK    1  A    between atoms: C_2  and  O_3 
REMARK    2  A    between atoms: O_3  and  C_4 
REMARK    3  A    between atoms: C_5  and  C_6 
REMARK    4  A    between atoms: C_6  and  N_7 
REMARK    5  A    between atoms: C_23  and  C_24 
REMARK    6  A    between atoms: N_25  and  N_26 
REMARK       I    between atoms: N_26  and  C_27 
REMARK    7  A    between atoms: C_27  and  C_28 
REMARK    8  A    between atoms: C_31  and  N_32 
REMARK       I    between atoms: N_32  and  C_33 
ROOT
HETATM    1  C   UNL     1      44.687 -29.381   0.329  1.00  0.00     0.076 A 
HETATM    2  C   UNL     1      45.110 -30.384   1.220  1.00  0.00     0.002 A 
HETATM    3  C   UNL     1      44.175 -30.991   2.071  1.00  0.00     0.024 A 
HETATM    4  C   UNL     1      42.831 -30.615   2.033  1.00  0.00    -0.016 A 
HETATM    5  C   UNL     1      42.415 -29.606   1.168  1.00  0.00     0.016 A 
HETATM    6  C   UNL     1      43.343 -28.989   0.317  1.00  0.00     0.038 A 
ENDROOT
BRANCH   4   7
HETATM    7  C   UNL     1      41.845 -31.319   2.881  1.00  0.00     0.150 C 
HETATM    8  N   UNL     1      40.640 -31.499   2.445  1.00  0.00    -0.184 NA
BRANCH   8   9
HETATM    9  N   UNL     1      39.724 -32.153   3.220  1.00  0.00    -0.243 N 
HETATM   10  C   UNL     1      39.626 -33.524   3.419  1.00  0.00     0.271 C 
HETATM   11  O   UNL     1      40.366 -34.379   2.943  1.00  0.00    -0.266 OA
HETATM   12  H   UNL     1      38.910 -31.583   3.429  1.00  0.00     0.192 HD
BRANCH  10  13
HETATM   13  C   UNL     1      38.467 -33.949   4.257  1.00  0.00     0.033 A 
HETATM   14  C   UNL     1      37.277 -33.214   4.304  1.00  0.00     0.019 A 
HETATM   15  C   UNL     1      36.203 -33.656   5.086  1.00  0.00     0.030 A 
HETATM   16  C   UNL     1      36.306 -34.827   5.839  1.00  0.00     0.034 A 
HETATM   17  C   UNL     1      37.508 -35.545   5.811  1.00  0.00     0.030 A 
HETATM   18  C   UNL     1      38.583 -35.109   5.029  1.00  0.00     0.019 A 
BRANCH  16  19
HETATM   19  N   UNL     1      35.267 -35.337   6.645  1.00  0.00    -0.328 N 
HETATM   20  C   UNL     1      35.033 -35.071   7.983  1.00  0.00     0.218 C 
HETATM   21  C   UNL     1      33.825 -35.804   8.509  1.00  0.00     0.117 C 
HETATM   22  O   UNL     1      35.671 -34.313   8.704  1.00  0.00    -0.274 OA
HETATM   23  H   UNL     1      34.605 -35.949   6.183  1.00  0.00     0.169 HD
ENDBRANCH  16  19
ENDBRANCH  10  13
ENDBRANCH   8   9
ENDBRANCH   4   7
BRANCH   2  24
HETATM   24  C   UNL     1      46.543 -30.842   1.265  1.00  0.00     0.276 C 
BRANCH  24  25
HETATM   25  N   UNL     1      47.548 -29.711   1.396  1.00  0.00    -0.066 N 
HETATM   26  H   UNL     1      47.230 -29.101   0.626  1.00  0.00     0.280 HD
HETATM   27  C   UNL     1      47.379 -28.892   2.658  1.00  0.00     0.246 C 
HETATM   28  C   UNL     1      48.272 -29.369   3.821  1.00  0.00     0.062 C 
HETATM   29  C   UNL     1      49.729 -29.386   3.370  1.00  0.00     0.020 C 
HETATM   30  C   UNL     1      47.859 -30.733   4.342  1.00  0.00     0.020 A 
HETATM   31  C   UNL     1      49.849 -30.420   2.261  1.00  0.00     0.031 C 
HETATM   32  C   UNL     1      49.536 -31.807   2.824  1.00  0.00     0.138 C 
HETATM   33  C   UNL     1      48.981 -30.038   1.056  1.00  0.00     0.241 C 
HETATM   34  N   UNL     1      48.436 -31.878   3.785  1.00  0.00    -0.317 N 
HETATM   35  C   UNL     1      48.086 -33.171   4.204  1.00  0.00     0.247 A 
HETATM   36  O   UNL     1      48.563 -34.197   3.726  1.00  0.00    -0.268 OA
HETATM   37  C   UNL     1      47.057 -33.265   5.267  1.00  0.00     0.074 A 
HETATM   38  C   UNL     1      46.529 -32.153   5.785  1.00  0.00     0.007 A 
HETATM   39  C   UNL     1      46.941 -30.855   5.317  1.00  0.00     0.026 A 
ENDBRANCH  24  25
ENDBRANCH   2  24
BRANCH   1  40
HETATM   40  O   UNL     1      45.663 -28.895  -0.505  1.00  0.00    -0.351 OA
BRANCH  40  41
HETATM   41  C   UNL     1      45.303 -27.781  -1.332  1.00  0.00     0.171 C 
HETATM   42  C   UNL     1      45.364 -28.240  -2.777  1.00  0.00     0.034 C 
ENDBRANCH  40  41
ENDBRANCH   1  40
TORSDOF 8
ENDMDL
MODEL 9
REMARK VINA RESULT:      -7.5     19.304     20.324
REMARK  8 active torsions:
REMARK  status: ('A' for Active; 'I' for Inactive)
REMARK    1  A    between atoms: C_2  and  O_3 
REMARK    2  A    between atoms: O_3  and  C_4 
REMARK    3  A    between atoms: C_5  and  C_6 
REMARK    4  A    between atoms: C_6  and  N_7 
REMARK    5  A    between atoms: C_23  and  C_24 
REMARK    6  A    between atoms: N_25  and  N_26 
REMARK       I    between atoms: N_26  and  C_27 
REMARK    7  A    between atoms: C_27  and  C_28 
REMARK    8  A    between atoms: C_31  and  N_32 
REMARK       I    between atoms: N_32  and  C_33 
ROOT
HETATM    1  C   UNL     1      45.335 -28.722  -1.094  1.00  0.00     0.076 A 
HETATM    2  C   UNL     1      46.214 -28.921  -0.014  1.00  0.00     0.002 A 
HETATM    3  C   UNL     1      45.696 -29.245   1.247  1.00  0.00     0.024 A 
HETATM    4  C   UNL     1      44.318 -29.381   1.436  1.00  0.00    -0.016 A 
HETATM    5  C   UNL     1      43.446 -29.161   0.373  1.00  0.00     0.016 A 
HETATM    6  C   UNL     1      43.955 -28.831  -0.891  1.00  0.00     0.038 A 
ENDROOT
BRANCH   4   7
HETATM    7  C   UNL     1      43.793 -29.801   2.754  1.00  0.00     0.150 C 
HETATM    8  N   UNL     1      43.467 -31.038   2.946  1.00  0.00    -0.184 NA
BRANCH   8   9
HETATM    9  N   UNL     1      42.986 -31.435   4.162  1.00  0.00    -0.243 N 
HETATM   10  C   UNL     1      41.718 -31.194   4.677  1.00  0.00     0.271 C 
HETATM   11  O   UNL     1      40.808 -30.599   4.110  1.00  0.00    -0.266 OA
HETATM   12  H   UNL     1      43.724 -31.682   4.814  1.00  0.00     0.192 HD
BRANCH  10  13
HETATM   13  C   UNL     1      41.511 -31.682   6.071  1.00  0.00     0.033 A 
HETATM   14  C   UNL     1      42.574 -31.831   6.971  1.00  0.00     0.019 A 
HETATM   15  C   UNL     1      42.336 -32.273   8.278  1.00  0.00     0.030 A 
HETATM   16  C   UNL     1      41.042 -32.583   8.701  1.00  0.00     0.034 A 
HETATM   17  C   UNL     1      39.986 -32.459   7.790  1.00  0.00     0.030 A 
HETATM   18  C   UNL     1      40.216 -32.015   6.483  1.00  0.00     0.019 A 
BRANCH  16  19
HETATM   19  N   UNL     1      40.726 -33.027  10.002  1.00  0.00    -0.328 N 
HETATM   20  C   UNL     1      41.223 -32.541  11.199  1.00  0.00     0.218 C 
HETATM   21  C   UNL     1      40.656 -33.272  12.391  1.00  0.00     0.117 C 
HETATM   22  O   UNL     1      42.004 -31.609  11.347  1.00  0.00    -0.274 OA
HETATM   23  H   UNL     1      40.042 -33.771  10.064  1.00  0.00     0.169 HD
ENDBRANCH  16  19
ENDBRANCH  10  13
ENDBRANCH   8   9
ENDBRANCH   4   7
BRANCH   2  24
HETATM   24  C   UNL     1      47.706 -28.819  -0.186  1.00  0.00     0.276 C 
BRANCH  24  25
HETATM   25  N   UNL     1      48.293 -29.869  -1.113  1.00  0.00    -0.066 N 
HETATM   26  H   UNL     1      48.128 -29.412  -2.025  1.00  0.00     0.280 HD
HETATM   27  C   UNL     1      49.796 -30.009  -0.997  1.00  0.00     0.246 C 
HETATM   28  C   UNL     1      50.233 -31.117  -0.016  1.00  0.00     0.062 C 
HETATM   29  C   UNL     1      49.589 -32.438  -0.424  1.00  0.00     0.020 C 
HETATM   30  C   UNL     1      49.893 -30.779   1.423  1.00  0.00     0.020 A 
HETATM   31  C   UNL     1      48.084 -32.276  -0.273  1.00  0.00     0.031 C 
HETATM   32  C   UNL     1      47.744 -32.044   1.200  1.00  0.00     0.138 C 
HETATM   33  C   UNL     1      47.553 -31.181  -1.204  1.00  0.00     0.241 C 
HETATM   34  N   UNL     1      48.659 -31.179   1.943  1.00  0.00    -0.317 N 
HETATM   35  C   UNL     1      48.270 -30.882   3.259  1.00  0.00     0.247 A 
HETATM   36  O   UNL     1      47.189 -31.206   3.742  1.00  0.00    -0.268 OA
HETATM   37  C   UNL     1      49.236 -30.108   4.074  1.00  0.00     0.074 A 
HETATM   38  C   UNL     1      50.412 -29.747   3.552  1.00  0.00     0.007 A 
HETATM   39  C   UNL     1      50.753 -30.093   2.196  1.00  0.00     0.026 A 
ENDBRANCH  24  25
ENDBRANCH   2  24
BRANCH   1  40
HETATM   40  O   UNL     1      45.943 -28.472  -2.299  1.00  0.00    -0.351 OA
BRANCH  40  41
HETATM   41  C   UNL     1      45.087 -28.076  -3.379  1.00  0.00     0.171 C 
HETATM   42  C   UNL     1      44.977 -29.250  -4.335  1.00  0.00     0.034 C 
ENDBRANCH  40  41
ENDBRANCH   1  40
TORSDOF 8
ENDMDL
MODEL 10
REMARK VINA RESULT:      -7.3      3.427     12.676
REMARK  8 active torsions:
REMARK  status: ('A' for Active; 'I' for Inactive)
REMARK    1  A    between atoms: C_2  and  O_3 
REMARK    2  A    between atoms: O_3  and  C_4 
REMARK    3  A    between atoms: C_5  and  C_6 
REMARK    4  A    between atoms: C_6  and  N_7 
REMARK    5  A    between atoms: C_23  and  C_24 
REMARK    6  A    between atoms: N_25  and  N_26 
REMARK       I    between atoms: N_26  and  C_27 
REMARK    7  A    between atoms: C_27  and  C_28 
REMARK    8  A    between atoms: C_31  and  N_32 
REMARK       I    between atoms: N_32  and  C_33 
ROOT
HETATM    1  C   UNL     1      42.010  -6.961  13.900  1.00  0.00     0.076 A 
HETATM    2  C   UNL     1      40.838  -7.207  13.163  1.00  0.00     0.002 A 
HETATM    3  C   UNL     1      40.881  -8.083  12.069  1.00  0.00     0.024 A 
HETATM    4  C   UNL     1      42.073  -8.719  11.715  1.00  0.00    -0.016 A 
HETATM    5  C   UNL     1      43.239  -8.459  12.431  1.00  0.00     0.016 A 
HETATM    6  C   UNL     1      43.207  -7.579  13.522  1.00  0.00     0.038 A 
ENDROOT
BRANCH   4   7
HETATM    7  C   UNL     1      42.084  -9.701  10.609  1.00  0.00     0.150 C 
HETATM    8  N   UNL     1      42.804  -9.472   9.559  1.00  0.00    -0.184 NA
BRANCH   8   9
HETATM    9  N   UNL     1      42.823 -10.376   8.534  1.00  0.00    -0.243 N 
HETATM   10  C   UNL     1      43.909 -11.125   8.102  1.00  0.00     0.271 C 
HETATM   11  O   UNL     1      45.036 -11.113   8.588  1.00  0.00    -0.266 OA
HETATM   12  H   UNL     1      42.041 -10.261   7.896  1.00  0.00     0.192 HD
BRANCH  10  13
HETATM   13  C   UNL     1      43.644 -11.971   6.902  1.00  0.00     0.033 A 
HETATM   14  C   UNL     1      43.448 -11.414   5.632  1.00  0.00     0.019 A 
HETATM   15  C   UNL     1      43.222 -12.242   4.526  1.00  0.00     0.030 A 
HETATM   16  C   UNL     1      43.176 -13.630   4.672  1.00  0.00     0.034 A 
HETATM   17  C   UNL     1      43.344 -14.181   5.948  1.00  0.00     0.030 A 
HETATM   18  C   UNL     1      43.574 -13.358   7.057  1.00  0.00     0.019 A 
BRANCH  16  19
HETATM   19  N   UNL     1      42.958 -14.525   3.604  1.00  0.00    -0.328 N 
HETATM   20  C   UNL     1      41.743 -14.994   3.135  1.00  0.00     0.218 C 
HETATM   21  C   UNL     1      41.907 -15.945   1.976  1.00  0.00     0.117 C 
HETATM   22  O   UNL     1      40.629 -14.688   3.544  1.00  0.00    -0.274 OA
HETATM   23  H   UNL     1      43.785 -14.841   3.113  1.00  0.00     0.169 HD
ENDBRANCH  16  19
ENDBRANCH  10  13
ENDBRANCH   8   9
ENDBRANCH   4   7
BRANCH   2  24
HETATM   24  C   UNL     1      39.527  -6.568  13.535  1.00  0.00     0.276 C 
BRANCH  24  25
HETATM   25  N   UNL     1      38.813  -5.902  12.371  1.00  0.00    -0.066 N 
HETATM   26  H   UNL     1      38.678  -6.720  11.755  1.00  0.00     0.280 HD
HETATM   27  C   UNL     1      37.421  -5.416  12.711  1.00  0.00     0.246 C 
HETATM   28  C   UNL     1      37.379  -3.936  13.145  1.00  0.00     0.062 C 
HETATM   29  C   UNL     1      38.012  -3.070  12.061  1.00  0.00     0.020 C 
HETATM   30  C   UNL     1      38.064  -3.708  14.479  1.00  0.00     0.020 A 
HETATM   31  C   UNL     1      39.478  -3.465  11.963  1.00  0.00     0.031 C 
HETATM   32  C   UNL     1      40.183  -3.129  13.277  1.00  0.00     0.138 C 
HETATM   33  C   UNL     1      39.625  -4.933  11.546  1.00  0.00     0.241 C 
HETATM   34  N   UNL     1      39.426  -3.395  14.500  1.00  0.00    -0.317 N 
HETATM   35  C   UNL     1      40.129  -3.191  15.698  1.00  0.00     0.247 A 
HETATM   36  O   UNL     1      41.327  -2.929  15.752  1.00  0.00    -0.268 OA
HETATM   37  C   UNL     1      39.352  -3.337  16.952  1.00  0.00     0.074 A 
HETATM   38  C   UNL     1      38.049  -3.628  16.900  1.00  0.00     0.007 A 
HETATM   39  C   UNL     1      37.386  -3.814  15.635  1.00  0.00     0.026 A 
ENDBRANCH  24  25
ENDBRANCH   2  24
BRANCH   1  40
HETATM   40  O   UNL     1      41.850  -6.139  14.988  1.00  0.00    -0.351 OA
BRANCH  40  41
HETATM   41  C   UNL     1      42.250  -6.671  16.258  1.00  0.00     0.171 C 
HETATM   42  C   UNL     1      41.142  -7.588  16.743  1.00  0.00     0.034 C 
ENDBRANCH  40  41
ENDBRANCH   1  40
TORSDOF 8
ENDMDL
