MODEL 1
REMARK VINA RESULT:      -7.6      0.000      0.000
REMARK  2 active torsions:
REMARK  status: ('A' for Active; 'I' for Inactive)
REMARK    1  A    between atoms: C_3  and  C_4 
REMARK       I    between atoms: C_4  and  N_5 
REMARK    2  A    between atoms: N_5  and  C_6 
ROOT
HETATM    1  C   UNL     1      43.945 -14.600   6.743  1.00  0.00     0.051 C 
HETATM    2  C   UNL     1      43.169 -13.872   5.672  1.00  0.00    -0.021 A 
HETATM    3  C   UNL     1      42.408 -14.696   4.715  1.00  0.00     0.061 A 
HETATM    4  C   UNL     1      41.600 -14.111   3.802  1.00  0.00     0.022 A 
HETATM    5  C   UNL     1      40.642 -14.812   2.873  1.00  0.00     0.069 C 
HETATM    6  N   UNL     1      41.586 -12.735   3.701  1.00  0.00    -0.349 N 
HETATM    7  C   UNL     1      42.293 -11.877   4.513  1.00  0.00     0.121 A 
HETATM    8  S   UNL     1      42.162 -10.237   4.186  1.00  0.00    -0.059 SA
HETATM    9  C   UNL     1      43.093 -12.522   5.607  1.00  0.00     0.075 A 
HETATM   10  C   UNL     1      43.597 -11.627   6.727  1.00  0.00     0.023 C 
HETATM   11  N   UNL     1      44.017 -10.884   7.656  1.00  0.00    -0.096 N 
HETATM   12  H   UNL     1      40.999 -12.293   2.999  1.00  0.00     0.166 HD
ENDROOT
BRANCH   3  13
HETATM   13  C   UNL     1      42.415 -16.197   4.815  1.00  0.00     0.258 C 
HETATM   14  N   UNL     1      43.382 -16.776   4.014  1.00  0.00    -0.323 N 
HETATM   15  H   UNL     1      43.963 -16.151   3.472  1.00  0.00     0.169 HD
HETATM   16  O   UNL     1      41.610 -16.761   5.544  1.00  0.00    -0.267 OA
BRANCH  14  17
HETATM   17  C   UNL     1      43.572 -18.153   3.774  1.00  0.00     0.035 A 
HETATM   18  C   UNL     1      44.048 -19.054   4.729  1.00  0.00     0.029 A 
HETATM   19  C   UNL     1      44.184 -20.410   4.419  1.00  0.00     0.002 A 
HETATM   20  C   UNL     1      43.839 -20.879   3.153  1.00  0.00     0.000 A 
HETATM   21  C   UNL     1      43.366 -19.989   2.193  1.00  0.00     0.002 A 
HETATM   22  C   UNL     1      43.241 -18.631   2.499  1.00  0.00     0.029 A 
ENDBRANCH  14  17
ENDBRANCH   3  13
TORSDOF 2
ENDMDL
MODEL 2
REMARK VINA RESULT:      -7.6      2.621      4.598
REMARK  2 active torsions:
REMARK  status: ('A' for Active; 'I' for Inactive)
REMARK    1  A    between atoms: C_3  and  C_4 
REMARK       I    between atoms: C_4  and  N_5 
REMARK    2  A    between atoms: N_5  and  C_6 
ROOT
HETATM    1  C   UNL     1      39.747 -16.310   0.825  1.00  0.00     0.051 C 
HETATM    2  C   UNL     1      40.369 -14.953   1.049  1.00  0.00    -0.021 A 
HETATM    3  C   UNL     1      41.333 -14.830   2.158  1.00  0.00     0.061 A 
HETATM    4  C   UNL     1      42.014 -13.677   2.346  1.00  0.00     0.022 A 
HETATM    5  C   UNL     1      43.141 -13.450   3.322  1.00  0.00     0.069 C 
HETATM    6  N   UNL     1      41.712 -12.583   1.561  1.00  0.00    -0.349 N 
HETATM    7  C   UNL     1      40.798 -12.579   0.532  1.00  0.00     0.121 A 
HETATM    8  S   UNL     1      40.556 -11.123  -0.266  1.00  0.00    -0.059 SA
HETATM    9  C   UNL     1      40.133 -13.892   0.242  1.00  0.00     0.075 A 
HETATM   10  C   UNL     1      39.396 -14.028  -1.080  1.00  0.00     0.023 C 
HETATM   11  N   UNL     1      38.784 -14.141  -2.176  1.00  0.00    -0.096 N 
HETATM   12  H   UNL     1      42.205 -11.707   1.716  1.00  0.00     0.166 HD
ENDROOT
BRANCH   3  13
HETATM   13  C   UNL     1      41.671 -16.015   3.020  1.00  0.00     0.258 C 
HETATM   14  N   UNL     1      42.722 -16.756   2.514  1.00  0.00    -0.323 N 
HETATM   15  H   UNL     1      43.140 -16.431   1.652  1.00  0.00     0.169 HD
HETATM   16  O   UNL     1      41.027 -16.229   4.039  1.00  0.00    -0.267 OA
BRANCH  14  17
HETATM   17  C   UNL     1      43.204 -17.990   3.001  1.00  0.00     0.035 A 
HETATM   18  C   UNL     1      43.793 -18.157   4.255  1.00  0.00     0.029 A 
HETATM   19  C   UNL     1      44.221 -19.421   4.674  1.00  0.00     0.002 A 
HETATM   20  C   UNL     1      44.058 -20.528   3.844  1.00  0.00     0.000 A 
HETATM   21  C   UNL     1      43.475 -20.371   2.591  1.00  0.00     0.002 A 
HETATM   22  C   UNL     1      43.057 -19.107   2.167  1.00  0.00     0.029 A 
ENDBRANCH  14  17
ENDBRANCH   3  13
TORSDOF 2
ENDMDL
MODEL 3
REMARK VINA RESULT:      -7.5      1.458      1.729
REMARK  2 active torsions:
REMARK  status: ('A' for Active; 'I' for Inactive)
REMARK    1  A    between atoms: C_3  and  C_4 
REMARK       I    between atoms: C_4  and  N_5 
REMARK    2  A    between atoms: N_5  and  C_6 
ROOT
HETATM    1  C   UNL     1      42.897 -13.893   5.382  1.00  0.00     0.051 C 
HETATM    2  C   UNL     1      42.382 -13.513   4.015  1.00  0.00    -0.021 A 
HETATM    3  C   UNL     1      41.930 -14.607   3.138  1.00  0.00     0.061 A 
HETATM    4  C   UNL     1      41.351 -14.332   1.946  1.00  0.00     0.022 A 
HETATM    5  C   UNL     1      40.695 -15.323   1.019  1.00  0.00     0.069 C 
HETATM    6  N   UNL     1      41.296 -13.024   1.513  1.00  0.00    -0.349 N 
HETATM    7  C   UNL     1      41.731 -11.935   2.233  1.00  0.00     0.121 A 
HETATM    8  S   UNL     1      41.606 -10.434   1.495  1.00  0.00    -0.059 SA
HETATM    9  C   UNL     1      42.258 -12.228   3.607  1.00  0.00     0.075 A 
HETATM   10  C   UNL     1      42.418 -11.055   4.561  1.00  0.00     0.023 C 
HETATM   11  N   UNL     1      42.552 -10.083   5.352  1.00  0.00    -0.096 N 
HETATM   12  H   UNL     1      40.883 -12.817   0.607  1.00  0.00     0.166 HD
ENDROOT
BRANCH   3  13
HETATM   13  C   UNL     1      41.985 -16.038   3.599  1.00  0.00     0.258 C 
HETATM   14  N   UNL     1      43.121 -16.692   3.159  1.00  0.00    -0.323 N 
HETATM   15  H   UNL     1      43.772 -16.157   2.599  1.00  0.00     0.169 HD
HETATM   16  O   UNL     1      41.076 -16.493   4.279  1.00  0.00    -0.267 OA
BRANCH  14  17
HETATM   17  C   UNL     1      43.420 -18.064   3.301  1.00  0.00     0.035 A 
HETATM   18  C   UNL     1      43.959 -18.629   4.458  1.00  0.00     0.029 A 
HETATM   19  C   UNL     1      44.202 -20.004   4.528  1.00  0.00     0.002 A 
HETATM   20  C   UNL     1      43.902 -20.826   3.444  1.00  0.00     0.000 A 
HETATM   21  C   UNL     1      43.367 -20.272   2.285  1.00  0.00     0.002 A 
HETATM   22  C   UNL     1      43.135 -18.896   2.210  1.00  0.00     0.029 A 
ENDBRANCH  14  17
ENDBRANCH   3  13
TORSDOF 2
ENDMDL
MODEL 4
REMARK VINA RESULT:      -7.5      1.232      2.750
REMARK  2 active torsions:
REMARK  status: ('A' for Active; 'I' for Inactive)
REMARK    1  A    between atoms: C_3  and  C_4 
REMARK       I    between atoms: C_4  and  N_5 
REMARK    2  A    between atoms: N_5  and  C_6 
ROOT
HETATM    1  C   UNL     1      41.787 -14.514   3.051  1.00  0.00     0.051 C 
HETATM    2  C   UNL     1      42.114 -13.956   4.415  1.00  0.00    -0.021 A 
HETATM    3  C   UNL     1      42.321 -14.926   5.507  1.00  0.00     0.061 A 
HETATM    4  C   UNL     1      42.728 -14.504   6.726  1.00  0.00     0.022 A 
HETATM    5  C   UNL     1      43.139 -15.376   7.885  1.00  0.00     0.069 C 
HETATM    6  N   UNL     1      42.834 -13.150   6.967  1.00  0.00    -0.349 N 
HETATM    7  C   UNL     1      42.618 -12.163   6.033  1.00  0.00     0.121 A 
HETATM    8  S   UNL     1      42.761 -10.575   6.556  1.00  0.00    -0.059 SA
HETATM    9  C   UNL     1      42.288 -12.634   4.647  1.00  0.00     0.075 A 
HETATM   10  C   UNL     1      42.387 -11.620   3.520  1.00  0.00     0.023 C 
HETATM   11  N   UNL     1      42.468 -10.778   2.584  1.00  0.00    -0.096 N 
HETATM   12  H   UNL     1      43.116 -12.829   7.890  1.00  0.00     0.166 HD
ENDROOT
BRANCH   3  13
HETATM   13  C   UNL     1      42.209 -16.404   5.256  1.00  0.00     0.258 C 
HETATM   14  N   UNL     1      43.375 -16.946   4.748  1.00  0.00    -0.323 N 
HETATM   15  H   UNL     1      44.152 -16.313   4.609  1.00  0.00     0.169 HD
HETATM   16  O   UNL     1      41.158 -16.984   5.497  1.00  0.00    -0.267 OA
BRANCH  14  17
HETATM   17  C   UNL     1      43.568 -18.264   4.284  1.00  0.00     0.035 A 
HETATM   18  C   UNL     1      43.472 -18.643   2.945  1.00  0.00     0.029 A 
HETATM   19  C   UNL     1      43.704 -19.968   2.564  1.00  0.00     0.002 A 
HETATM   20  C   UNL     1      44.042 -20.924   3.519  1.00  0.00     0.000 A 
HETATM   21  C   UNL     1      44.138 -20.557   4.858  1.00  0.00     0.002 A 
HETATM   22  C   UNL     1      43.894 -19.236   5.241  1.00  0.00     0.029 A 
ENDBRANCH  14  17
ENDBRANCH   3  13
TORSDOF 2
ENDMDL
MODEL 5
REMARK VINA RESULT:      -7.4      3.365      6.979
REMARK  2 active torsions:
REMARK  status: ('A' for Active; 'I' for Inactive)
REMARK    1  A    between atoms: C_3  and  C_4 
REMARK       I    between atoms: C_4  and  N_5 
REMARK    2  A    between atoms: N_5  and  C_6 
ROOT
HETATM    1  C   UNL     1      43.054 -16.729   1.968  1.00  0.00     0.051 C 
HETATM    2  C   UNL     1      43.253 -17.340   3.334  1.00  0.00    -0.021 A 
HETATM    3  C   UNL     1      42.963 -16.487   4.501  1.00  0.00     0.061 A 
HETATM    4  C   UNL     1      43.009 -17.003   5.751  1.00  0.00     0.022 A 
HETATM    5  C   UNL     1      42.583 -16.311   7.021  1.00  0.00     0.069 C 
HETATM    6  N   UNL     1      43.441 -18.301   5.927  1.00  0.00    -0.349 N 
HETATM    7  C   UNL     1      43.779 -19.164   4.910  1.00  0.00     0.121 A 
HETATM    8  S   UNL     1      44.320 -20.689   5.353  1.00  0.00    -0.059 SA
HETATM    9  C   UNL     1      43.609 -18.633   3.516  1.00  0.00     0.075 A 
HETATM   10  C   UNL     1      43.627 -19.638   2.376  1.00  0.00     0.023 C 
HETATM   11  N   UNL     1      43.644 -20.471   1.430  1.00  0.00    -0.096 N 
HETATM   12  H   UNL     1      43.499 -18.683   6.867  1.00  0.00     0.166 HD
ENDROOT
BRANCH   3  13
HETATM   13  C   UNL     1      42.491 -15.071   4.323  1.00  0.00     0.258 C 
HETATM   14  N   UNL     1      41.125 -14.987   4.132  1.00  0.00    -0.323 N 
HETATM   15  H   UNL     1      40.606 -15.856   4.139  1.00  0.00     0.169 HD
HETATM   16  O   UNL     1      43.300 -14.153   4.348  1.00  0.00    -0.267 OA
BRANCH  14  17
HETATM   17  C   UNL     1      40.381 -13.833   3.808  1.00  0.00     0.035 A 
HETATM   18  C   UNL     1      40.065 -12.826   4.721  1.00  0.00     0.029 A 
HETATM   19  C   UNL     1      39.345 -11.699   4.313  1.00  0.00     0.002 A 
HETATM   20  C   UNL     1      38.941 -11.567   2.986  1.00  0.00     0.000 A 
HETATM   21  C   UNL     1      39.248 -12.567   2.069  1.00  0.00     0.002 A 
HETATM   22  C   UNL     1      39.958 -13.698   2.479  1.00  0.00     0.029 A 
ENDBRANCH  14  17
ENDBRANCH   3  13
TORSDOF 2
ENDMDL
MODEL 6
REMARK VINA RESULT:      -7.2      3.003      7.140
REMARK  2 active torsions:
REMARK  status: ('A' for Active; 'I' for Inactive)
REMARK    1  A    between atoms: C_3  and  C_4 
REMARK       I    between atoms: C_4  and  N_5 
REMARK    2  A    between atoms: N_5  and  C_6 
ROOT
HETATM    1  C   UNL     1      42.731 -16.885   1.952  1.00  0.00     0.051 C 
HETATM    2  C   UNL     1      43.034 -17.455   3.317  1.00  0.00    -0.021 A 
HETATM    3  C   UNL     1      42.702 -16.617   4.484  1.00  0.00     0.061 A 
HETATM    4  C   UNL     1      42.839 -17.108   5.737  1.00  0.00     0.022 A 
HETATM    5  C   UNL     1      42.391 -16.442   7.014  1.00  0.00     0.069 C 
HETATM    6  N   UNL     1      43.402 -18.354   5.913  1.00  0.00    -0.349 N 
HETATM    7  C   UNL     1      43.789 -19.196   4.894  1.00  0.00     0.121 A 
HETATM    8  S   UNL     1      44.492 -20.654   5.335  1.00  0.00    -0.059 SA
HETATM    9  C   UNL     1      43.521 -18.704   3.502  1.00  0.00     0.075 A 
HETATM   10  C   UNL     1      43.600 -19.718   2.373  1.00  0.00     0.023 C 
HETATM   11  N   UNL     1      43.666 -20.559   1.436  1.00  0.00    -0.096 N 
HETATM   12  H   UNL     1      43.530 -18.716   6.855  1.00  0.00     0.166 HD
ENDROOT
BRANCH   3  13
HETATM   13  C   UNL     1      42.087 -15.256   4.307  1.00  0.00     0.258 C 
HETATM   14  N   UNL     1      43.031 -14.246   4.300  1.00  0.00    -0.323 N 
HETATM   15  H   UNL     1      43.999 -14.521   4.406  1.00  0.00     0.169 HD
HETATM   16  O   UNL     1      40.874 -15.146   4.196  1.00  0.00    -0.267 OA
BRANCH  14  17
HETATM   17  C   UNL     1      42.788 -12.856   4.282  1.00  0.00     0.035 A 
HETATM   18  C   UNL     1      42.638 -12.105   3.116  1.00  0.00     0.029 A 
HETATM   19  C   UNL     1      42.372 -10.733   3.185  1.00  0.00     0.002 A 
HETATM   20  C   UNL     1      42.248 -10.105   4.422  1.00  0.00     0.000 A 
HETATM   21  C   UNL     1      42.398 -10.844   5.591  1.00  0.00     0.002 A 
HETATM   22  C   UNL     1      42.675 -12.212   5.522  1.00  0.00     0.029 A 
ENDBRANCH  14  17
ENDBRANCH   3  13
TORSDOF 2
ENDMDL
MODEL 7
REMARK VINA RESULT:      -7.1      2.769      3.721
REMARK  2 active torsions:
REMARK  status: ('A' for Active; 'I' for Inactive)
REMARK    1  A    between atoms: C_3  and  C_4 
REMARK       I    between atoms: C_4  and  N_5 
REMARK    2  A    between atoms: N_5  and  C_6 
ROOT
HETATM    1  C   UNL     1      41.627 -12.685   4.389  1.00  0.00     0.051 C 
HETATM    2  C   UNL     1      40.715 -12.665   3.186  1.00  0.00    -0.021 A 
HETATM    3  C   UNL     1      40.988 -13.644   2.118  1.00  0.00     0.061 A 
HETATM    4  C   UNL     1      40.145 -13.759   1.067  1.00  0.00     0.022 A 
HETATM    5  C   UNL     1      40.197 -14.813  -0.010  1.00  0.00     0.069 C 
HETATM    6  N   UNL     1      39.095 -12.874   0.947  1.00  0.00    -0.349 N 
HETATM    7  C   UNL     1      38.780 -11.895   1.862  1.00  0.00     0.121 A 
HETATM    8  S   UNL     1      37.481 -10.898   1.495  1.00  0.00    -0.059 SA
HETATM    9  C   UNL     1      39.640 -11.848   3.091  1.00  0.00     0.075 A 
HETATM   10  C   UNL     1      39.131 -11.037   4.272  1.00  0.00     0.023 C 
HETATM   11  N   UNL     1      38.709 -10.365   5.251  1.00  0.00    -0.096 N 
HETATM   12  H   UNL     1      38.474 -12.943   0.145  1.00  0.00     0.166 HD
ENDROOT
BRANCH   3  13
HETATM   13  C   UNL     1      42.130 -14.615   2.237  1.00  0.00     0.258 C 
HETATM   14  N   UNL     1      41.766 -15.786   2.875  1.00  0.00    -0.323 N 
HETATM   15  H   UNL     1      40.804 -15.864   3.177  1.00  0.00     0.169 HD
HETATM   16  O   UNL     1      43.232 -14.315   1.796  1.00  0.00    -0.267 OA
BRANCH  14  17
HETATM   17  C   UNL     1      42.617 -16.843   3.261  1.00  0.00     0.035 A 
HETATM   18  C   UNL     1      42.993 -17.891   2.419  1.00  0.00     0.029 A 
HETATM   19  C   UNL     1      43.863 -18.888   2.872  1.00  0.00     0.002 A 
HETATM   20  C   UNL     1      44.369 -18.840   4.169  1.00  0.00     0.000 A 
HETATM   21  C   UNL     1      43.999 -17.801   5.017  1.00  0.00     0.002 A 
HETATM   22  C   UNL     1      43.121 -16.812   4.569  1.00  0.00     0.029 A 
ENDBRANCH  14  17
ENDBRANCH   3  13
TORSDOF 2
ENDMDL
MODEL 8
REMARK VINA RESULT:      -7.0      1.455      3.484
REMARK  2 active torsions:
REMARK  status: ('A' for Active; 'I' for Inactive)
REMARK    1  A    between atoms: C_3  and  C_4 
REMARK       I    between atoms: C_4  and  N_5 
REMARK    2  A    between atoms: N_5  and  C_6 
ROOT
HETATM    1  C   UNL     1      39.915 -15.382   2.163  1.00  0.00     0.051 C 
HETATM    2  C   UNL     1      40.544 -14.261   2.955  1.00  0.00    -0.021 A 
HETATM    3  C   UNL     1      41.468 -14.640   4.039  1.00  0.00     0.061 A 
HETATM    4  C   UNL     1      42.155 -13.690   4.714  1.00  0.00     0.022 A 
HETATM    5  C   UNL     1      43.248 -13.923   5.726  1.00  0.00     0.069 C 
HETATM    6  N   UNL     1      41.893 -12.361   4.455  1.00  0.00    -0.349 N 
HETATM    7  C   UNL     1      41.017 -11.901   3.498  1.00  0.00     0.121 A 
HETATM    8  S   UNL     1      40.820 -10.239   3.381  1.00  0.00    -0.059 SA
HETATM    9  C   UNL     1      40.348 -12.954   2.664  1.00  0.00     0.075 A 
HETATM   10  C   UNL     1      39.658 -12.502   1.387  1.00  0.00     0.023 C 
HETATM   11  N   UNL     1      39.085 -12.128   0.328  1.00  0.00    -0.096 N 
HETATM   12  H   UNL     1      42.390 -11.644   4.978  1.00  0.00     0.166 HD
ENDROOT
BRANCH   3  13
HETATM   13  C   UNL     1      41.762 -16.086   4.332  1.00  0.00     0.258 C 
HETATM   14  N   UNL     1      42.740 -16.606   3.505  1.00  0.00    -0.323 N 
HETATM   15  H   UNL     1      43.144 -15.979   2.821  1.00  0.00     0.169 HD
HETATM   16  O   UNL     1      41.147 -16.664   5.218  1.00  0.00    -0.267 OA
BRANCH  14  17
HETATM   17  C   UNL     1      43.159 -17.951   3.426  1.00  0.00     0.035 A 
HETATM   18  C   UNL     1      42.978 -18.760   2.303  1.00  0.00     0.029 A 
HETATM   19  C   UNL     1      43.446 -20.077   2.295  1.00  0.00     0.002 A 
HETATM   20  C   UNL     1      44.107 -20.593   3.408  1.00  0.00     0.000 A 
HETATM   21  C   UNL     1      44.291 -19.796   4.533  1.00  0.00     0.002 A 
HETATM   22  C   UNL     1      43.812 -18.483   4.546  1.00  0.00     0.029 A 
ENDBRANCH  14  17
ENDBRANCH   3  13
TORSDOF 2
ENDMDL
MODEL 9
REMARK VINA RESULT:      -7.0      3.334      6.329
REMARK  2 active torsions:
REMARK  status: ('A' for Active; 'I' for Inactive)
REMARK    1  A    between atoms: C_3  and  C_4 
REMARK       I    between atoms: C_4  and  N_5 
REMARK    2  A    between atoms: N_5  and  C_6 
ROOT
HETATM    1  C   UNL     1      43.259 -16.318   1.847  1.00  0.00     0.051 C 
HETATM    2  C   UNL     1      43.099 -15.892   3.286  1.00  0.00    -0.021 A 
HETATM    3  C   UNL     1      42.398 -14.618   3.536  1.00  0.00     0.061 A 
HETATM    4  C   UNL     1      42.118 -14.231   4.801  1.00  0.00     0.022 A 
HETATM    5  C   UNL     1      41.274 -13.051   5.210  1.00  0.00     0.069 C 
HETATM    6  N   UNL     1      42.596 -14.981   5.855  1.00  0.00    -0.349 N 
HETATM    7  C   UNL     1      43.299 -16.158   5.731  1.00  0.00     0.121 A 
HETATM    8  S   UNL     1      43.822 -16.887   7.149  1.00  0.00    -0.059 SA
HETATM    9  C   UNL     1      43.502 -16.654   4.329  1.00  0.00     0.075 A 
HETATM   10  C   UNL     1      43.950 -18.096   4.154  1.00  0.00     0.023 C 
HETATM   11  N   UNL     1      44.323 -19.291   4.008  1.00  0.00    -0.096 N 
HETATM   12  H   UNL     1      42.408 -14.679   6.808  1.00  0.00     0.166 HD
ENDROOT
BRANCH   3  13
HETATM   13  C   UNL     1      41.873 -13.791   2.396  1.00  0.00     0.258 C 
HETATM   14  N   UNL     1      40.653 -14.245   1.930  1.00  0.00    -0.323 N 
HETATM   15  H   UNL     1      40.256 -15.052   2.393  1.00  0.00     0.169 HD
HETATM   16  O   UNL     1      42.525 -12.841   1.983  1.00  0.00    -0.267 OA
BRANCH  14  17
HETATM   17  C   UNL     1      39.950 -13.782   0.798  1.00  0.00     0.035 A 
HETATM   18  C   UNL     1      39.302 -12.547   0.732  1.00  0.00     0.029 A 
HETATM   19  C   UNL     1      38.649 -12.151  -0.439  1.00  0.00     0.002 A 
HETATM   20  C   UNL     1      38.644 -12.983  -1.556  1.00  0.00     0.000 A 
HETATM   21  C   UNL     1      39.284 -14.217  -1.500  1.00  0.00     0.002 A 
HETATM   22  C   UNL     1      39.927 -14.619  -0.326  1.00  0.00     0.029 A 
ENDBRANCH  14  17
ENDBRANCH   3  13
TORSDOF 2
ENDMDL
MODEL 10
REMARK VINA RESULT:      -7.0      2.247      3.424
REMARK  2 active torsions:
REMARK  status: ('A' for Active; 'I' for Inactive)
REMARK    1  A    between atoms: C_3  and  C_4 
REMARK       I    between atoms: C_4  and  N_5 
REMARK    2  A    between atoms: N_5  and  C_6 
ROOT
HETATM    1  C   UNL     1      40.326 -12.989   2.612  1.00  0.00     0.051 C 
HETATM    2  C   UNL     1      40.725 -12.567   4.006  1.00  0.00    -0.021 A 
HETATM    3  C   UNL     1      41.886 -13.247   4.609  1.00  0.00     0.061 A 
HETATM    4  C   UNL     1      42.369 -12.842   5.805  1.00  0.00     0.022 A 
HETATM    5  C   UNL     1      43.634 -13.321   6.469  1.00  0.00     0.069 C 
HETATM    6  N   UNL     1      41.693 -11.864   6.506  1.00  0.00    -0.349 N 
HETATM    7  C   UNL     1      40.576 -11.200   6.055  1.00  0.00     0.121 A 
HETATM    8  S   UNL     1      39.888 -10.074   7.091  1.00  0.00    -0.059 SA
HETATM    9  C   UNL     1      40.113 -11.561   4.674  1.00  0.00     0.075 A 
HETATM   10  C   UNL     1      39.120 -10.628   4.001  1.00  0.00     0.023 C 
HETATM   11  N   UNL     1      38.295  -9.854   3.443  1.00  0.00    -0.096 N 
HETATM   12  H   UNL     1      42.040 -11.575   7.417  1.00  0.00     0.166 HD
ENDROOT
BRANCH   3  13
HETATM   13  C   UNL     1      42.631 -14.314   3.855  1.00  0.00     0.258 C 
HETATM   14  N   UNL     1      42.300 -15.589   4.276  1.00  0.00    -0.323 N 
HETATM   15  H   UNL     1      41.614 -15.665   5.015  1.00  0.00     0.169 HD
HETATM   16  O   UNL     1      43.431 -13.998   2.984  1.00  0.00    -0.267 OA
BRANCH  14  17
HETATM   17  C   UNL     1      42.903 -16.799   3.873  1.00  0.00     0.035 A 
HETATM   18  C   UNL     1      43.878 -17.470   4.613  1.00  0.00     0.029 A 
HETATM   19  C   UNL     1      44.407 -18.681   4.156  1.00  0.00     0.002 A 
HETATM   20  C   UNL     1      43.959 -19.235   2.959  1.00  0.00     0.000 A 
HETATM   21  C   UNL     1      42.989 -18.573   2.213  1.00  0.00     0.002 A 
HETATM   22  C   UNL     1      42.469 -17.357   2.663  1.00  0.00     0.029 A 
ENDBRANCH  14  17
ENDBRANCH   3  13
TORSDOF 2
ENDMDL
