MODEL 1
REMARK VINA RESULT:      -8.5      0.000      0.000
REMARK  3 active torsions:
REMARK  status: ('A' for Active; 'I' for Inactive)
REMARK    1  A    between atoms: C_5  and  C_6 
REMARK    2  A    between atoms: C_8  and  N_9 
REMARK       I    between atoms: N_9  and  C_10 
REMARK    3  A    between atoms: C_10  and  C_11 
ROOT
HETATM    1  C   UNL     1      39.797 -13.658   1.173  1.00  0.00     0.010 A 
HETATM    2  C   UNL     1      40.504 -14.835   1.447  1.00  0.00     0.044 A 
HETATM    3  C   UNL     1      41.089 -15.043   2.697  1.00  0.00     0.035 A 
HETATM    4  C   UNL     1      40.972 -14.043   3.669  1.00  0.00     0.029 A 
HETATM    5  C   UNL     1      40.280 -12.860   3.395  1.00  0.00     0.003 A 
HETATM    6  C   UNL     1      39.685 -12.665   2.149  1.00  0.00     0.015 A 
ENDROOT
BRANCH   3   7
HETATM    7  N   UNL     1      41.769 -16.225   3.055  1.00  0.00    -0.323 N 
HETATM    8  C   UNL     1      42.910 -16.750   2.484  1.00  0.00     0.259 C 
HETATM    9  O   UNL     1      43.574 -16.182   1.616  1.00  0.00    -0.267 OA
HETATM   10  H   UNL     1      41.331 -16.780   3.786  1.00  0.00     0.169 HD
BRANCH   8  11
HETATM   11  C   UNL     1      43.341 -18.093   3.010  1.00  0.00     0.070 A 
HETATM   12  C   UNL     1      43.872 -18.410   4.388  1.00  0.00     0.116 A 
HETATM   13  S   UNL     1      44.138 -17.339   5.656  1.00  0.00    -0.059 SA
HETATM   14  N   UNL     1      44.170 -19.738   4.636  1.00  0.00    -0.356 N 
HETATM   15  C   UNL     1      44.011 -20.749   3.726  1.00  0.00     0.089 A 
HETATM   16  H   UNL     1      44.519 -19.965   5.563  1.00  0.00     0.166 HD
HETATM   17  C   UNL     1      43.544 -20.481   2.505  1.00  0.00     0.018 A 
HETATM   18  C   UNL     1      43.201 -19.125   2.150  1.00  0.00     0.022 A 
ENDBRANCH   8  11
ENDBRANCH   3   7
BRANCH   1  19
HETATM   19  C   UNL     1      39.143 -13.496  -0.165  1.00  0.00     0.116 A 
HETATM   20  N   UNL     1      38.409 -12.462  -0.601  1.00  0.00    -0.344 N 
HETATM   21  C   UNL     1      37.920 -12.675  -1.882  1.00  0.00     0.029 A 
HETATM   22  H   UNL     1      38.212 -11.639  -0.043  1.00  0.00     0.167 HD
HETATM   23  C   UNL     1      37.053 -11.712  -2.582  1.00  0.00     0.070 C 
HETATM   24  C   UNL     1      38.415 -13.905  -2.268  1.00  0.00     0.029 A 
HETATM   25  N   UNL     1      39.152 -14.362  -1.189  1.00  0.00    -0.344 N 
HETATM   26  C   UNL     1      38.257 -14.675  -3.513  1.00  0.00     0.070 C 
HETATM   27  H   UNL     1      39.645 -15.252  -1.167  1.00  0.00     0.167 HD
ENDBRANCH   1  19
TORSDOF 3
ENDMDL
MODEL 2
REMARK VINA RESULT:      -8.2      4.434      8.034
REMARK  3 active torsions:
REMARK  status: ('A' for Active; 'I' for Inactive)
REMARK    1  A    between atoms: C_5  and  C_6 
REMARK    2  A    between atoms: C_8  and  N_9 
REMARK       I    between atoms: N_9  and  C_10 
REMARK    3  A    between atoms: C_10  and  C_11 
ROOT
HETATM    1  C   UNL     1      42.481 -15.990   3.457  1.00  0.00     0.010 A 
HETATM    2  C   UNL     1      43.046 -15.078   4.357  1.00  0.00     0.044 A 
HETATM    3  C   UNL     1      42.548 -13.779   4.465  1.00  0.00     0.035 A 
HETATM    4  C   UNL     1      41.483 -13.397   3.641  1.00  0.00     0.029 A 
HETATM    5  C   UNL     1      40.926 -14.299   2.731  1.00  0.00     0.003 A 
HETATM    6  C   UNL     1      41.419 -15.600   2.639  1.00  0.00     0.015 A 
ENDROOT
BRANCH   3   7
HETATM    7  N   UNL     1      43.036 -12.829   5.385  1.00  0.00    -0.323 N 
HETATM    8  C   UNL     1      43.893 -11.776   5.139  1.00  0.00     0.259 C 
HETATM    9  O   UNL     1      44.284 -11.449   4.018  1.00  0.00    -0.267 OA
HETATM   10  H   UNL     1      42.763 -12.975   6.354  1.00  0.00     0.169 HD
BRANCH   8  11
HETATM   11  C   UNL     1      44.327 -10.994   6.351  1.00  0.00     0.070 A 
HETATM   12  C   UNL     1      43.468 -10.117   7.231  1.00  0.00     0.116 A 
HETATM   13  S   UNL     1      41.832  -9.777   7.056  1.00  0.00    -0.059 SA
HETATM   14  N   UNL     1      44.103  -9.529   8.310  1.00  0.00    -0.356 N 
HETATM   15  C   UNL     1      45.428  -9.697   8.613  1.00  0.00     0.089 A 
HETATM   16  H   UNL     1      43.534  -8.944   8.915  1.00  0.00     0.166 HD
HETATM   17  C   UNL     1      46.198 -10.469   7.842  1.00  0.00     0.018 A 
HETATM   18  C   UNL     1      45.626 -11.129   6.693  1.00  0.00     0.022 A 
ENDBRANCH   8  11
ENDBRANCH   3   7
BRANCH   1  19
HETATM   19  C   UNL     1      43.014 -17.390   3.408  1.00  0.00     0.116 A 
HETATM   20  N   UNL     1      43.076 -18.209   2.348  1.00  0.00    -0.344 N 
HETATM   21  C   UNL     1      43.589 -19.454   2.683  1.00  0.00     0.029 A 
HETATM   22  H   UNL     1      42.756 -17.952   1.421  1.00  0.00     0.167 HD
HETATM   23  C   UNL     1      43.729 -20.553   1.711  1.00  0.00     0.070 C 
HETATM   24  C   UNL     1      43.892 -19.380   4.028  1.00  0.00     0.029 A 
HETATM   25  N   UNL     1      43.524 -18.106   4.421  1.00  0.00    -0.344 N 
HETATM   26  C   UNL     1      44.466 -20.371   4.955  1.00  0.00     0.070 C 
HETATM   27  H   UNL     1      43.623 -17.747   5.367  1.00  0.00     0.167 HD
ENDBRANCH   1  19
TORSDOF 3
ENDMDL
MODEL 3
REMARK VINA RESULT:      -8.2      7.140      9.971
REMARK  3 active torsions:
REMARK  status: ('A' for Active; 'I' for Inactive)
REMARK    1  A    between atoms: C_5  and  C_6 
REMARK    2  A    between atoms: C_8  and  N_9 
REMARK       I    between atoms: N_9  and  C_10 
REMARK    3  A    between atoms: C_10  and  C_11 
ROOT
HETATM    1  C   UNL     1      44.425 -10.093   9.351  1.00  0.00     0.010 A 
HETATM    2  C   UNL     1      43.979 -11.160   8.561  1.00  0.00     0.044 A 
HETATM    3  C   UNL     1      44.687 -11.551   7.424  1.00  0.00     0.035 A 
HETATM    4  C   UNL     1      45.844 -10.846   7.076  1.00  0.00     0.029 A 
HETATM    5  C   UNL     1      46.285  -9.771   7.853  1.00  0.00     0.003 A 
HETATM    6  C   UNL     1      45.581  -9.394   8.996  1.00  0.00     0.015 A 
ENDROOT
BRANCH   3   7
HETATM    7  N   UNL     1      44.323 -12.648   6.615  1.00  0.00    -0.323 N 
HETATM    8  C   UNL     1      43.158 -12.816   5.894  1.00  0.00     0.259 C 
HETATM    9  O   UNL     1      42.289 -11.952   5.772  1.00  0.00    -0.267 OA
HETATM   10  H   UNL     1      44.976 -13.427   6.611  1.00  0.00     0.169 HD
BRANCH   8  11
HETATM   11  C   UNL     1      43.004 -14.149   5.211  1.00  0.00     0.070 A 
HETATM   12  C   UNL     1      42.832 -15.499   5.865  1.00  0.00     0.116 A 
HETATM   13  S   UNL     1      42.800 -15.846   7.509  1.00  0.00    -0.059 SA
HETATM   14  N   UNL     1      42.676 -16.575   5.009  1.00  0.00    -0.356 N 
HETATM   15  C   UNL     1      42.669 -16.482   3.643  1.00  0.00     0.089 A 
HETATM   16  H   UNL     1      42.550 -17.488   5.437  1.00  0.00     0.166 HD
HETATM   17  C   UNL     1      42.822 -15.294   3.053  1.00  0.00     0.018 A 
HETATM   18  C   UNL     1      42.988 -14.109   3.862  1.00  0.00     0.022 A 
ENDBRANCH   8  11
ENDBRANCH   3   7
BRANCH   1  19
HETATM   19  C   UNL     1      43.663  -9.736  10.590  1.00  0.00     0.116 A 
HETATM   20  N   UNL     1      42.543 -10.305  11.058  1.00  0.00    -0.344 N 
HETATM   21  C   UNL     1      42.087  -9.684  12.213  1.00  0.00     0.029 A 
HETATM   22  H   UNL     1      42.072 -11.077  10.600  1.00  0.00     0.167 HD
HETATM   23  C   UNL     1      40.854 -10.088  12.911  1.00  0.00     0.070 C 
HETATM   24  C   UNL     1      43.008  -8.693  12.488  1.00  0.00     0.029 A 
HETATM   25  N   UNL     1      43.946  -8.766  11.472  1.00  0.00    -0.344 N 
HETATM   26  C   UNL     1      43.082  -7.703  13.576  1.00  0.00     0.070 C 
HETATM   27  H   UNL     1      44.757  -8.157  11.395  1.00  0.00     0.167 HD
ENDBRANCH   1  19
TORSDOF 3
ENDMDL
MODEL 4
REMARK VINA RESULT:      -8.2      8.780     11.511
REMARK  3 active torsions:
REMARK  status: ('A' for Active; 'I' for Inactive)
REMARK    1  A    between atoms: C_5  and  C_6 
REMARK    2  A    between atoms: C_8  and  N_9 
REMARK       I    between atoms: N_9  and  C_10 
REMARK    3  A    between atoms: C_10  and  C_11 
ROOT
HETATM    1  C   UNL     1      44.485 -11.356   7.713  1.00  0.00     0.010 A 
HETATM    2  C   UNL     1      43.869 -10.841   8.860  1.00  0.00     0.044 A 
HETATM    3  C   UNL     1      44.416  -9.749   9.536  1.00  0.00     0.035 A 
HETATM    4  C   UNL     1      45.604  -9.187   9.055  1.00  0.00     0.029 A 
HETATM    5  C   UNL     1      46.230  -9.707   7.919  1.00  0.00     0.003 A 
HETATM    6  C   UNL     1      45.670 -10.789   7.241  1.00  0.00     0.015 A 
ENDROOT
BRANCH   3   7
HETATM    7  N   UNL     1      43.820  -9.150  10.665  1.00  0.00    -0.323 N 
HETATM    8  C   UNL     1      43.376  -9.770  11.815  1.00  0.00     0.259 C 
HETATM    9  O   UNL     1      43.538 -10.965  12.065  1.00  0.00    -0.267 OA
HETATM   10  H   UNL     1      43.652  -8.150  10.594  1.00  0.00     0.169 HD
BRANCH   8  11
HETATM   11  C   UNL     1      42.678  -8.877  12.806  1.00  0.00     0.070 A 
HETATM   12  C   UNL     1      41.276  -9.029  13.348  1.00  0.00     0.116 A 
HETATM   13  S   UNL     1      40.147 -10.210  12.955  1.00  0.00    -0.059 SA
HETATM   14  N   UNL     1      40.878  -8.088  14.280  1.00  0.00    -0.356 N 
HETATM   15  C   UNL     1      41.665  -7.059  14.725  1.00  0.00     0.089 A 
HETATM   16  H   UNL     1      39.940  -8.184  14.660  1.00  0.00     0.166 HD
HETATM   17  C   UNL     1      42.905  -6.914  14.252  1.00  0.00     0.018 A 
HETATM   18  C   UNL     1      43.414  -7.848  13.278  1.00  0.00     0.022 A 
ENDBRANCH   8  11
ENDBRANCH   3   7
BRANCH   1  19
HETATM   19  C   UNL     1      43.839 -12.498   6.990  1.00  0.00     0.116 A 
HETATM   20  N   UNL     1      43.724 -12.672   5.666  1.00  0.00    -0.344 N 
HETATM   21  C   UNL     1      43.021 -13.827   5.352  1.00  0.00     0.029 A 
HETATM   22  H   UNL     1      44.082 -12.016   4.980  1.00  0.00     0.167 HD
HETATM   23  C   UNL     1      42.720 -14.234   3.968  1.00  0.00     0.070 C 
HETATM   24  C   UNL     1      42.717 -14.415   6.563  1.00  0.00     0.029 A 
HETATM   25  N   UNL     1      43.236 -13.568   7.527  1.00  0.00    -0.344 N 
HETATM   26  C   UNL     1      41.994 -15.656   6.892  1.00  0.00     0.070 C 
HETATM   27  H   UNL     1      43.170 -13.731   8.529  1.00  0.00     0.167 HD
ENDBRANCH   1  19
TORSDOF 3
ENDMDL
MODEL 5
REMARK VINA RESULT:      -8.1      7.275     10.035
REMARK  3 active torsions:
REMARK  status: ('A' for Active; 'I' for Inactive)
REMARK    1  A    between atoms: C_5  and  C_6 
REMARK    2  A    between atoms: C_8  and  N_9 
REMARK       I    between atoms: N_9  and  C_10 
REMARK    3  A    between atoms: C_10  and  C_11 
ROOT
HETATM    1  C   UNL     1      44.405  -9.972   9.404  1.00  0.00     0.010 A 
HETATM    2  C   UNL     1      44.025 -11.060   8.610  1.00  0.00     0.044 A 
HETATM    3  C   UNL     1      44.782 -11.432   7.498  1.00  0.00     0.035 A 
HETATM    4  C   UNL     1      45.922 -10.685   7.180  1.00  0.00     0.029 A 
HETATM    5  C   UNL     1      46.297  -9.588   7.962  1.00  0.00     0.003 A 
HETATM    6  C   UNL     1      45.543  -9.231   9.079  1.00  0.00     0.015 A 
ENDROOT
BRANCH   3   7
HETATM    7  N   UNL     1      44.485 -12.547   6.687  1.00  0.00    -0.323 N 
HETATM    8  C   UNL     1      43.288 -12.849   6.072  1.00  0.00     0.259 C 
HETATM    9  O   UNL     1      42.307 -12.105   6.063  1.00  0.00    -0.267 OA
HETATM   10  H   UNL     1      45.230 -13.233   6.594  1.00  0.00     0.169 HD
BRANCH   8  11
HETATM   11  C   UNL     1      43.241 -14.174   5.358  1.00  0.00     0.070 A 
HETATM   12  C   UNL     1      42.973 -14.416   3.891  1.00  0.00     0.116 A 
HETATM   13  S   UNL     1      42.634 -13.271   2.709  1.00  0.00    -0.059 SA
HETATM   14  N   UNL     1      43.017 -15.733   3.473  1.00  0.00    -0.356 N 
HETATM   15  C   UNL     1      43.284 -16.797   4.293  1.00  0.00     0.089 A 
HETATM   16  H   UNL     1      42.848 -15.908   2.486  1.00  0.00     0.166 HD
HETATM   17  C   UNL     1      43.521 -16.596   5.591  1.00  0.00     0.018 A 
HETATM   18  C   UNL     1      43.501 -15.255   6.124  1.00  0.00     0.022 A 
ENDBRANCH   8  11
ENDBRANCH   3   7
BRANCH   1  19
HETATM   19  C   UNL     1      43.592  -9.636  10.617  1.00  0.00     0.116 A 
HETATM   20  N   UNL     1      43.840  -8.695  11.538  1.00  0.00    -0.344 N 
HETATM   21  C   UNL     1      42.893  -8.697  12.553  1.00  0.00     0.029 A 
HETATM   22  H   UNL     1      44.645  -8.078  11.508  1.00  0.00     0.167 HD
HETATM   23  C   UNL     1      42.952  -7.787  13.710  1.00  0.00     0.070 C 
HETATM   24  C   UNL     1      41.987  -9.681  12.211  1.00  0.00     0.029 A 
HETATM   25  N   UNL     1      42.457 -10.222  11.027  1.00  0.00    -0.344 N 
HETATM   26  C   UNL     1      40.764 -10.158  12.880  1.00  0.00     0.070 C 
HETATM   27  H   UNL     1      42.001 -10.978  10.521  1.00  0.00     0.167 HD
ENDBRANCH   1  19
TORSDOF 3
ENDMDL
MODEL 6
REMARK VINA RESULT:      -8.0      3.111      8.122
REMARK  3 active torsions:
REMARK  status: ('A' for Active; 'I' for Inactive)
REMARK    1  A    between atoms: C_5  and  C_6 
REMARK    2  A    between atoms: C_8  and  N_9 
REMARK       I    between atoms: N_9  and  C_10 
REMARK    3  A    between atoms: C_10  and  C_11 
ROOT
HETATM    1  C   UNL     1      43.005 -15.964   3.448  1.00  0.00     0.010 A 
HETATM    2  C   UNL     1      42.581 -15.361   2.258  1.00  0.00     0.044 A 
HETATM    3  C   UNL     1      42.313 -13.992   2.208  1.00  0.00     0.035 A 
HETATM    4  C   UNL     1      42.459 -13.235   3.375  1.00  0.00     0.029 A 
HETATM    5  C   UNL     1      42.869 -13.836   4.569  1.00  0.00     0.003 A 
HETATM    6  C   UNL     1      43.149 -15.201   4.608  1.00  0.00     0.015 A 
ENDROOT
BRANCH   3   7
HETATM    7  N   UNL     1      41.932 -13.313   1.032  1.00  0.00    -0.323 N 
HETATM    8  C   UNL     1      40.706 -13.340   0.400  1.00  0.00     0.259 C 
HETATM    9  O   UNL     1      39.706 -13.901   0.851  1.00  0.00    -0.267 OA
HETATM   10  H   UNL     1      42.669 -12.786   0.571  1.00  0.00     0.169 HD
BRANCH   8  11
HETATM   11  C   UNL     1      40.632 -12.597  -0.907  1.00  0.00     0.070 A 
HETATM   12  C   UNL     1      39.950 -13.044  -2.179  1.00  0.00     0.116 A 
HETATM   13  S   UNL     1      39.136 -14.488  -2.452  1.00  0.00    -0.059 SA
HETATM   14  N   UNL     1      39.998 -12.158  -3.240  1.00  0.00    -0.356 N 
HETATM   15  C   UNL     1      40.611 -10.934  -3.199  1.00  0.00     0.089 A 
HETATM   16  H   UNL     1      39.535 -12.443  -4.098  1.00  0.00     0.166 HD
HETATM   17  C   UNL     1      41.218 -10.528  -2.081  1.00  0.00     0.018 A 
HETATM   18  C   UNL     1      41.220 -11.381  -0.917  1.00  0.00     0.022 A 
ENDBRANCH   8  11
ENDBRANCH   3   7
BRANCH   1  19
HETATM   19  C   UNL     1      43.329 -17.427   3.447  1.00  0.00     0.116 A 
HETATM   20  N   UNL     1      43.717 -18.184   4.484  1.00  0.00    -0.344 N 
HETATM   21  C   UNL     1      43.977 -19.493   4.104  1.00  0.00     0.029 A 
HETATM   22  H   UNL     1      43.834 -17.827   5.426  1.00  0.00     0.167 HD
HETATM   23  C   UNL     1      44.454 -20.523   5.043  1.00  0.00     0.070 C 
HETATM   24  C   UNL     1      43.697 -19.549   2.753  1.00  0.00     0.029 A 
HETATM   25  N   UNL     1      43.308 -18.268   2.402  1.00  0.00    -0.344 N 
HETATM   26  C   UNL     1      43.771 -20.657   1.785  1.00  0.00     0.070 C 
HETATM   27  H   UNL     1      43.037 -17.988   1.463  1.00  0.00     0.167 HD
ENDBRANCH   1  19
TORSDOF 3
ENDMDL
MODEL 7
REMARK VINA RESULT:      -7.6      3.928      5.718
REMARK  3 active torsions:
REMARK  status: ('A' for Active; 'I' for Inactive)
REMARK    1  A    between atoms: C_5  and  C_6 
REMARK    2  A    between atoms: C_8  and  N_9 
REMARK       I    between atoms: N_9  and  C_10 
REMARK    3  A    between atoms: C_10  and  C_11 
ROOT
HETATM    1  C   UNL     1      40.880 -14.738   1.518  1.00  0.00     0.010 A 
HETATM    2  C   UNL     1      41.313 -13.749   2.408  1.00  0.00     0.044 A 
HETATM    3  C   UNL     1      41.756 -14.084   3.688  1.00  0.00     0.035 A 
HETATM    4  C   UNL     1      41.743 -15.429   4.074  1.00  0.00     0.029 A 
HETATM    5  C   UNL     1      41.298 -16.419   3.193  1.00  0.00     0.003 A 
HETATM    6  C   UNL     1      40.871 -16.078   1.911  1.00  0.00     0.015 A 
ENDROOT
BRANCH   3   7
HETATM    7  N   UNL     1      42.253 -13.143   4.615  1.00  0.00    -0.323 N 
HETATM    8  C   UNL     1      43.291 -12.252   4.440  1.00  0.00     0.259 C 
HETATM    9  O   UNL     1      43.881 -12.077   3.374  1.00  0.00    -0.267 OA
HETATM   10  H   UNL     1      41.826 -13.169   5.538  1.00  0.00     0.169 HD
BRANCH   8  11
HETATM   11  C   UNL     1      43.667 -11.446   5.655  1.00  0.00     0.070 A 
HETATM   12  C   UNL     1      42.836 -10.395   6.351  1.00  0.00     0.116 A 
HETATM   13  S   UNL     1      41.306  -9.848   5.923  1.00  0.00    -0.059 SA
HETATM   14  N   UNL     1      43.399  -9.819   7.476  1.00  0.00    -0.356 N 
HETATM   15  C   UNL     1      44.632 -10.143   7.976  1.00  0.00     0.089 A 
HETATM   16  H   UNL     1      42.846  -9.116   7.959  1.00  0.00     0.166 HD
HETATM   17  C   UNL     1      45.377 -11.070   7.369  1.00  0.00     0.018 A 
HETATM   18  C   UNL     1      44.874 -11.732   6.189  1.00  0.00     0.022 A 
ENDBRANCH   8  11
ENDBRANCH   3   7
BRANCH   1  19
HETATM   19  C   UNL     1      40.459 -14.341   0.136  1.00  0.00     0.116 A 
HETATM   20  N   UNL     1      39.476 -14.869  -0.607  1.00  0.00    -0.344 N 
HETATM   21  C   UNL     1      39.399 -14.281  -1.862  1.00  0.00     0.029 A 
HETATM   22  H   UNL     1      38.883 -15.630  -0.295  1.00  0.00     0.167 HD
HETATM   23  C   UNL     1      38.430 -14.702  -2.889  1.00  0.00     0.070 C 
HETATM   24  C   UNL     1      40.377 -13.306  -1.874  1.00  0.00     0.029 A 
HETATM   25  N   UNL     1      40.992 -13.383  -0.637  1.00  0.00    -0.344 N 
HETATM   26  C   UNL     1      40.784 -12.344  -2.913  1.00  0.00     0.070 C 
HETATM   27  H   UNL     1      41.762 -12.788  -0.341  1.00  0.00     0.167 HD
ENDBRANCH   1  19
TORSDOF 3
ENDMDL
MODEL 8
REMARK VINA RESULT:      -7.6      4.578      7.295
REMARK  3 active torsions:
REMARK  status: ('A' for Active; 'I' for Inactive)
REMARK    1  A    between atoms: C_5  and  C_6 
REMARK    2  A    between atoms: C_8  and  N_9 
REMARK       I    between atoms: N_9  and  C_10 
REMARK    3  A    between atoms: C_10  and  C_11 
ROOT
HETATM    1  C   UNL     1      42.905 -11.274   5.844  1.00  0.00     0.010 A 
HETATM    2  C   UNL     1      43.117 -12.643   5.639  1.00  0.00     0.044 A 
HETATM    3  C   UNL     1      42.963 -13.208   4.372  1.00  0.00     0.035 A 
HETATM    4  C   UNL     1      42.574 -12.383   3.311  1.00  0.00     0.029 A 
HETATM    5  C   UNL     1      42.347 -11.019   3.514  1.00  0.00     0.003 A 
HETATM    6  C   UNL     1      42.517 -10.458   4.779  1.00  0.00     0.015 A 
ENDROOT
BRANCH   3   7
HETATM    7  N   UNL     1      43.210 -14.566   4.087  1.00  0.00    -0.323 N 
HETATM    8  C   UNL     1      42.288 -15.584   3.956  1.00  0.00     0.259 C 
HETATM    9  O   UNL     1      41.067 -15.418   3.968  1.00  0.00    -0.267 OA
HETATM   10  H   UNL     1      44.190 -14.831   4.026  1.00  0.00     0.169 HD
BRANCH   8  11
HETATM   11  C   UNL     1      42.863 -16.961   3.759  1.00  0.00     0.070 A 
HETATM   12  C   UNL     1      43.544 -17.826   4.793  1.00  0.00     0.116 A 
HETATM   13  S   UNL     1      43.852 -17.451   6.402  1.00  0.00    -0.059 SA
HETATM   14  N   UNL     1      43.959 -19.075   4.366  1.00  0.00    -0.356 N 
HETATM   15  C   UNL     1      43.787 -19.553   3.094  1.00  0.00     0.089 A 
HETATM   16  H   UNL     1      44.410 -19.670   5.054  1.00  0.00     0.166 HD
HETATM   17  C   UNL     1      43.188 -18.798   2.171  1.00  0.00     0.018 A 
HETATM   18  C   UNL     1      42.716 -17.479   2.521  1.00  0.00     0.022 A 
ENDBRANCH   8  11
ENDBRANCH   3   7
BRANCH   1  19
HETATM   19  C   UNL     1      43.129 -10.699   7.209  1.00  0.00     0.116 A 
HETATM   20  N   UNL     1      42.243 -10.061   7.987  1.00  0.00    -0.344 N 
HETATM   21  C   UNL     1      42.814  -9.621   9.173  1.00  0.00     0.029 A 
HETATM   22  H   UNL     1      41.279  -9.895   7.721  1.00  0.00     0.167 HD
HETATM   23  C   UNL     1      42.069  -8.859  10.191  1.00  0.00     0.070 C 
HETATM   24  C   UNL     1      44.126 -10.049   9.133  1.00  0.00     0.029 A 
HETATM   25  N   UNL     1      44.267 -10.698   7.919  1.00  0.00    -0.344 N 
HETATM   26  C   UNL     1      45.233  -9.898  10.093  1.00  0.00     0.070 C 
HETATM   27  H   UNL     1      45.131 -11.126   7.594  1.00  0.00     0.167 HD
ENDBRANCH   1  19
TORSDOF 3
ENDMDL
MODEL 9
REMARK VINA RESULT:      -7.5      4.927      8.732
REMARK  3 active torsions:
REMARK  status: ('A' for Active; 'I' for Inactive)
REMARK    1  A    between atoms: C_5  and  C_6 
REMARK    2  A    between atoms: C_8  and  N_9 
REMARK       I    between atoms: N_9  and  C_10 
REMARK    3  A    between atoms: C_10  and  C_11 
ROOT
HETATM    1  C   UNL     1      43.711 -13.192   6.272  1.00  0.00     0.010 A 
HETATM    2  C   UNL     1      43.025 -12.938   5.079  1.00  0.00     0.044 A 
HETATM    3  C   UNL     1      42.519 -13.986   4.309  1.00  0.00     0.035 A 
HETATM    4  C   UNL     1      42.726 -15.300   4.743  1.00  0.00     0.029 A 
HETATM    5  C   UNL     1      43.424 -15.559   5.926  1.00  0.00     0.003 A 
HETATM    6  C   UNL     1      43.914 -14.506   6.698  1.00  0.00     0.015 A 
ENDROOT
BRANCH   3   7
HETATM    7  N   UNL     1      41.775 -13.799   3.126  1.00  0.00    -0.323 N 
HETATM    8  C   UNL     1      40.435 -13.487   3.010  1.00  0.00     0.259 C 
HETATM    9  O   UNL     1      39.702 -13.219   3.962  1.00  0.00    -0.267 OA
HETATM   10  H   UNL     1      42.278 -13.969   2.259  1.00  0.00     0.169 HD
BRANCH   8  11
HETATM   11  C   UNL     1      39.894 -13.461   1.606  1.00  0.00     0.070 A 
HETATM   12  C   UNL     1      39.045 -12.386   0.971  1.00  0.00     0.116 A 
HETATM   13  S   UNL     1      38.476 -10.974   1.683  1.00  0.00    -0.059 SA
HETATM   14  N   UNL     1      38.701 -12.584  -0.355  1.00  0.00    -0.356 N 
HETATM   15  C   UNL     1      39.079 -13.670  -1.098  1.00  0.00     0.089 A 
HETATM   16  H   UNL     1      38.138 -11.862  -0.797  1.00  0.00     0.166 HD
HETATM   17  C   UNL     1      39.828 -14.629  -0.547  1.00  0.00     0.018 A 
HETATM   18  C   UNL     1      40.242 -14.511   0.831  1.00  0.00     0.022 A 
ENDBRANCH   8  11
ENDBRANCH   3   7
BRANCH   1  19
HETATM   19  C   UNL     1      44.196 -12.036   7.094  1.00  0.00     0.116 A 
HETATM   20  N   UNL     1      45.271 -11.266   6.875  1.00  0.00    -0.344 N 
HETATM   21  C   UNL     1      45.441 -10.315   7.871  1.00  0.00     0.029 A 
HETATM   22  H   UNL     1      45.900 -11.390   6.089  1.00  0.00     0.167 HD
HETATM   23  C   UNL     1      46.568  -9.365   7.893  1.00  0.00     0.070 C 
HETATM   24  C   UNL     1      44.381 -10.493   8.738  1.00  0.00     0.029 A 
HETATM   25  N   UNL     1      43.654 -11.551   8.220  1.00  0.00    -0.344 N 
HETATM   26  C   UNL     1      44.003  -9.791   9.977  1.00  0.00     0.070 C 
HETATM   27  H   UNL     1      42.806 -11.924   8.641  1.00  0.00     0.167 HD
ENDBRANCH   1  19
TORSDOF 3
ENDMDL
MODEL 10
REMARK VINA RESULT:      -7.4      7.571     10.349
REMARK  3 active torsions:
REMARK  status: ('A' for Active; 'I' for Inactive)
REMARK    1  A    between atoms: C_5  and  C_6 
REMARK    2  A    between atoms: C_8  and  N_9 
REMARK       I    between atoms: N_9  and  C_10 
REMARK    3  A    between atoms: C_10  and  C_11 
ROOT
HETATM    1  C   UNL     1      44.370  -9.383   9.347  1.00  0.00     0.010 A 
HETATM    2  C   UNL     1      43.633 -10.426   8.773  1.00  0.00     0.044 A 
HETATM    3  C   UNL     1      44.205 -11.260   7.812  1.00  0.00     0.035 A 
HETATM    4  C   UNL     1      45.526 -11.025   7.418  1.00  0.00     0.029 A 
HETATM    5  C   UNL     1      46.261  -9.976   7.978  1.00  0.00     0.003 A 
HETATM    6  C   UNL     1      45.688  -9.155   8.948  1.00  0.00     0.015 A 
ENDROOT
BRANCH   3   7
HETATM    7  N   UNL     1      43.536 -12.359   7.233  1.00  0.00    -0.323 N 
HETATM    8  C   UNL     1      42.960 -12.433   5.982  1.00  0.00     0.259 C 
HETATM    9  O   UNL     1      43.043 -11.550   5.127  1.00  0.00    -0.267 OA
HETATM   10  H   UNL     1      43.421 -13.171   7.835  1.00  0.00     0.169 HD
BRANCH   8  11
HETATM   11  C   UNL     1      42.216 -13.708   5.683  1.00  0.00     0.070 A 
HETATM   12  C   UNL     1      40.735 -13.868   5.436  1.00  0.00     0.116 A 
HETATM   13  S   UNL     1      39.555 -12.671   5.462  1.00  0.00    -0.059 SA
HETATM   14  N   UNL     1      40.300 -15.149   5.148  1.00  0.00    -0.356 N 
HETATM   15  C   UNL     1      41.118 -16.246   5.078  1.00  0.00     0.089 A 
HETATM   16  H   UNL     1      39.307 -15.269   4.971  1.00  0.00     0.166 HD
HETATM   17  C   UNL     1      42.429 -16.117   5.296  1.00  0.00     0.018 A 
HETATM   18  C   UNL     1      42.980 -14.818   5.600  1.00  0.00     0.022 A 
ENDBRANCH   8  11
ENDBRANCH   3   7
BRANCH   1  19
HETATM   19  C   UNL     1      43.733  -8.541  10.411  1.00  0.00     0.116 A 
HETATM   20  N   UNL     1      43.755  -8.738  11.737  1.00  0.00    -0.344 N 
HETATM   21  C   UNL     1      43.016  -7.780  12.417  1.00  0.00     0.029 A 
HETATM   22  H   UNL     1      44.231  -9.515  12.181  1.00  0.00     0.167 HD
HETATM   23  C   UNL     1      42.844  -7.785  13.880  1.00  0.00     0.070 C 
HETATM   24  C   UNL     1      42.541  -6.921  11.446  1.00  0.00     0.029 A 
HETATM   25  N   UNL     1      43.004  -7.428  10.244  1.00  0.00    -0.344 N 
HETATM   26  C   UNL     1      41.705  -5.711  11.536  1.00  0.00     0.070 C 
HETATM   27  H   UNL     1      42.817  -7.011   9.336  1.00  0.00     0.167 HD
ENDBRANCH   1  19
TORSDOF 3
ENDMDL
