MODEL 1
REMARK VINA RESULT:      -8.8      0.000      0.000
REMARK  7 active torsions:
REMARK  status: ('A' for Active; 'I' for Inactive)
REMARK    1  A    between atoms: C_4  and  C_5 
REMARK    2  A    between atoms: C_9  and  C_10 
REMARK    3  A    between atoms: C_10  and  C_11 
REMARK    4  A    between atoms: C_11  and  C_12 
REMARK    5  A    between atoms: C_12  and  O_13 
REMARK    6  A    between atoms: C_18  and  C_19 
REMARK       I    between atoms: C_19  and  N_20 
REMARK    7  A    between atoms: N_20  and  C_21 
ROOT
HETATM    1  C   UNL     1      43.489 -12.320   5.806  1.00  0.00     0.202 A 
HETATM    2  N   UNL     1      43.615 -11.435   6.971  1.00  0.00    -0.083 N 
HETATM    3  C   UNL     1      43.044 -10.199   7.055  1.00  0.00     0.726 A 
HETATM    4  N   UNL     1      43.409  -9.617   8.167  1.00  0.00    -0.046 NA
HETATM    5  C   UNL     1      44.267 -10.532   8.724  1.00  0.00     0.166 A 
HETATM    6  N   UNL     1      44.439 -11.663   8.021  1.00  0.00    -0.140 NA
HETATM    7  N   UNL     1      42.273  -9.765   6.046  1.00  0.00    -0.192 N 
HETATM    8  C   UNL     1      42.067 -10.476   4.868  1.00  0.00     0.037 A 
HETATM    9  C   UNL     1      41.240  -9.750   3.831  1.00  0.00     0.070 C 
HETATM   10  C   UNL     1      42.620 -11.711   4.699  1.00  0.00     0.062 A 
HETATM   11  H   UNL     1      41.865  -8.836   6.113  1.00  0.00     0.184 HD
ENDROOT
BRANCH  10  12
HETATM   12  C   UNL     1      42.350 -12.497   3.439  1.00  0.00     0.256 C 
HETATM   13  N   UNL     1      41.037 -12.868   3.216  1.00  0.00    -0.323 N 
HETATM   14  H   UNL     1      40.316 -12.346   3.690  1.00  0.00     0.169 HD
HETATM   15  O   UNL     1      43.257 -12.684   2.631  1.00  0.00    -0.267 OA
BRANCH  13  16
HETATM   16  C   UNL     1      40.587 -13.495   2.027  1.00  0.00     0.041 A 
HETATM   17  C   UNL     1      40.439 -14.882   1.860  1.00  0.00    -0.035 A 
HETATM   18  C   UNL     1      40.629 -15.889   2.960  1.00  0.00     0.050 C 
HETATM   19  C   UNL     1      40.050 -15.373   0.598  1.00  0.00     0.009 A 
HETATM   20  C   UNL     1      39.764 -14.507  -0.458  1.00  0.00     0.001 A 
HETATM   21  C   UNL     1      39.847 -13.134  -0.265  1.00  0.00     0.002 A 
HETATM   22  C   UNL     1      40.245 -12.630   0.973  1.00  0.00     0.030 A 
ENDBRANCH  13  16
ENDBRANCH  10  12
BRANCH   1  23
HETATM   23  C   UNL     1      43.082 -13.724   6.260  1.00  0.00    -0.028 A 
HETATM   24  C   UNL     1      41.740 -14.129   6.363  1.00  0.00     0.016 A 
HETATM   25  C   UNL     1      41.408 -15.448   6.700  1.00  0.00    -0.061 A 
HETATM   26  C   UNL     1      39.975 -15.894   6.709  1.00  0.00     0.048 C 
HETATM   27  C   UNL     1      42.430 -16.368   6.956  1.00  0.00     0.007 A 
HETATM   28  C   UNL     1      43.764 -15.973   6.900  1.00  0.00     0.001 A 
HETATM   29  C   UNL     1      44.088 -14.664   6.554  1.00  0.00     0.010 A 
ENDBRANCH   1  23
BRANCH   5  30
HETATM   30  C   UNL     1      44.922 -10.307  10.037  1.00  0.00     0.085 C 
BRANCH  30  31
HETATM   31  C   UNL     1      44.018  -9.592  11.040  1.00  0.00     0.034 C 
BRANCH  31  32
HETATM   32  C   UNL     1      43.235 -10.524  11.960  1.00  0.00     0.164 C 
BRANCH  32  33
HETATM   33  O   UNL     1      43.785 -11.834  11.951  1.00  0.00    -0.401 OA
HETATM   34  H   UNL     1      43.282 -12.352  12.610  1.00  0.00     0.209 HD
ENDBRANCH  32  33
ENDBRANCH  31  32
ENDBRANCH  30  31
ENDBRANCH   5  30
TORSDOF 7
ENDMDL
MODEL 2
REMARK VINA RESULT:      -8.7      2.545      3.606
REMARK  7 active torsions:
REMARK  status: ('A' for Active; 'I' for Inactive)
REMARK    1  A    between atoms: C_4  and  C_5 
REMARK    2  A    between atoms: C_9  and  C_10 
REMARK    3  A    between atoms: C_10  and  C_11 
REMARK    4  A    between atoms: C_11  and  C_12 
REMARK    5  A    between atoms: C_12  and  O_13 
REMARK    6  A    between atoms: C_18  and  C_19 
REMARK       I    between atoms: C_19  and  N_20 
REMARK    7  A    between atoms: N_20  and  C_21 
ROOT
HETATM    1  C   UNL     1      42.416 -12.668   3.229  1.00  0.00     0.202 A 
HETATM    2  N   UNL     1      43.054 -12.104   4.426  1.00  0.00    -0.083 N 
HETATM    3  C   UNL     1      42.395 -11.365   5.364  1.00  0.00     0.726 A 
HETATM    4  N   UNL     1      43.243 -10.927   6.258  1.00  0.00    -0.046 NA
HETATM    5  C   UNL     1      44.447 -11.390   5.790  1.00  0.00     0.166 A 
HETATM    6  N   UNL     1      44.388 -12.110   4.658  1.00  0.00    -0.140 NA
HETATM    7  N   UNL     1      41.075 -11.170   5.233  1.00  0.00    -0.192 N 
HETATM    8  C   UNL     1      40.328 -11.622   4.150  1.00  0.00     0.037 A 
HETATM    9  C   UNL     1      38.876 -11.202   4.166  1.00  0.00     0.070 C 
HETATM   10  C   UNL     1      40.918 -12.353   3.160  1.00  0.00     0.062 A 
HETATM   11  H   UNL     1      40.598 -10.603   5.930  1.00  0.00     0.184 HD
ENDROOT
BRANCH  10  12
HETATM   12  C   UNL     1      40.090 -12.884   2.015  1.00  0.00     0.256 C 
HETATM   13  N   UNL     1      40.195 -12.205   0.815  1.00  0.00    -0.323 N 
HETATM   14  H   UNL     1      41.015 -11.637   0.668  1.00  0.00     0.169 HD
HETATM   15  O   UNL     1      39.454 -13.926   2.155  1.00  0.00    -0.267 OA
BRANCH  13  16
HETATM   16  C   UNL     1      39.591 -12.641  -0.391  1.00  0.00     0.041 A 
HETATM   17  C   UNL     1      38.328 -12.228  -0.849  1.00  0.00    -0.035 A 
HETATM   18  C   UNL     1      37.490 -11.176  -0.177  1.00  0.00     0.050 C 
HETATM   19  C   UNL     1      37.819 -12.799  -2.032  1.00  0.00     0.009 A 
HETATM   20  C   UNL     1      38.565 -13.716  -2.772  1.00  0.00     0.001 A 
HETATM   21  C   UNL     1      39.840 -14.069  -2.349  1.00  0.00     0.002 A 
HETATM   22  C   UNL     1      40.355 -13.526  -1.172  1.00  0.00     0.030 A 
ENDBRANCH  13  16
ENDBRANCH  10  12
BRANCH   1  23
HETATM   23  C   UNL     1      42.782 -14.148   3.092  1.00  0.00    -0.028 A 
HETATM   24  C   UNL     1      42.774 -15.035   4.182  1.00  0.00     0.016 A 
HETATM   25  C   UNL     1      43.031 -16.401   4.002  1.00  0.00    -0.061 A 
HETATM   26  C   UNL     1      42.922 -17.355   5.156  1.00  0.00     0.048 C 
HETATM   27  C   UNL     1      43.320 -16.882   2.721  1.00  0.00     0.007 A 
HETATM   28  C   UNL     1      43.373 -16.010   1.637  1.00  0.00     0.001 A 
HETATM   29  C   UNL     1      43.106 -14.655   1.819  1.00  0.00     0.010 A 
ENDBRANCH   1  23
BRANCH   5  30
HETATM   30  C   UNL     1      45.722 -11.152   6.512  1.00  0.00     0.085 C 
BRANCH  30  31
HETATM   31  C   UNL     1      45.515 -10.748   7.972  1.00  0.00     0.034 C 
BRANCH  31  32
HETATM   32  C   UNL     1      45.912  -9.310   8.290  1.00  0.00     0.164 C 
BRANCH  32  33
HETATM   33  O   UNL     1      46.971  -8.873   7.450  1.00  0.00    -0.401 OA
HETATM   34  H   UNL     1      47.516  -9.660   7.256  1.00  0.00     0.209 HD
ENDBRANCH  32  33
ENDBRANCH  31  32
ENDBRANCH  30  31
ENDBRANCH   5  30
TORSDOF 7
ENDMDL
MODEL 3
REMARK VINA RESULT:      -8.7      2.285      3.090
REMARK  7 active torsions:
REMARK  status: ('A' for Active; 'I' for Inactive)
REMARK    1  A    between atoms: C_4  and  C_5 
REMARK    2  A    between atoms: C_9  and  C_10 
REMARK    3  A    between atoms: C_10  and  C_11 
REMARK    4  A    between atoms: C_11  and  C_12 
REMARK    5  A    between atoms: C_12  and  O_13 
REMARK    6  A    between atoms: C_18  and  C_19 
REMARK       I    between atoms: C_19  and  N_20 
REMARK    7  A    between atoms: N_20  and  C_21 
ROOT
HETATM    1  C   UNL     1      41.933 -12.476   3.987  1.00  0.00     0.202 A 
HETATM    2  N   UNL     1      42.657 -11.889   5.122  1.00  0.00    -0.083 N 
HETATM    3  C   UNL     1      42.178 -10.864   5.884  1.00  0.00     0.726 A 
HETATM    4  N   UNL     1      43.082 -10.500   6.755  1.00  0.00    -0.046 NA
HETATM    5  C   UNL     1      44.145 -11.313   6.451  1.00  0.00     0.166 A 
HETATM    6  N   UNL     1      43.940 -12.178   5.444  1.00  0.00    -0.140 NA
HETATM    7  N   UNL     1      40.952 -10.380   5.632  1.00  0.00    -0.192 N 
HETATM    8  C   UNL     1      40.148 -10.815   4.584  1.00  0.00     0.037 A 
HETATM    9  C   UNL     1      38.847 -10.060   4.433  1.00  0.00     0.070 C 
HETATM   10  C   UNL     1      40.564 -11.823   3.765  1.00  0.00     0.062 A 
HETATM   11  H   UNL     1      40.613  -9.606   6.196  1.00  0.00     0.184 HD
ENDROOT
BRANCH  10  12
HETATM   12  C   UNL     1      39.663 -12.324   2.662  1.00  0.00     0.256 C 
HETATM   13  N   UNL     1      40.029 -11.992   1.371  1.00  0.00    -0.323 N 
HETATM   14  H   UNL     1      40.992 -11.741   1.207  1.00  0.00     0.169 HD
HETATM   15  O   UNL     1      38.726 -13.071   2.933  1.00  0.00    -0.267 OA
BRANCH  13  16
HETATM   16  C   UNL     1      39.372 -12.484   0.215  1.00  0.00     0.041 A 
HETATM   17  C   UNL     1      39.640 -13.723  -0.391  1.00  0.00    -0.035 A 
HETATM   18  C   UNL     1      40.583 -14.751   0.170  1.00  0.00     0.050 C 
HETATM   19  C   UNL     1      38.960 -14.055  -1.580  1.00  0.00     0.009 A 
HETATM   20  C   UNL     1      38.000 -13.202  -2.126  1.00  0.00     0.001 A 
HETATM   21  C   UNL     1      37.693 -12.009  -1.484  1.00  0.00     0.002 A 
HETATM   22  C   UNL     1      38.366 -11.658  -0.314  1.00  0.00     0.030 A 
ENDBRANCH  13  16
ENDBRANCH  10  12
BRANCH   1  23
HETATM   23  C   UNL     1      41.920 -14.001   4.109  1.00  0.00    -0.028 A 
HETATM   24  C   UNL     1      42.555 -14.841   3.177  1.00  0.00     0.016 A 
HETATM   25  C   UNL     1      42.595 -16.229   3.368  1.00  0.00    -0.061 A 
HETATM   26  C   UNL     1      43.361 -17.106   2.420  1.00  0.00     0.048 C 
HETATM   27  C   UNL     1      41.976 -16.786   4.492  1.00  0.00     0.007 A 
HETATM   28  C   UNL     1      41.307 -15.972   5.402  1.00  0.00     0.001 A 
HETATM   29  C   UNL     1      41.279 -14.592   5.214  1.00  0.00     0.010 A 
ENDBRANCH   1  23
BRANCH   5  30
HETATM   30  C   UNL     1      45.418 -11.272   7.214  1.00  0.00     0.085 C 
BRANCH  30  31
HETATM   31  C   UNL     1      45.323 -10.434   8.488  1.00  0.00     0.034 C 
BRANCH  31  32
HETATM   32  C   UNL     1      45.873  -9.017   8.353  1.00  0.00     0.164 C 
BRANCH  32  33
HETATM   33  O   UNL     1      46.947  -8.971   7.424  1.00  0.00    -0.401 OA
HETATM   34  H   UNL     1      47.495  -8.200   7.671  1.00  0.00     0.209 HD
ENDBRANCH  32  33
ENDBRANCH  31  32
ENDBRANCH  30  31
ENDBRANCH   5  30
TORSDOF 7
ENDMDL
MODEL 4
REMARK VINA RESULT:      -8.2      3.705      6.688
REMARK  7 active torsions:
REMARK  status: ('A' for Active; 'I' for Inactive)
REMARK    1  A    between atoms: C_4  and  C_5 
REMARK    2  A    between atoms: C_9  and  C_10 
REMARK    3  A    between atoms: C_10  and  C_11 
REMARK    4  A    between atoms: C_11  and  C_12 
REMARK    5  A    between atoms: C_12  and  O_13 
REMARK    6  A    between atoms: C_18  and  C_19 
REMARK       I    between atoms: C_19  and  N_20 
REMARK    7  A    between atoms: N_20  and  C_21 
ROOT
HETATM    1  C   UNL     1      42.186 -12.394   2.256  1.00  0.00     0.202 A 
HETATM    2  N   UNL     1      41.181 -11.375   1.927  1.00  0.00    -0.083 N 
HETATM    3  C   UNL     1      40.028 -11.634   1.245  1.00  0.00     0.726 A 
HETATM    4  N   UNL     1      39.384 -10.518   1.025  1.00  0.00    -0.046 NA
HETATM    5  C   UNL     1      40.222  -9.571   1.557  1.00  0.00     0.166 A 
HETATM    6  N   UNL     1      41.349 -10.045   2.114  1.00  0.00    -0.140 NA
HETATM    7  N   UNL     1      39.751 -12.897   0.886  1.00  0.00    -0.192 N 
HETATM    8  C   UNL     1      40.606 -13.971   1.108  1.00  0.00     0.037 A 
HETATM    9  C   UNL     1      40.130 -15.285   0.532  1.00  0.00     0.070 C 
HETATM   10  C   UNL     1      41.787 -13.791   1.766  1.00  0.00     0.062 A 
HETATM   11  H   UNL     1      38.897 -13.074   0.364  1.00  0.00     0.184 HD
ENDROOT
BRANCH  10  12
HETATM   12  C   UNL     1      42.686 -14.971   2.048  1.00  0.00     0.256 C 
HETATM   13  N   UNL     1      42.179 -15.940   2.894  1.00  0.00    -0.323 N 
HETATM   14  H   UNL     1      41.179 -15.987   3.007  1.00  0.00     0.169 HD
HETATM   15  O   UNL     1      43.757 -15.075   1.455  1.00  0.00    -0.267 OA
BRANCH  13  16
HETATM   16  C   UNL     1      42.833 -17.169   3.162  1.00  0.00     0.041 A 
HETATM   17  C   UNL     1      43.629 -17.422   4.292  1.00  0.00    -0.035 A 
HETATM   18  C   UNL     1      43.806 -16.458   5.433  1.00  0.00     0.050 C 
HETATM   19  C   UNL     1      44.279 -18.668   4.396  1.00  0.00     0.009 A 
HETATM   20  C   UNL     1      44.101 -19.658   3.430  1.00  0.00     0.001 A 
HETATM   21  C   UNL     1      43.259 -19.426   2.351  1.00  0.00     0.002 A 
HETATM   22  C   UNL     1      42.620 -18.193   2.223  1.00  0.00     0.030 A 
ENDBRANCH  13  16
ENDBRANCH  10  12
BRANCH   1  23
HETATM   23  C   UNL     1      42.559 -12.300   3.737  1.00  0.00    -0.028 A 
HETATM   24  C   UNL     1      43.840 -11.917   4.173  1.00  0.00     0.016 A 
HETATM   25  C   UNL     1      44.119 -11.760   5.538  1.00  0.00    -0.061 A 
HETATM   26  C   UNL     1      45.460 -11.256   5.986  1.00  0.00     0.048 C 
HETATM   27  C   UNL     1      43.113 -12.007   6.477  1.00  0.00     0.007 A 
HETATM   28  C   UNL     1      41.851 -12.427   6.064  1.00  0.00     0.001 A 
HETATM   29  C   UNL     1      41.576 -12.571   4.707  1.00  0.00     0.010 A 
ENDBRANCH   1  23
BRANCH   5  30
HETATM   30  C   UNL     1      39.884  -8.125   1.560  1.00  0.00     0.085 C 
BRANCH  30  31
HETATM   31  C   UNL     1      40.904  -7.272   0.806  1.00  0.00     0.034 C 
BRANCH  31  32
HETATM   32  C   UNL     1      41.390  -7.883  -0.505  1.00  0.00     0.164 C 
BRANCH  32  33
HETATM   33  O   UNL     1      42.685  -8.447  -0.359  1.00  0.00    -0.401 OA
HETATM   34  H   UNL     1      42.584  -9.412  -0.478  1.00  0.00     0.209 HD
ENDBRANCH  32  33
ENDBRANCH  31  32
ENDBRANCH  30  31
ENDBRANCH   5  30
TORSDOF 7
ENDMDL
MODEL 5
REMARK VINA RESULT:      -8.1      2.406      3.813
REMARK  7 active torsions:
REMARK  status: ('A' for Active; 'I' for Inactive)
REMARK    1  A    between atoms: C_4  and  C_5 
REMARK    2  A    between atoms: C_9  and  C_10 
REMARK    3  A    between atoms: C_10  and  C_11 
REMARK    4  A    between atoms: C_11  and  C_12 
REMARK    5  A    between atoms: C_12  and  O_13 
REMARK    6  A    between atoms: C_18  and  C_19 
REMARK       I    between atoms: C_19  and  N_20 
REMARK    7  A    between atoms: N_20  and  C_21 
ROOT
HETATM    1  C   UNL     1      42.439 -12.392   2.564  1.00  0.00     0.202 A 
HETATM    2  N   UNL     1      42.784 -11.841   3.881  1.00  0.00    -0.083 N 
HETATM    3  C   UNL     1      42.279 -10.674   4.375  1.00  0.00     0.726 A 
HETATM    4  N   UNL     1      42.839 -10.401   5.525  1.00  0.00    -0.046 NA
HETATM    5  C   UNL     1      43.740 -11.425   5.677  1.00  0.00     0.166 A 
HETATM    6  N   UNL     1      43.755 -12.332   4.687  1.00  0.00    -0.140 NA
HETATM    7  N   UNL     1      41.373  -9.996   3.654  1.00  0.00    -0.192 N 
HETATM    8  C   UNL     1      40.955 -10.375   2.383  1.00  0.00     0.037 A 
HETATM    9  C   UNL     1      40.001  -9.408   1.719  1.00  0.00     0.070 C 
HETATM   10  C   UNL     1      41.429 -11.519   1.811  1.00  0.00     0.062 A 
HETATM   11  H   UNL     1      41.016  -9.120   4.026  1.00  0.00     0.184 HD
ENDROOT
BRANCH  10  12
HETATM   12  C   UNL     1      40.931 -11.950   0.452  1.00  0.00     0.256 C 
HETATM   13  N   UNL     1      39.797 -12.741   0.435  1.00  0.00    -0.323 N 
HETATM   14  H   UNL     1      39.197 -12.717   1.245  1.00  0.00     0.169 HD
HETATM   15  O   UNL     1      41.471 -11.512  -0.561  1.00  0.00    -0.267 OA
BRANCH  13  16
HETATM   16  C   UNL     1      39.124 -13.126  -0.752  1.00  0.00     0.041 A 
HETATM   17  C   UNL     1      38.077 -12.405  -1.348  1.00  0.00    -0.035 A 
HETATM   18  C   UNL     1      37.599 -11.061  -0.871  1.00  0.00     0.050 C 
HETATM   19  C   UNL     1      37.449 -12.943  -2.489  1.00  0.00     0.009 A 
HETATM   20  C   UNL     1      37.885 -14.141  -3.056  1.00  0.00     0.001 A 
HETATM   21  C   UNL     1      38.965 -14.814  -2.500  1.00  0.00     0.002 A 
HETATM   22  C   UNL     1      39.588 -14.304  -1.362  1.00  0.00     0.030 A 
ENDBRANCH  13  16
ENDBRANCH  10  12
BRANCH   1  23
HETATM   23  C   UNL     1      42.060 -13.868   2.699  1.00  0.00    -0.028 A 
HETATM   24  C   UNL     1      42.869 -14.907   2.206  1.00  0.00     0.016 A 
HETATM   25  C   UNL     1      42.530 -16.249   2.423  1.00  0.00    -0.061 A 
HETATM   26  C   UNL     1      43.452 -17.348   1.979  1.00  0.00     0.048 C 
HETATM   27  C   UNL     1      41.359 -16.557   3.124  1.00  0.00     0.007 A 
HETATM   28  C   UNL     1      40.525 -15.541   3.583  1.00  0.00     0.001 A 
HETATM   29  C   UNL     1      40.872 -14.208   3.373  1.00  0.00     0.010 A 
ENDBRANCH   1  23
BRANCH   5  30
HETATM   30  C   UNL     1      44.605 -11.548   6.877  1.00  0.00     0.085 C 
BRANCH  30  31
HETATM   31  C   UNL     1      44.662 -10.264   7.705  1.00  0.00     0.034 C 
BRANCH  31  32
HETATM   32  C   UNL     1      43.822 -10.296   8.978  1.00  0.00     0.164 C 
BRANCH  32  33
HETATM   33  O   UNL     1      42.443 -10.123   8.687  1.00  0.00    -0.401 OA
HETATM   34  H   UNL     1      42.074 -11.017   8.544  1.00  0.00     0.209 HD
ENDBRANCH  32  33
ENDBRANCH  31  32
ENDBRANCH  30  31
ENDBRANCH   5  30
TORSDOF 7
ENDMDL
MODEL 6
REMARK VINA RESULT:      -8.1      3.977      7.125
REMARK  7 active torsions:
REMARK  status: ('A' for Active; 'I' for Inactive)
REMARK    1  A    between atoms: C_4  and  C_5 
REMARK    2  A    between atoms: C_9  and  C_10 
REMARK    3  A    between atoms: C_10  and  C_11 
REMARK    4  A    between atoms: C_11  and  C_12 
REMARK    5  A    between atoms: C_12  and  O_13 
REMARK    6  A    between atoms: C_18  and  C_19 
REMARK       I    between atoms: C_19  and  N_20 
REMARK    7  A    between atoms: N_20  and  C_21 
ROOT
HETATM    1  C   UNL     1      41.926 -12.779   1.819  1.00  0.00     0.202 A 
HETATM    2  N   UNL     1      41.524 -11.646   0.975  1.00  0.00    -0.083 N 
HETATM    3  C   UNL     1      40.645 -11.742  -0.064  1.00  0.00     0.726 A 
HETATM    4  N   UNL     1      40.559 -10.592  -0.679  1.00  0.00    -0.046 NA
HETATM    5  C   UNL     1      41.463  -9.814  -0.000  1.00  0.00     0.166 A 
HETATM    6  N   UNL     1      42.094 -10.418   1.020  1.00  0.00    -0.140 NA
HETATM    7  N   UNL     1      40.061 -12.922  -0.317  1.00  0.00    -0.192 N 
HETATM    8  C   UNL     1      40.345 -14.093   0.377  1.00  0.00     0.037 A 
HETATM    9  C   UNL     1      39.639 -15.324  -0.145  1.00  0.00     0.070 C 
HETATM   10  C   UNL     1      41.228 -14.084   1.417  1.00  0.00     0.062 A 
HETATM   11  H   UNL     1      39.420 -12.985  -1.104  1.00  0.00     0.184 HD
ENDROOT
BRANCH  10  12
HETATM   12  C   UNL     1      41.493 -15.348   2.199  1.00  0.00     0.256 C 
HETATM   13  N   UNL     1      42.781 -15.847   2.143  1.00  0.00    -0.323 N 
HETATM   14  H   UNL     1      43.519 -15.211   1.884  1.00  0.00     0.169 HD
HETATM   15  O   UNL     1      40.611 -15.816   2.916  1.00  0.00    -0.267 OA
BRANCH  13  16
HETATM   16  C   UNL     1      43.233 -16.947   2.915  1.00  0.00     0.041 A 
HETATM   17  C   UNL     1      43.603 -16.876   4.269  1.00  0.00    -0.035 A 
HETATM   18  C   UNL     1      43.462 -15.644   5.119  1.00  0.00     0.050 C 
HETATM   19  C   UNL     1      44.104 -18.036   4.893  1.00  0.00     0.009 A 
HETATM   20  C   UNL     1      44.185 -19.248   4.209  1.00  0.00     0.001 A 
HETATM   21  C   UNL     1      43.754 -19.326   2.890  1.00  0.00     0.002 A 
HETATM   22  C   UNL     1      43.270 -18.185   2.251  1.00  0.00     0.030 A 
ENDBRANCH  13  16
ENDBRANCH  10  12
BRANCH   1  23
HETATM   23  C   UNL     1      41.804 -12.398   3.296  1.00  0.00    -0.028 A 
HETATM   24  C   UNL     1      40.564 -12.214   3.932  1.00  0.00     0.016 A 
HETATM   25  C   UNL     1      40.491 -11.950   5.306  1.00  0.00    -0.061 A 
HETATM   26  C   UNL     1      39.159 -11.853   5.992  1.00  0.00     0.048 C 
HETATM   27  C   UNL     1      41.671 -11.849   6.050  1.00  0.00     0.007 A 
HETATM   28  C   UNL     1      42.909 -11.987   5.428  1.00  0.00     0.001 A 
HETATM   29  C   UNL     1      42.976 -12.260   4.064  1.00  0.00     0.010 A 
ENDBRANCH   1  23
BRANCH   5  30
HETATM   30  C   UNL     1      41.692  -8.387  -0.339  1.00  0.00     0.085 C 
BRANCH  30  31
HETATM   31  C   UNL     1      42.721  -8.195  -1.453  1.00  0.00     0.034 C 
BRANCH  31  32
HETATM   32  C   UNL     1      43.361  -6.811  -1.489  1.00  0.00     0.164 C 
BRANCH  32  33
HETATM   33  O   UNL     1      43.350  -6.207  -0.203  1.00  0.00    -0.401 OA
HETATM   34  H   UNL     1      42.412  -6.121   0.056  1.00  0.00     0.209 HD
ENDBRANCH  32  33
ENDBRANCH  31  32
ENDBRANCH  30  31
ENDBRANCH   5  30
TORSDOF 7
ENDMDL
MODEL 7
REMARK VINA RESULT:      -8.1      3.417      6.026
REMARK  7 active torsions:
REMARK  status: ('A' for Active; 'I' for Inactive)
REMARK    1  A    between atoms: C_4  and  C_5 
REMARK    2  A    between atoms: C_9  and  C_10 
REMARK    3  A    between atoms: C_10  and  C_11 
REMARK    4  A    between atoms: C_11  and  C_12 
REMARK    5  A    between atoms: C_12  and  O_13 
REMARK    6  A    between atoms: C_18  and  C_19 
REMARK       I    between atoms: C_19  and  N_20 
REMARK    7  A    between atoms: N_20  and  C_21 
ROOT
HETATM    1  C   UNL     1      42.397 -12.605   2.670  1.00  0.00     0.202 A 
HETATM    2  N   UNL     1      41.408 -11.533   2.496  1.00  0.00    -0.083 N 
HETATM    3  C   UNL     1      40.206 -11.699   1.872  1.00  0.00     0.726 A 
HETATM    4  N   UNL     1      39.587 -10.550   1.791  1.00  0.00    -0.046 NA
HETATM    5  C   UNL     1      40.490  -9.677   2.345  1.00  0.00     0.166 A 
HETATM    6  N   UNL     1      41.632 -10.229   2.784  1.00  0.00    -0.140 NA
HETATM    7  N   UNL     1      39.864 -12.917   1.426  1.00  0.00    -0.192 N 
HETATM    8  C   UNL     1      40.694 -14.030   1.499  1.00  0.00     0.037 A 
HETATM    9  C   UNL     1      40.137 -15.275   0.846  1.00  0.00     0.070 C 
HETATM   10  C   UNL     1      41.920 -13.942   2.091  1.00  0.00     0.062 A 
HETATM   11  H   UNL     1      38.972 -13.024   0.949  1.00  0.00     0.184 HD
ENDROOT
BRANCH  10  12
HETATM   12  C   UNL     1      42.794 -15.167   2.211  1.00  0.00     0.256 C 
HETATM   13  N   UNL     1      42.347 -16.158   3.065  1.00  0.00    -0.323 N 
HETATM   14  H   UNL     1      41.365 -16.174   3.293  1.00  0.00     0.169 HD
HETATM   15  O   UNL     1      43.784 -15.281   1.492  1.00  0.00    -0.267 OA
BRANCH  13  16
HETATM   16  C   UNL     1      42.975 -17.422   3.199  1.00  0.00     0.041 A 
HETATM   17  C   UNL     1      43.862 -17.771   4.232  1.00  0.00    -0.035 A 
HETATM   18  C   UNL     1      44.181 -16.885   5.404  1.00  0.00     0.050 C 
HETATM   19  C   UNL     1      44.469 -19.041   4.201  1.00  0.00     0.009 A 
HETATM   20  C   UNL     1      44.164 -19.965   3.201  1.00  0.00     0.001 A 
HETATM   21  C   UNL     1      43.235 -19.638   2.222  1.00  0.00     0.002 A 
HETATM   22  C   UNL     1      42.635 -18.379   2.227  1.00  0.00     0.030 A 
ENDBRANCH  13  16
ENDBRANCH  10  12
BRANCH   1  23
HETATM   23  C   UNL     1      42.866 -12.651   4.126  1.00  0.00    -0.028 A 
HETATM   24  C   UNL     1      44.021 -11.985   4.571  1.00  0.00     0.016 A 
HETATM   25  C   UNL     1      44.372 -11.980   5.928  1.00  0.00    -0.061 A 
HETATM   26  C   UNL     1      45.552 -11.183   6.406  1.00  0.00     0.048 C 
HETATM   27  C   UNL     1      43.570 -12.664   6.847  1.00  0.00     0.007 A 
HETATM   28  C   UNL     1      42.445 -13.363   6.417  1.00  0.00     0.001 A 
HETATM   29  C   UNL     1      42.095 -13.356   5.069  1.00  0.00     0.010 A 
ENDBRANCH   1  23
BRANCH   5  30
HETATM   30  C   UNL     1      40.202  -8.228   2.494  1.00  0.00     0.085 C 
BRANCH  30  31
HETATM   31  C   UNL     1      39.661  -7.866   3.877  1.00  0.00     0.034 C 
BRANCH  31  32
HETATM   32  C   UNL     1      38.139  -7.816   3.965  1.00  0.00     0.164 C 
BRANCH  32  33
HETATM   33  O   UNL     1      37.613  -9.039   4.459  1.00  0.00    -0.401 OA
HETATM   34  H   UNL     1      37.198  -8.836   5.320  1.00  0.00     0.209 HD
ENDBRANCH  32  33
ENDBRANCH  31  32
ENDBRANCH  30  31
ENDBRANCH   5  30
TORSDOF 7
ENDMDL
MODEL 8
REMARK VINA RESULT:      -7.9      3.095      5.874
REMARK  7 active torsions:
REMARK  status: ('A' for Active; 'I' for Inactive)
REMARK    1  A    between atoms: C_4  and  C_5 
REMARK    2  A    between atoms: C_9  and  C_10 
REMARK    3  A    between atoms: C_10  and  C_11 
REMARK    4  A    between atoms: C_11  and  C_12 
REMARK    5  A    between atoms: C_12  and  O_13 
REMARK    6  A    between atoms: C_18  and  C_19 
REMARK       I    between atoms: C_19  and  N_20 
REMARK    7  A    between atoms: N_20  and  C_21 
ROOT
HETATM    1  C   UNL     1      40.082 -13.353   4.300  1.00  0.00     0.202 A 
HETATM    2  N   UNL     1      39.947 -11.931   4.639  1.00  0.00    -0.083 N 
HETATM    3  C   UNL     1      40.726 -11.288   5.556  1.00  0.00     0.726 A 
HETATM    4  N   UNL     1      40.309 -10.059   5.706  1.00  0.00    -0.046 NA
HETATM    5  C   UNL     1      39.214 -10.003   4.882  1.00  0.00     0.166 A 
HETATM    6  N   UNL     1      38.939 -11.134   4.211  1.00  0.00    -0.140 NA
HETATM    7  N   UNL     1      41.716 -11.963   6.160  1.00  0.00    -0.192 N 
HETATM    8  C   UNL     1      41.964 -13.317   5.961  1.00  0.00     0.037 A 
HETATM    9  C   UNL     1      43.069 -13.888   6.821  1.00  0.00     0.070 C 
HETATM   10  C   UNL     1      41.216 -14.035   5.075  1.00  0.00     0.062 A 
HETATM   11  H   UNL     1      42.279 -11.478   6.852  1.00  0.00     0.184 HD
ENDROOT
BRANCH  10  12
HETATM   12  C   UNL     1      41.525 -15.492   4.827  1.00  0.00     0.256 C 
HETATM   13  N   UNL     1      42.580 -15.760   3.975  1.00  0.00    -0.323 N 
HETATM   14  H   UNL     1      43.265 -15.033   3.834  1.00  0.00     0.169 HD
HETATM   15  O   UNL     1      40.916 -16.358   5.451  1.00  0.00    -0.267 OA
BRANCH  13  16
HETATM   16  C   UNL     1      43.085 -17.062   3.733  1.00  0.00     0.041 A 
HETATM   17  C   UNL     1      43.957 -17.754   4.591  1.00  0.00    -0.035 A 
HETATM   18  C   UNL     1      44.385 -17.253   5.942  1.00  0.00     0.050 C 
HETATM   19  C   UNL     1      44.438 -19.016   4.190  1.00  0.00     0.009 A 
HETATM   20  C   UNL     1      44.023 -19.601   2.993  1.00  0.00     0.001 A 
HETATM   21  C   UNL     1      43.109 -18.940   2.183  1.00  0.00     0.002 A 
HETATM   22  C   UNL     1      42.634 -17.683   2.556  1.00  0.00     0.030 A 
ENDBRANCH  13  16
ENDBRANCH  10  12
BRANCH   1  23
HETATM   23  C   UNL     1      40.132 -13.524   2.780  1.00  0.00    -0.028 A 
HETATM   24  C   UNL     1      40.535 -12.493   1.914  1.00  0.00     0.016 A 
HETATM   25  C   UNL     1      40.650 -12.713   0.534  1.00  0.00    -0.061 A 
HETATM   26  C   UNL     1      41.177 -11.635  -0.367  1.00  0.00     0.048 C 
HETATM   27  C   UNL     1      40.339 -13.973   0.012  1.00  0.00     0.007 A 
HETATM   28  C   UNL     1      39.897 -14.993   0.851  1.00  0.00     0.001 A 
HETATM   29  C   UNL     1      39.795 -14.772   2.222  1.00  0.00     0.010 A 
ENDBRANCH   1  23
BRANCH   5  30
HETATM   30  C   UNL     1      38.415  -8.764   4.707  1.00  0.00     0.085 C 
BRANCH  30  31
HETATM   31  C   UNL     1      39.067  -7.539   5.347  1.00  0.00     0.034 C 
BRANCH  31  32
HETATM   32  C   UNL     1      38.435  -7.105   6.666  1.00  0.00     0.164 C 
BRANCH  32  33
HETATM   33  O   UNL     1      38.709  -8.041   7.698  1.00  0.00    -0.401 OA
HETATM   34  H   UNL     1      39.455  -7.677   8.213  1.00  0.00     0.209 HD
ENDBRANCH  32  33
ENDBRANCH  31  32
ENDBRANCH  30  31
ENDBRANCH   5  30
TORSDOF 7
ENDMDL
MODEL 9
REMARK VINA RESULT:      -7.7      1.517      2.019
REMARK  7 active torsions:
REMARK  status: ('A' for Active; 'I' for Inactive)
REMARK    1  A    between atoms: C_4  and  C_5 
REMARK    2  A    between atoms: C_9  and  C_10 
REMARK    3  A    between atoms: C_10  and  C_11 
REMARK    4  A    between atoms: C_11  and  C_12 
REMARK    5  A    between atoms: C_12  and  O_13 
REMARK    6  A    between atoms: C_18  and  C_19 
REMARK       I    between atoms: C_19  and  N_20 
REMARK    7  A    between atoms: N_20  and  C_21 
ROOT
HETATM    1  C   UNL     1      42.616 -11.769   4.209  1.00  0.00     0.202 A 
HETATM    2  N   UNL     1      42.821 -11.243   5.564  1.00  0.00    -0.083 N 
HETATM    3  C   UNL     1      42.120 -10.198   6.091  1.00  0.00     0.726 A 
HETATM    4  N   UNL     1      42.587  -9.904   7.276  1.00  0.00    -0.046 NA
HETATM    5  C   UNL     1      43.633 -10.781   7.419  1.00  0.00     0.166 A 
HETATM    6  N   UNL     1      43.827 -11.619   6.388  1.00  0.00    -0.140 NA
HETATM    7  N   UNL     1      41.145  -9.632   5.363  1.00  0.00    -0.192 N 
HETATM    8  C   UNL     1      40.839 -10.002   4.058  1.00  0.00     0.037 A 
HETATM    9  C   UNL     1      39.769  -9.161   3.399  1.00  0.00     0.070 C 
HETATM   10  C   UNL     1      41.508 -11.025   3.453  1.00  0.00     0.062 A 
HETATM   11  H   UNL     1      40.641  -8.844   5.760  1.00  0.00     0.184 HD
ENDROOT
BRANCH  10  12
HETATM   12  C   UNL     1      41.135 -11.454   2.054  1.00  0.00     0.256 C 
HETATM   13  N   UNL     1      40.025 -12.269   1.937  1.00  0.00    -0.323 N 
HETATM   14  H   UNL     1      39.359 -12.266   2.695  1.00  0.00     0.169 HD
HETATM   15  O   UNL     1      41.748 -10.994   1.093  1.00  0.00    -0.267 OA
BRANCH  13  16
HETATM   16  C   UNL     1      39.462 -12.658   0.696  1.00  0.00     0.041 A 
HETATM   17  C   UNL     1      39.804 -13.825  -0.008  1.00  0.00    -0.035 A 
HETATM   18  C   UNL     1      40.735 -14.883   0.515  1.00  0.00     0.050 C 
HETATM   19  C   UNL     1      39.216 -14.050  -1.268  1.00  0.00     0.009 A 
HETATM   20  C   UNL     1      38.271 -13.168  -1.794  1.00  0.00     0.001 A 
HETATM   21  C   UNL     1      37.888 -12.052  -1.062  1.00  0.00     0.002 A 
HETATM   22  C   UNL     1      38.471 -11.804   0.181  1.00  0.00     0.030 A 
ENDBRANCH  13  16
ENDBRANCH  10  12
BRANCH   1  23
HETATM   23  C   UNL     1      42.470 -13.291   4.255  1.00  0.00    -0.028 A 
HETATM   24  C   UNL     1      41.605 -13.942   5.153  1.00  0.00     0.016 A 
HETATM   25  C   UNL     1      41.435 -15.333   5.108  1.00  0.00    -0.061 A 
HETATM   26  C   UNL     1      40.435 -16.005   6.004  1.00  0.00     0.048 C 
HETATM   27  C   UNL     1      42.151 -16.083   4.170  1.00  0.00     0.007 A 
HETATM   28  C   UNL     1      43.043 -15.458   3.302  1.00  0.00     0.001 A 
HETATM   29  C   UNL     1      43.201 -14.075   3.343  1.00  0.00     0.010 A 
ENDBRANCH   1  23
BRANCH   5  30
HETATM   30  C   UNL     1      44.461 -10.833   8.650  1.00  0.00     0.085 C 
BRANCH  30  31
HETATM   31  C   UNL     1      44.107  -9.736   9.654  1.00  0.00     0.034 C 
BRANCH  31  32
HETATM   32  C   UNL     1      43.317 -10.221  10.865  1.00  0.00     0.164 C 
BRANCH  32  33
HETATM   33  O   UNL     1      43.614 -11.579  11.160  1.00  0.00    -0.401 OA
HETATM   34  H   UNL     1      43.240 -11.760  12.045  1.00  0.00     0.209 HD
ENDBRANCH  32  33
ENDBRANCH  31  32
ENDBRANCH  30  31
ENDBRANCH   5  30
TORSDOF 7
ENDMDL
MODEL 10
REMARK VINA RESULT:      -7.7     17.361     20.100
REMARK  7 active torsions:
REMARK  status: ('A' for Active; 'I' for Inactive)
REMARK    1  A    between atoms: C_4  and  C_5 
REMARK    2  A    between atoms: C_9  and  C_10 
REMARK    3  A    between atoms: C_10  and  C_11 
REMARK    4  A    between atoms: C_11  and  C_12 
REMARK    5  A    between atoms: C_12  and  O_13 
REMARK    6  A    between atoms: C_18  and  C_19 
REMARK       I    between atoms: C_19  and  N_20 
REMARK    7  A    between atoms: N_20  and  C_21 
ROOT
HETATM    1  C   UNL     1      45.300 -30.656  -0.414  1.00  0.00     0.202 A 
HETATM    2  N   UNL     1      44.155 -30.433   0.477  1.00  0.00    -0.083 N 
HETATM    3  C   UNL     1      44.167 -29.571   1.535  1.00  0.00     0.726 A 
HETATM    4  N   UNL     1      43.039 -29.659   2.190  1.00  0.00    -0.046 NA
HETATM    5  C   UNL     1      42.369 -30.647   1.515  1.00  0.00     0.166 A 
HETATM    6  N   UNL     1      43.016 -31.167   0.459  1.00  0.00    -0.140 NA
HETATM    7  N   UNL     1      45.264 -28.834   1.763  1.00  0.00    -0.192 N 
HETATM    8  C   UNL     1      46.436 -28.939   1.023  1.00  0.00     0.037 A 
HETATM    9  C   UNL     1      47.576 -28.080   1.521  1.00  0.00     0.070 C 
HETATM   10  C   UNL     1      46.510 -29.793  -0.039  1.00  0.00     0.062 A 
HETATM   11  H   UNL     1      45.267 -28.207   2.564  1.00  0.00     0.184 HD
ENDROOT
BRANCH  10  12
HETATM   12  C   UNL     1      47.769 -29.863  -0.869  1.00  0.00     0.256 C 
HETATM   13  N   UNL     1      48.493 -31.037  -0.789  1.00  0.00    -0.323 N 
HETATM   14  H   UNL     1      48.011 -31.864  -0.473  1.00  0.00     0.169 HD
HETATM   15  O   UNL     1      48.042 -28.945  -1.640  1.00  0.00    -0.267 OA
BRANCH  13  16
HETATM   16  C   UNL     1      49.625 -31.321  -1.595  1.00  0.00     0.041 A 
HETATM   17  C   UNL     1      49.586 -32.028  -2.809  1.00  0.00    -0.035 A 
HETATM   18  C   UNL     1      48.320 -32.486  -3.479  1.00  0.00     0.050 C 
HETATM   19  C   UNL     1      50.800 -32.301  -3.471  1.00  0.00     0.009 A 
HETATM   20  C   UNL     1      52.016 -31.836  -2.970  1.00  0.00     0.001 A 
HETATM   21  C   UNL     1      52.039 -31.080  -1.806  1.00  0.00     0.002 A 
HETATM   22  C   UNL     1      50.849 -30.813  -1.129  1.00  0.00     0.030 A 
ENDBRANCH  13  16
ENDBRANCH  10  12
BRANCH   1  23
HETATM   23  C   UNL     1      44.852 -30.557  -1.874  1.00  0.00    -0.028 A 
HETATM   24  C   UNL     1      44.829 -31.668  -2.736  1.00  0.00     0.016 A 
HETATM   25  C   UNL     1      44.331 -31.556  -4.042  1.00  0.00    -0.061 A 
HETATM   26  C   UNL     1      44.220 -32.769  -4.919  1.00  0.00     0.048 C 
HETATM   27  C   UNL     1      43.870 -30.317  -4.498  1.00  0.00     0.007 A 
HETATM   28  C   UNL     1      43.925 -29.198  -3.670  1.00  0.00     0.001 A 
HETATM   29  C   UNL     1      44.410 -29.316  -2.370  1.00  0.00     0.010 A 
ENDBRANCH   1  23
BRANCH   5  30
HETATM   30  C   UNL     1      41.000 -31.079   1.896  1.00  0.00     0.085 C 
BRANCH  30  31
HETATM   31  C   UNL     1      40.969 -31.887   3.193  1.00  0.00     0.034 C 
BRANCH  31  32
HETATM   32  C   UNL     1      40.592 -31.078   4.430  1.00  0.00     0.164 C 
BRANCH  32  33
HETATM   33  O   UNL     1      41.699 -30.328   4.909  1.00  0.00    -0.401 OA
HETATM   34  H   UNL     1      42.498 -30.856   4.715  1.00  0.00     0.209 HD
ENDBRANCH  32  33
ENDBRANCH  31  32
ENDBRANCH  30  31
ENDBRANCH   5  30
TORSDOF 7
ENDMDL
