MODEL 1
REMARK VINA RESULT:      -9.3      0.000      0.000
REMARK  5 active torsions:
REMARK  status: ('A' for Active; 'I' for Inactive)
REMARK    1  A    between atoms: C_8  and  N_9 
REMARK       I    between atoms: N_9  and  C_10 
REMARK    2  A    between atoms: C_10  and  C_11 
REMARK    3  A    between atoms: C_11  and  C_12 
REMARK    4  A    between atoms: C_14  and  N_15 
REMARK       I    between atoms: N_15  and  C_16 
REMARK       I    between atoms: C_16  and  N_17 
REMARK    5  A    between atoms: N_17  and  C_18 
ROOT
HETATM    1  C   UNL     1      43.145 -13.799   5.396  1.00  0.00     0.052 A 
HETATM    2  N   UNL     1      42.707 -14.126   4.120  1.00  0.00    -0.228 NA
HETATM    3  C   UNL     1      42.791 -13.079   3.340  1.00  0.00     0.174 A 
HETATM    4  S   UNL     1      43.391 -11.649   4.053  1.00  0.00    -0.062 SA
HETATM    5  C   UNL     1      43.557 -12.486   5.542  1.00  0.00     0.081 A 
ENDROOT
BRANCH   1   6
HETATM    6  C   UNL     1      43.097 -14.850   6.451  1.00  0.00     0.163 C 
BRANCH   6   7
HETATM    7  C   UNL     1      43.863 -16.109   6.072  1.00  0.00     0.227 C 
HETATM    8  N   UNL     1      43.210 -16.901   5.140  1.00  0.00    -0.326 N 
HETATM    9  H   UNL     1      42.442 -16.440   4.649  1.00  0.00     0.169 HD
HETATM   10  O   UNL     1      44.931 -16.367   6.624  1.00  0.00    -0.273 OA
BRANCH   8  11
HETATM   11  C   UNL     1      43.528 -18.227   4.752  1.00  0.00     0.042 A 
HETATM   12  C   UNL     1      43.499 -18.580   3.380  1.00  0.00    -0.014 A 
HETATM   13  C   UNL     1      43.224 -17.542   2.323  1.00  0.00     0.052 C 
HETATM   14  C   UNL     1      43.696 -19.932   3.023  1.00  0.00     0.042 A 
HETATM   15 CL   UNL     1      43.597 -20.483   1.384  1.00  0.00    -0.084 Cl
HETATM   16  C   UNL     1      43.965 -20.901   3.992  1.00  0.00     0.024 A 
HETATM   17  C   UNL     1      44.032 -20.541   5.330  1.00  0.00     0.004 A 
HETATM   18  C   UNL     1      43.811 -19.216   5.706  1.00  0.00     0.030 A 
ENDBRANCH   8  11
ENDBRANCH   6   7
ENDBRANCH   1   6
BRANCH   3  19
HETATM   19  N   UNL     1      42.512 -12.964   2.007  1.00  0.00    -0.287 N 
HETATM   20  C   UNL     1      41.219 -12.843   1.541  1.00  0.00     0.326 C 
HETATM   21  N   UNL     1      41.174 -13.022   0.165  1.00  0.00    -0.309 N 
HETATM   22  O   UNL     1      40.241 -12.642   2.248  1.00  0.00    -0.247 OA
HETATM   23  H   UNL     1      42.059 -13.052  -0.317  1.00  0.00     0.170 HD
HETATM   24  H   UNL     1      43.295 -12.992   1.380  1.00  0.00     0.172 HD
BRANCH  21  25
HETATM   25  C   UNL     1      40.028 -13.193  -0.641  1.00  0.00     0.036 A 
HETATM   26  C   UNL     1      39.744 -14.356  -1.364  1.00  0.00     0.032 A 
HETATM   27  C   UNL     1      38.611 -14.424  -2.183  1.00  0.00     0.044 A 
HETATM   28  C   UNL     1      37.763 -13.331  -2.276  1.00  0.00     0.116 A 
HETATM   29  F   UNL     1      36.684 -13.393  -3.066  1.00  0.00    -0.206 F 
HETATM   30  C   UNL     1      38.020 -12.169  -1.561  1.00  0.00     0.044 A 
HETATM   31  C   UNL     1      39.153 -12.100  -0.744  1.00  0.00     0.032 A 
ENDBRANCH  21  25
ENDBRANCH   3  19
TORSDOF 5
ENDMDL
MODEL 2
REMARK VINA RESULT:      -8.7      6.591      9.604
REMARK  5 active torsions:
REMARK  status: ('A' for Active; 'I' for Inactive)
REMARK    1  A    between atoms: C_8  and  N_9 
REMARK       I    between atoms: N_9  and  C_10 
REMARK    2  A    between atoms: C_10  and  C_11 
REMARK    3  A    between atoms: C_11  and  C_12 
REMARK    4  A    between atoms: C_14  and  N_15 
REMARK       I    between atoms: N_15  and  C_16 
REMARK       I    between atoms: C_16  and  N_17 
REMARK    5  A    between atoms: N_17  and  C_18 
ROOT
HETATM    1  C   UNL     1      45.262 -10.722   8.742  1.00  0.00     0.052 A 
HETATM    2  N   UNL     1      44.148 -11.458   8.366  1.00  0.00    -0.228 NA
HETATM    3  C   UNL     1      44.228 -11.769   7.097  1.00  0.00     0.174 A 
HETATM    4  S   UNL     1      45.615 -11.219   6.269  1.00  0.00    -0.062 SA
HETATM    5  C   UNL     1      46.171 -10.496   7.723  1.00  0.00     0.081 A 
ENDROOT
BRANCH   1   6
HETATM    6  C   UNL     1      45.348 -10.237  10.148  1.00  0.00     0.163 C 
BRANCH   6   7
HETATM    7  C   UNL     1      44.053 -10.425  10.923  1.00  0.00     0.227 C 
HETATM    8  N   UNL     1      43.124  -9.418  10.712  1.00  0.00    -0.326 N 
HETATM    9  H   UNL     1      43.312  -8.826   9.901  1.00  0.00     0.169 HD
HETATM   10  O   UNL     1      43.929 -11.377  11.692  1.00  0.00    -0.273 OA
BRANCH   8  11
HETATM   11  C   UNL     1      41.932  -9.168  11.439  1.00  0.00     0.042 A 
HETATM   12  C   UNL     1      41.998  -8.461  12.665  1.00  0.00    -0.014 A 
HETATM   13  C   UNL     1      43.303  -7.893  13.160  1.00  0.00     0.052 C 
HETATM   14  C   UNL     1      40.822  -8.331  13.437  1.00  0.00     0.042 A 
HETATM   15 CL   UNL     1      40.809  -7.560  14.987  1.00  0.00    -0.084 Cl
HETATM   16  C   UNL     1      39.604  -8.842  12.984  1.00  0.00     0.024 A 
HETATM   17  C   UNL     1      39.539  -9.497  11.762  1.00  0.00     0.004 A 
HETATM   18  C   UNL     1      40.695  -9.662  11.000  1.00  0.00     0.030 A 
ENDBRANCH   8  11
ENDBRANCH   6   7
ENDBRANCH   1   6
BRANCH   3  19
HETATM   19  N   UNL     1      43.380 -12.518   6.332  1.00  0.00    -0.287 N 
HETATM   20  C   UNL     1      43.629 -13.847   6.053  1.00  0.00     0.326 C 
HETATM   21  N   UNL     1      42.788 -14.304   5.047  1.00  0.00    -0.309 N 
HETATM   22  O   UNL     1      44.496 -14.519   6.595  1.00  0.00    -0.247 OA
HETATM   23  H   UNL     1      42.033 -13.693   4.775  1.00  0.00     0.170 HD
HETATM   24  H   UNL     1      42.573 -12.048   5.963  1.00  0.00     0.172 HD
BRANCH  21  25
HETATM   25  C   UNL     1      42.882 -15.521   4.338  1.00  0.00     0.036 A 
HETATM   26  C   UNL     1      43.280 -16.733   4.910  1.00  0.00     0.032 A 
HETATM   27  C   UNL     1      43.398 -17.884   4.124  1.00  0.00     0.044 A 
HETATM   28  C   UNL     1      43.116 -17.823   2.767  1.00  0.00     0.116 A 
HETATM   29  F   UNL     1      43.237 -18.923   2.014  1.00  0.00    -0.206 F 
HETATM   30  C   UNL     1      42.710 -16.632   2.179  1.00  0.00     0.044 A 
HETATM   31  C   UNL     1      42.594 -15.481   2.965  1.00  0.00     0.032 A 
ENDBRANCH  21  25
ENDBRANCH   3  19
TORSDOF 5
ENDMDL
MODEL 3
REMARK VINA RESULT:      -8.7      1.633      2.269
REMARK  5 active torsions:
REMARK  status: ('A' for Active; 'I' for Inactive)
REMARK    1  A    between atoms: C_8  and  N_9 
REMARK       I    between atoms: N_9  and  C_10 
REMARK    2  A    between atoms: C_10  and  C_11 
REMARK    3  A    between atoms: C_11  and  C_12 
REMARK    4  A    between atoms: C_14  and  N_15 
REMARK       I    between atoms: N_15  and  C_16 
REMARK       I    between atoms: C_16  and  N_17 
REMARK    5  A    between atoms: N_17  and  C_18 
ROOT
HETATM    1  C   UNL     1      41.945 -12.912   5.368  1.00  0.00     0.052 A 
HETATM    2  N   UNL     1      41.863 -13.331   4.048  1.00  0.00    -0.228 NA
HETATM    3  C   UNL     1      41.962 -12.300   3.248  1.00  0.00     0.174 A 
HETATM    4  S   UNL     1      42.160 -10.779   3.995  1.00  0.00    -0.062 SA
HETATM    5  C   UNL     1      42.110 -11.548   5.529  1.00  0.00     0.081 A 
ENDROOT
BRANCH   1   6
HETATM    6  C   UNL     1      41.819 -13.936   6.444  1.00  0.00     0.163 C 
BRANCH   6   7
HETATM    7  C   UNL     1      41.782 -15.360   5.910  1.00  0.00     0.227 C 
HETATM    8  N   UNL     1      42.997 -15.800   5.409  1.00  0.00    -0.326 N 
HETATM    9  H   UNL     1      43.802 -15.233   5.677  1.00  0.00     0.169 HD
HETATM   10  O   UNL     1      40.723 -15.985   5.901  1.00  0.00    -0.273 OA
BRANCH   8  11
HETATM   11  C   UNL     1      43.249 -16.966   4.641  1.00  0.00     0.042 A 
HETATM   12  C   UNL     1      43.581 -18.177   5.297  1.00  0.00    -0.014 A 
HETATM   13  C   UNL     1      43.581 -18.264   6.802  1.00  0.00     0.052 C 
HETATM   14  C   UNL     1      43.951 -19.293   4.515  1.00  0.00     0.042 A 
HETATM   15 CL   UNL     1      44.455 -20.793   5.218  1.00  0.00    -0.084 Cl
HETATM   16  C   UNL     1      43.943 -19.229   3.120  1.00  0.00     0.024 A 
HETATM   17  C   UNL     1      43.577 -18.052   2.483  1.00  0.00     0.004 A 
HETATM   18  C   UNL     1      43.238 -16.930   3.238  1.00  0.00     0.030 A 
ENDBRANCH   8  11
ENDBRANCH   6   7
ENDBRANCH   1   6
BRANCH   3  19
HETATM   19  N   UNL     1      41.978 -12.259   1.883  1.00  0.00    -0.287 N 
HETATM   20  C   UNL     1      40.842 -12.486   1.133  1.00  0.00     0.326 C 
HETATM   21  N   UNL     1      41.164 -12.664  -0.206  1.00  0.00    -0.309 N 
HETATM   22  O   UNL     1      39.709 -12.555   1.591  1.00  0.00    -0.247 OA
HETATM   23  H   UNL     1      42.113 -12.455  -0.475  1.00  0.00     0.170 HD
HETATM   24  H   UNL     1      42.864 -12.075   1.449  1.00  0.00     0.172 HD
BRANCH  21  25
HETATM   25  C   UNL     1      40.320 -13.131  -1.237  1.00  0.00     0.036 A 
HETATM   26  C   UNL     1      39.859 -12.339  -2.292  1.00  0.00     0.032 A 
HETATM   27  C   UNL     1      38.980 -12.866  -3.245  1.00  0.00     0.044 A 
HETATM   28  C   UNL     1      38.567 -14.186  -3.143  1.00  0.00     0.116 A 
HETATM   29  F   UNL     1      37.720 -14.688  -4.050  1.00  0.00    -0.206 F 
HETATM   30  C   UNL     1      39.019 -14.994  -2.108  1.00  0.00     0.044 A 
HETATM   31  C   UNL     1      39.895 -14.467  -1.155  1.00  0.00     0.032 A 
ENDBRANCH  21  25
ENDBRANCH   3  19
TORSDOF 5
ENDMDL
MODEL 4
REMARK VINA RESULT:      -8.6      4.353      7.945
REMARK  5 active torsions:
REMARK  status: ('A' for Active; 'I' for Inactive)
REMARK    1  A    between atoms: C_8  and  N_9 
REMARK       I    between atoms: N_9  and  C_10 
REMARK    2  A    between atoms: C_10  and  C_11 
REMARK    3  A    between atoms: C_11  and  C_12 
REMARK    4  A    between atoms: C_14  and  N_15 
REMARK       I    between atoms: N_15  and  C_16 
REMARK       I    between atoms: C_16  and  N_17 
REMARK    5  A    between atoms: N_17  and  C_18 
ROOT
HETATM    1  C   UNL     1      40.005 -12.495   1.831  1.00  0.00     0.052 A 
HETATM    2  N   UNL     1      40.994 -13.387   2.221  1.00  0.00    -0.228 NA
HETATM    3  C   UNL     1      41.197 -14.266   1.274  1.00  0.00     0.174 A 
HETATM    4  S   UNL     1      40.244 -14.099  -0.131  1.00  0.00    -0.062 SA
HETATM    5  C   UNL     1      39.482 -12.732   0.573  1.00  0.00     0.081 A 
ENDROOT
BRANCH   1   6
HETATM    6  C   UNL     1      39.598 -11.428   2.789  1.00  0.00     0.163 C 
BRANCH   6   7
HETATM    7  C   UNL     1      40.166 -11.632   4.185  1.00  0.00     0.227 C 
HETATM    8  N   UNL     1      41.470 -11.183   4.328  1.00  0.00    -0.326 N 
HETATM    9  H   UNL     1      41.794 -10.564   3.584  1.00  0.00     0.169 HD
HETATM   10  O   UNL     1      39.495 -12.202   5.044  1.00  0.00    -0.273 OA
BRANCH   8  11
HETATM   11  C   UNL     1      42.358 -11.426   5.408  1.00  0.00     0.042 A 
HETATM   12  C   UNL     1      42.567 -10.417   6.381  1.00  0.00    -0.014 A 
HETATM   13  C   UNL     1      41.788  -9.128   6.334  1.00  0.00     0.052 C 
HETATM   14  C   UNL     1      43.547 -10.627   7.375  1.00  0.00     0.042 A 
HETATM   15 CL   UNL     1      43.939  -9.427   8.561  1.00  0.00    -0.084 Cl
HETATM   16  C   UNL     1      44.265 -11.823   7.437  1.00  0.00     0.024 A 
HETATM   17  C   UNL     1      44.026 -12.823   6.505  1.00  0.00     0.004 A 
HETATM   18  C   UNL     1      43.084 -12.622   5.497  1.00  0.00     0.030 A 
ENDBRANCH   8  11
ENDBRANCH   6   7
ENDBRANCH   1   6
BRANCH   3  19
HETATM   19  N   UNL     1      42.103 -15.287   1.218  1.00  0.00    -0.287 N 
HETATM   20  C   UNL     1      41.989 -16.409   2.013  1.00  0.00     0.326 C 
HETATM   21  N   UNL     1      43.158 -17.158   1.976  1.00  0.00    -0.309 N 
HETATM   22  O   UNL     1      41.006 -16.686   2.686  1.00  0.00    -0.247 OA
HETATM   23  H   UNL     1      43.844 -16.895   1.286  1.00  0.00     0.170 HD
HETATM   24  H   UNL     1      42.870 -15.173   0.580  1.00  0.00     0.172 HD
BRANCH  21  25
HETATM   25  C   UNL     1      43.511 -18.238   2.814  1.00  0.00     0.036 A 
HETATM   26  C   UNL     1      43.512 -19.577   2.410  1.00  0.00     0.032 A 
HETATM   27  C   UNL     1      43.824 -20.593   3.320  1.00  0.00     0.044 A 
HETATM   28  C   UNL     1      44.137 -20.269   4.632  1.00  0.00     0.116 A 
HETATM   29  F   UNL     1      44.428 -21.242   5.505  1.00  0.00    -0.206 F 
HETATM   30  C   UNL     1      44.150 -18.946   5.053  1.00  0.00     0.044 A 
HETATM   31  C   UNL     1      43.837 -17.931   4.145  1.00  0.00     0.032 A 
ENDBRANCH  21  25
ENDBRANCH   3  19
TORSDOF 5
ENDMDL
MODEL 5
REMARK VINA RESULT:      -8.5      6.177      9.348
REMARK  5 active torsions:
REMARK  status: ('A' for Active; 'I' for Inactive)
REMARK    1  A    between atoms: C_8  and  N_9 
REMARK       I    between atoms: N_9  and  C_10 
REMARK    2  A    between atoms: C_10  and  C_11 
REMARK    3  A    between atoms: C_11  and  C_12 
REMARK    4  A    between atoms: C_14  and  N_15 
REMARK       I    between atoms: N_15  and  C_16 
REMARK       I    between atoms: C_16  and  N_17 
REMARK    5  A    between atoms: N_17  and  C_18 
ROOT
HETATM    1  C   UNL     1      43.686 -11.425   5.335  1.00  0.00     0.052 A 
HETATM    2  N   UNL     1      43.040 -11.604   6.550  1.00  0.00    -0.228 NA
HETATM    3  C   UNL     1      43.898 -11.483   7.530  1.00  0.00     0.174 A 
HETATM    4  S   UNL     1      45.512 -11.150   7.087  1.00  0.00    -0.062 SA
HETATM    5  C   UNL     1      45.041 -11.167   5.437  1.00  0.00     0.081 A 
ENDROOT
BRANCH   1   6
HETATM    6  C   UNL     1      42.887 -11.558   4.083  1.00  0.00     0.163 C 
BRANCH   6   7
HETATM    7  C   UNL     1      42.375 -12.972   3.851  1.00  0.00     0.227 C 
HETATM    8  N   UNL     1      43.328 -13.954   4.074  1.00  0.00    -0.326 N 
HETATM    9  H   UNL     1      44.152 -13.643   4.591  1.00  0.00     0.169 HD
HETATM   10  O   UNL     1      41.227 -13.151   3.448  1.00  0.00    -0.273 OA
BRANCH   8  11
HETATM   11  C   UNL     1      43.254 -15.329   3.734  1.00  0.00     0.042 A 
HETATM   12  C   UNL     1      43.447 -16.309   4.739  1.00  0.00    -0.014 A 
HETATM   13  C   UNL     1      43.638 -15.909   6.179  1.00  0.00     0.052 C 
HETATM   14  C   UNL     1      43.494 -17.668   4.360  1.00  0.00     0.042 A 
HETATM   15 CL   UNL     1      43.808 -18.938   5.495  1.00  0.00    -0.084 Cl
HETATM   16  C   UNL     1      43.305 -18.053   3.031  1.00  0.00     0.024 A 
HETATM   17  C   UNL     1      43.075 -17.090   2.058  1.00  0.00     0.004 A 
HETATM   18  C   UNL     1      43.055 -15.740   2.407  1.00  0.00     0.030 A 
ENDBRANCH   8  11
ENDBRANCH   6   7
ENDBRANCH   1   6
BRANCH   3  19
HETATM   19  N   UNL     1      43.688 -11.537   8.879  1.00  0.00    -0.287 N 
HETATM   20  C   UNL     1      43.078 -10.507   9.565  1.00  0.00     0.326 C 
HETATM   21  N   UNL     1      43.229 -10.671  10.935  1.00  0.00    -0.309 N 
HETATM   22  O   UNL     1      42.512  -9.559   9.036  1.00  0.00    -0.247 OA
HETATM   23  H   UNL     1      43.600 -11.555  11.248  1.00  0.00     0.170 HD
HETATM   24  H   UNL     1      44.018 -12.358   9.353  1.00  0.00     0.172 HD
BRANCH  21  25
HETATM   25  C   UNL     1      42.946  -9.730  11.948  1.00  0.00     0.036 A 
HETATM   26  C   UNL     1      43.676  -8.555  12.154  1.00  0.00     0.032 A 
HETATM   27  C   UNL     1      43.362  -7.701  13.217  1.00  0.00     0.044 A 
HETATM   28  C   UNL     1      42.317  -8.020  14.070  1.00  0.00     0.116 A 
HETATM   29  F   UNL     1      42.022  -7.206  15.092  1.00  0.00    -0.206 F 
HETATM   30  C   UNL     1      41.572  -9.176  13.880  1.00  0.00     0.044 A 
HETATM   31  C   UNL     1      41.887 -10.031  12.820  1.00  0.00     0.032 A 
ENDBRANCH  21  25
ENDBRANCH   3  19
TORSDOF 5
ENDMDL
MODEL 6
REMARK VINA RESULT:      -8.4      4.295      7.174
REMARK  5 active torsions:
REMARK  status: ('A' for Active; 'I' for Inactive)
REMARK    1  A    between atoms: C_8  and  N_9 
REMARK       I    between atoms: N_9  and  C_10 
REMARK    2  A    between atoms: C_10  and  C_11 
REMARK    3  A    between atoms: C_11  and  C_12 
REMARK    4  A    between atoms: C_14  and  N_15 
REMARK       I    between atoms: N_15  and  C_16 
REMARK       I    between atoms: C_16  and  N_17 
REMARK    5  A    between atoms: N_17  and  C_18 
ROOT
HETATM    1  C   UNL     1      40.720 -13.703   1.847  1.00  0.00     0.052 A 
HETATM    2  N   UNL     1      41.330 -13.486   3.074  1.00  0.00    -0.228 NA
HETATM    3  C   UNL     1      40.653 -12.598   3.756  1.00  0.00     0.174 A 
HETATM    4  S   UNL     1      39.260 -11.965   3.001  1.00  0.00    -0.062 SA
HETATM    5  C   UNL     1      39.574 -12.956   1.636  1.00  0.00     0.081 A 
ENDROOT
BRANCH   1   6
HETATM    6  C   UNL     1      41.357 -14.661   0.900  1.00  0.00     0.163 C 
BRANCH   6   7
HETATM    7  C   UNL     1      42.433 -15.515   1.551  1.00  0.00     0.227 C 
HETATM    8  N   UNL     1      41.933 -16.576   2.290  1.00  0.00    -0.326 N 
HETATM    9  H   UNL     1      40.953 -16.799   2.110  1.00  0.00     0.169 HD
HETATM   10  O   UNL     1      43.618 -15.203   1.439  1.00  0.00    -0.273 OA
BRANCH   8  11
HETATM   11  C   UNL     1      42.636 -17.412   3.196  1.00  0.00     0.042 A 
HETATM   12  C   UNL     1      42.609 -17.119   4.582  1.00  0.00    -0.014 A 
HETATM   13  C   UNL     1      41.769 -15.986   5.114  1.00  0.00     0.052 C 
HETATM   14  C   UNL     1      43.413 -17.885   5.453  1.00  0.00     0.042 A 
HETATM   15 CL   UNL     1      43.518 -17.558   7.150  1.00  0.00    -0.084 Cl
HETATM   16  C   UNL     1      44.185 -18.946   4.973  1.00  0.00     0.024 A 
HETATM   17  C   UNL     1      44.175 -19.254   3.621  1.00  0.00     0.004 A 
HETATM   18  C   UNL     1      43.410 -18.489   2.740  1.00  0.00     0.030 A 
ENDBRANCH   8  11
ENDBRANCH   6   7
ENDBRANCH   1   6
BRANCH   3  19
HETATM   19  N   UNL     1      40.869 -12.125   5.020  1.00  0.00    -0.287 N 
HETATM   20  C   UNL     1      41.902 -11.258   5.309  1.00  0.00     0.326 C 
HETATM   21  N   UNL     1      42.081 -11.145   6.681  1.00  0.00    -0.309 N 
HETATM   22  O   UNL     1      42.589 -10.692   4.469  1.00  0.00    -0.247 OA
HETATM   23  H   UNL     1      41.371 -11.558   7.266  1.00  0.00     0.170 HD
HETATM   24  H   UNL     1      40.248 -12.457   5.736  1.00  0.00     0.172 HD
BRANCH  21  25
HETATM   25  C   UNL     1      43.161 -10.539   7.358  1.00  0.00     0.036 A 
HETATM   26  C   UNL     1      43.119  -9.255   7.909  1.00  0.00     0.032 A 
HETATM   27  C   UNL     1      44.254  -8.707   8.519  1.00  0.00     0.044 A 
HETATM   28  C   UNL     1      45.427  -9.445   8.578  1.00  0.00     0.116 A 
HETATM   29  F   UNL     1      46.514  -8.916   9.154  1.00  0.00    -0.206 F 
HETATM   30  C   UNL     1      45.488 -10.725   8.045  1.00  0.00     0.044 A 
HETATM   31  C   UNL     1      44.356 -11.272   7.435  1.00  0.00     0.032 A 
ENDBRANCH  21  25
ENDBRANCH   3  19
TORSDOF 5
ENDMDL
MODEL 7
REMARK VINA RESULT:      -8.4      4.715      8.144
REMARK  5 active torsions:
REMARK  status: ('A' for Active; 'I' for Inactive)
REMARK    1  A    between atoms: C_8  and  N_9 
REMARK       I    between atoms: N_9  and  C_10 
REMARK    2  A    between atoms: C_10  and  C_11 
REMARK    3  A    between atoms: C_11  and  C_12 
REMARK    4  A    between atoms: C_14  and  N_15 
REMARK       I    between atoms: N_15  and  C_16 
REMARK       I    between atoms: C_16  and  N_17 
REMARK    5  A    between atoms: N_17  and  C_18 
ROOT
HETATM    1  C   UNL     1      40.120 -12.117   4.769  1.00  0.00     0.052 A 
HETATM    2  N   UNL     1      41.166 -13.027   4.719  1.00  0.00    -0.228 NA
HETATM    3  C   UNL     1      41.239 -13.554   3.524  1.00  0.00     0.174 A 
HETATM    4  S   UNL     1      40.088 -13.014   2.386  1.00  0.00    -0.062 SA
HETATM    5  C   UNL     1      39.421 -11.981   3.583  1.00  0.00     0.081 A 
ENDROOT
BRANCH   1   6
HETATM    6  C   UNL     1      39.843 -11.427   6.061  1.00  0.00     0.163 C 
BRANCH   6   7
HETATM    7  C   UNL     1      40.929 -10.436   6.450  1.00  0.00     0.227 C 
HETATM    8  N   UNL     1      42.063 -11.030   6.983  1.00  0.00    -0.326 N 
HETATM    9  H   UNL     1      42.135 -12.036   6.824  1.00  0.00     0.169 HD
HETATM   10  O   UNL     1      40.731  -9.228   6.329  1.00  0.00    -0.273 OA
BRANCH   8  11
HETATM   11  C   UNL     1      43.144 -10.396   7.648  1.00  0.00     0.042 A 
HETATM   12  C   UNL     1      44.472 -10.664   7.234  1.00  0.00    -0.014 A 
HETATM   13  C   UNL     1      44.746 -11.540   6.038  1.00  0.00     0.052 C 
HETATM   14  C   UNL     1      45.539 -10.125   7.985  1.00  0.00     0.042 A 
HETATM   15 CL   UNL     1      47.198 -10.458   7.615  1.00  0.00    -0.084 Cl
HETATM   16  C   UNL     1      45.299  -9.301   9.087  1.00  0.00     0.024 A 
HETATM   17  C   UNL     1      43.996  -9.009   9.463  1.00  0.00     0.004 A 
HETATM   18  C   UNL     1      42.929  -9.557   8.752  1.00  0.00     0.030 A 
ENDBRANCH   8  11
ENDBRANCH   6   7
ENDBRANCH   1   6
BRANCH   3  19
HETATM   19  N   UNL     1      42.140 -14.453   3.025  1.00  0.00    -0.287 N 
HETATM   20  C   UNL     1      41.952 -15.815   3.140  1.00  0.00     0.326 C 
HETATM   21  N   UNL     1      43.114 -16.500   2.812  1.00  0.00    -0.309 N 
HETATM   22  O   UNL     1      40.914 -16.344   3.513  1.00  0.00    -0.247 OA
HETATM   23  H   UNL     1      43.858 -15.960   2.397  1.00  0.00     0.170 HD
HETATM   24  H   UNL     1      42.958 -14.072   2.586  1.00  0.00     0.172 HD
BRANCH  21  25
HETATM   25  C   UNL     1      43.389 -17.869   3.017  1.00  0.00     0.036 A 
HETATM   26  C   UNL     1      43.081 -18.878   2.098  1.00  0.00     0.032 A 
HETATM   27  C   UNL     1      43.338 -20.219   2.403  1.00  0.00     0.044 A 
HETATM   28  C   UNL     1      43.907 -20.550   3.624  1.00  0.00     0.116 A 
HETATM   29  F   UNL     1      44.145 -21.835   3.918  1.00  0.00    -0.206 F 
HETATM   30  C   UNL     1      44.229 -19.566   4.548  1.00  0.00     0.044 A 
HETATM   31  C   UNL     1      43.970 -18.226   4.245  1.00  0.00     0.032 A 
ENDBRANCH  21  25
ENDBRANCH   3  19
TORSDOF 5
ENDMDL
MODEL 8
REMARK VINA RESULT:      -8.2      1.834      2.077
REMARK  5 active torsions:
REMARK  status: ('A' for Active; 'I' for Inactive)
REMARK    1  A    between atoms: C_8  and  N_9 
REMARK       I    between atoms: N_9  and  C_10 
REMARK    2  A    between atoms: C_10  and  C_11 
REMARK    3  A    between atoms: C_11  and  C_12 
REMARK    4  A    between atoms: C_14  and  N_15 
REMARK       I    between atoms: N_15  and  C_16 
REMARK       I    between atoms: C_16  and  N_17 
REMARK    5  A    between atoms: N_17  and  C_18 
ROOT
HETATM    1  C   UNL     1      42.066 -14.249   4.724  1.00  0.00     0.052 A 
HETATM    2  N   UNL     1      42.533 -14.148   3.422  1.00  0.00    -0.228 NA
HETATM    3  C   UNL     1      41.525 -14.029   2.596  1.00  0.00     0.174 A 
HETATM    4  S   UNL     1      39.969 -14.026   3.297  1.00  0.00    -0.062 SA
HETATM    5  C   UNL     1      40.689 -14.200   4.846  1.00  0.00     0.081 A 
ENDROOT
BRANCH   1   6
HETATM    6  C   UNL     1      43.060 -14.427   5.820  1.00  0.00     0.163 C 
BRANCH   6   7
HETATM    7  C   UNL     1      43.608 -15.844   5.901  1.00  0.00     0.227 C 
HETATM    8  N   UNL     1      43.508 -16.551   4.713  1.00  0.00    -0.326 N 
HETATM    9  H   UNL     1      43.318 -15.978   3.889  1.00  0.00     0.169 HD
HETATM   10  O   UNL     1      44.035 -16.277   6.971  1.00  0.00    -0.273 OA
BRANCH   8  11
HETATM   11  C   UNL     1      43.706 -17.941   4.509  1.00  0.00     0.042 A 
HETATM   12  C   UNL     1      43.634 -18.472   3.198  1.00  0.00    -0.014 A 
HETATM   13  C   UNL     1      43.441 -17.567   2.009  1.00  0.00     0.052 C 
HETATM   14  C   UNL     1      43.708 -19.871   3.028  1.00  0.00     0.042 A 
HETATM   15 CL   UNL     1      43.548 -20.629   1.479  1.00  0.00    -0.084 Cl
HETATM   16  C   UNL     1      43.900 -20.720   4.121  1.00  0.00     0.024 A 
HETATM   17  C   UNL     1      44.011 -20.190   5.398  1.00  0.00     0.004 A 
HETATM   18  C   UNL     1      43.909 -18.812   5.590  1.00  0.00     0.030 A 
ENDBRANCH   8  11
ENDBRANCH   6   7
ENDBRANCH   1   6
BRANCH   3  19
HETATM   19  N   UNL     1      41.528 -13.858   1.240  1.00  0.00    -0.287 N 
HETATM   20  C   UNL     1      41.089 -12.690   0.651  1.00  0.00     0.326 C 
HETATM   21  N   UNL     1      40.930 -12.859  -0.717  1.00  0.00    -0.309 N 
HETATM   22  O   UNL     1      40.842 -11.656   1.258  1.00  0.00    -0.247 OA
HETATM   23  H   UNL     1      41.289 -13.714  -1.113  1.00  0.00     0.170 HD
HETATM   24  H   UNL     1      41.848 -14.634   0.690  1.00  0.00     0.172 HD
BRANCH  21  25
HETATM   25  C   UNL     1      40.295 -11.981  -1.622  1.00  0.00     0.036 A 
HETATM   26  C   UNL     1      38.913 -11.927  -1.824  1.00  0.00     0.032 A 
HETATM   27  C   UNL     1      38.368 -11.063  -2.781  1.00  0.00     0.044 A 
HETATM   28  C   UNL     1      39.206 -10.253  -3.532  1.00  0.00     0.116 A 
HETATM   29  F   UNL     1      38.685  -9.433  -4.453  1.00  0.00    -0.206 F 
HETATM   30  C   UNL     1      40.581 -10.283  -3.343  1.00  0.00     0.044 A 
HETATM   31  C   UNL     1      41.125 -11.148  -2.389  1.00  0.00     0.032 A 
ENDBRANCH  21  25
ENDBRANCH   3  19
TORSDOF 5
ENDMDL
MODEL 9
REMARK VINA RESULT:      -8.2      5.703      8.817
REMARK  5 active torsions:
REMARK  status: ('A' for Active; 'I' for Inactive)
REMARK    1  A    between atoms: C_8  and  N_9 
REMARK       I    between atoms: N_9  and  C_10 
REMARK    2  A    between atoms: C_10  and  C_11 
REMARK    3  A    between atoms: C_11  and  C_12 
REMARK    4  A    between atoms: C_14  and  N_15 
REMARK       I    between atoms: N_15  and  C_16 
REMARK       I    between atoms: C_16  and  N_17 
REMARK    5  A    between atoms: N_17  and  C_18 
ROOT
HETATM    1  C   UNL     1      39.549 -10.096   5.665  1.00  0.00     0.052 A 
HETATM    2  N   UNL     1      39.729 -11.413   6.065  1.00  0.00    -0.228 NA
HETATM    3  C   UNL     1      39.596 -12.211   5.038  1.00  0.00     0.174 A 
HETATM    4  S   UNL     1      39.255 -11.468   3.540  1.00  0.00    -0.062 SA
HETATM    5  C   UNL     1      39.282  -9.938   4.317  1.00  0.00     0.081 A 
ENDROOT
BRANCH   1   6
HETATM    6  C   UNL     1      39.626  -9.026   6.699  1.00  0.00     0.163 C 
BRANCH   6   7
HETATM    7  C   UNL     1      41.032  -8.822   7.241  1.00  0.00     0.227 C 
HETATM    8  N   UNL     1      41.386  -9.726   8.231  1.00  0.00    -0.326 N 
HETATM    9  H   UNL     1      40.781 -10.546   8.298  1.00  0.00     0.169 HD
HETATM   10  O   UNL     1      41.718  -7.885   6.835  1.00  0.00    -0.273 OA
BRANCH   8  11
HETATM   11  C   UNL     1      42.512  -9.674   9.093  1.00  0.00     0.042 A 
HETATM   12  C   UNL     1      42.382  -9.089  10.377  1.00  0.00    -0.014 A 
HETATM   13  C   UNL     1      41.043  -8.605  10.872  1.00  0.00     0.052 C 
HETATM   14  C   UNL     1      43.538  -8.933  11.171  1.00  0.00     0.042 A 
HETATM   15 CL   UNL     1      43.505  -8.156  12.718  1.00  0.00    -0.084 Cl
HETATM   16  C   UNL     1      44.782  -9.389  10.729  1.00  0.00     0.024 A 
HETATM   17  C   UNL     1      44.895  -9.999   9.488  1.00  0.00     0.004 A 
HETATM   18  C   UNL     1      43.769 -10.135   8.676  1.00  0.00     0.030 A 
ENDBRANCH   8  11
ENDBRANCH   6   7
ENDBRANCH   1   6
BRANCH   3  19
HETATM   19  N   UNL     1      39.737 -13.569   4.969  1.00  0.00    -0.287 N 
HETATM   20  C   UNL     1      40.961 -14.165   4.745  1.00  0.00     0.326 C 
HETATM   21  N   UNL     1      40.804 -15.512   4.444  1.00  0.00    -0.309 N 
HETATM   22  O   UNL     1      42.035 -13.579   4.774  1.00  0.00    -0.247 OA
HETATM   23  H   UNL     1      39.884 -15.902   4.579  1.00  0.00     0.170 HD
HETATM   24  H   UNL     1      38.900 -14.113   5.070  1.00  0.00     0.172 HD
BRANCH  21  25
HETATM   25  C   UNL     1      41.781 -16.398   3.942  1.00  0.00     0.036 A 
HETATM   26  C   UNL     1      41.836 -16.835   2.615  1.00  0.00     0.032 A 
HETATM   27  C   UNL     1      42.807 -17.758   2.211  1.00  0.00     0.044 A 
HETATM   28  C   UNL     1      43.724 -18.240   3.134  1.00  0.00     0.116 A 
HETATM   29  F   UNL     1      44.648 -19.130   2.749  1.00  0.00    -0.206 F 
HETATM   30  C   UNL     1      43.693 -17.814   4.455  1.00  0.00     0.044 A 
HETATM   31  C   UNL     1      42.722 -16.894   4.859  1.00  0.00     0.032 A 
ENDBRANCH  21  25
ENDBRANCH   3  19
TORSDOF 5
ENDMDL
MODEL 10
REMARK VINA RESULT:      -8.1      3.593      7.905
REMARK  5 active torsions:
REMARK  status: ('A' for Active; 'I' for Inactive)
REMARK    1  A    between atoms: C_8  and  N_9 
REMARK       I    between atoms: N_9  and  C_10 
REMARK    2  A    between atoms: C_10  and  C_11 
REMARK    3  A    between atoms: C_11  and  C_12 
REMARK    4  A    between atoms: C_14  and  N_15 
REMARK       I    between atoms: N_15  and  C_16 
REMARK       I    between atoms: C_16  and  N_17 
REMARK    5  A    between atoms: N_17  and  C_18 
ROOT
HETATM    1  C   UNL     1      40.618 -11.602   3.849  1.00  0.00     0.052 A 
HETATM    2  N   UNL     1      40.907 -12.922   4.166  1.00  0.00    -0.228 NA
HETATM    3  C   UNL     1      42.168 -13.034   4.497  1.00  0.00     0.174 A 
HETATM    4  S   UNL     1      43.091 -11.599   4.457  1.00  0.00    -0.062 SA
HETATM    5  C   UNL     1      41.694 -10.739   3.954  1.00  0.00     0.081 A 
ENDROOT
BRANCH   1   6
HETATM    6  C   UNL     1      39.234 -11.267   3.411  1.00  0.00     0.163 C 
BRANCH   6   7
HETATM    7  C   UNL     1      38.904 -11.797   2.024  1.00  0.00     0.227 C 
HETATM    8  N   UNL     1      39.946 -12.494   1.430  1.00  0.00    -0.326 N 
HETATM    9  H   UNL     1      40.692 -12.775   2.068  1.00  0.00     0.169 HD
HETATM   10  O   UNL     1      37.814 -11.545   1.513  1.00  0.00    -0.273 OA
BRANCH   8  11
HETATM   11  C   UNL     1      40.052 -12.911   0.078  1.00  0.00     0.042 A 
HETATM   12  C   UNL     1      40.584 -12.021  -0.888  1.00  0.00    -0.014 A 
HETATM   13  C   UNL     1      41.122 -10.673  -0.481  1.00  0.00     0.052 C 
HETATM   14  C   UNL     1      40.567 -12.405  -2.246  1.00  0.00     0.042 A 
HETATM   15 CL   UNL     1      41.114 -11.361  -3.514  1.00  0.00    -0.084 Cl
HETATM   16  C   UNL     1      40.084 -13.657  -2.634  1.00  0.00     0.024 A 
HETATM   17  C   UNL     1      39.602 -14.540  -1.678  1.00  0.00     0.004 A 
HETATM   18  C   UNL     1      39.582 -14.166  -0.335  1.00  0.00     0.030 A 
ENDBRANCH   8  11
ENDBRANCH   6   7
ENDBRANCH   1   6
BRANCH   3  19
HETATM   19  N   UNL     1      42.861 -14.133   4.920  1.00  0.00    -0.287 N 
HETATM   20  C   UNL     1      43.108 -15.205   4.087  1.00  0.00     0.326 C 
HETATM   21  N   UNL     1      43.573 -16.294   4.812  1.00  0.00    -0.309 N 
HETATM   22  O   UNL     1      42.910 -15.207   2.879  1.00  0.00    -0.247 OA
HETATM   23  H   UNL     1      43.815 -16.126   5.776  1.00  0.00     0.170 HD
HETATM   24  H   UNL     1      43.165 -14.132   5.876  1.00  0.00     0.172 HD
BRANCH  21  25
HETATM   25  C   UNL     1      43.724 -17.623   4.362  1.00  0.00     0.036 A 
HETATM   26  C   UNL     1      43.606 -18.017   3.025  1.00  0.00     0.032 A 
HETATM   27  C   UNL     1      43.717 -19.365   2.669  1.00  0.00     0.044 A 
HETATM   28  C   UNL     1      43.947 -20.319   3.650  1.00  0.00     0.116 A 
HETATM   29  F   UNL     1      44.045 -21.610   3.310  1.00  0.00    -0.206 F 
HETATM   30  C   UNL     1      44.076 -19.950   4.983  1.00  0.00     0.044 A 
HETATM   31  C   UNL     1      43.963 -18.603   5.338  1.00  0.00     0.032 A 
ENDBRANCH  21  25
ENDBRANCH   3  19
TORSDOF 5
ENDMDL
