MODEL 1
REMARK VINA RESULT:      -9.5      0.000      0.000
REMARK  6 active torsions:
REMARK  status: ('A' for Active; 'I' for Inactive)
REMARK    1  A    between atoms: N_2  and  C_4 
REMARK    2  A    between atoms: N_2  and  C_23 
REMARK    3  A    between atoms: C_4  and  C_5 
REMARK       I    between atoms: C_5  and  N_6 
REMARK    4  A    between atoms: N_6  and  C_7 
REMARK    5  A    between atoms: C_8  and  O_9 
REMARK    6  A    between atoms: C_23  and  C_24 
ROOT
HETATM    1  C   UNL     1      44.421 -11.412   7.525  1.00  0.00     0.248 C 
HETATM    2  N   UNL     1      43.345 -12.265   7.427  1.00  0.00    -0.323 N 
HETATM    3  O   UNL     1      45.532 -11.611   7.036  1.00  0.00    -0.271 OA
HETATM    4  H   UNL     1      42.602 -12.239   8.123  1.00  0.00     0.169 HD
ENDROOT
BRANCH   2   5
HETATM    5  C   UNL     1      43.240 -13.360   6.537  1.00  0.00     0.071 A 
HETATM    6  C   UNL     1      42.666 -13.113   5.276  1.00  0.00     0.096 A 
HETATM    7  C   UNL     1      42.605 -14.104   4.284  1.00  0.00     0.054 A 
HETATM    8  C   UNL     1      43.112 -15.383   4.586  1.00  0.00     0.014 A 
HETATM    9  C   UNL     1      43.645 -15.598   5.851  1.00  0.00     0.089 A 
HETATM   10  C   UNL     1      43.250 -16.620   3.890  1.00  0.00     0.011 A 
HETATM   11  O   UNL     1      44.099 -16.875   5.970  1.00  0.00    -0.309 OA
HETATM   12  C   UNL     1      43.725 -14.633   6.854  1.00  0.00     0.070 A 
HETATM   13  C   UNL     1      43.863 -17.494   4.782  1.00  0.00     0.087 A 
HETATM   14  C   UNL     1      44.187 -18.816   4.488  1.00  0.00     0.038 A 
HETATM   15  C   UNL     1      43.862 -19.267   3.206  1.00  0.00     0.003 A 
HETATM   16  C   UNL     1      43.244 -18.425   2.279  1.00  0.00     0.001 A 
HETATM   17  C   UNL     1      42.930 -17.096   2.604  1.00  0.00     0.015 A 
BRANCH   6  18
HETATM   18  O   UNL     1      42.188 -11.840   5.046  1.00  0.00    -0.354 OA
HETATM   19  C   UNL     1      42.951 -11.172   4.036  1.00  0.00     0.210 C 
ENDBRANCH   6  18
ENDBRANCH   2   5
BRANCH   1  20
HETATM   20  C   UNL     1      44.153 -10.144   8.341  1.00  0.00     0.337 C 
BRANCH  20  21
HETATM   21  N   UNL     1      43.113 -10.330   9.456  1.00  0.00    -0.063 N 
HETATM   22  C   UNL     1      42.068  -9.259   9.412  1.00  0.00     0.270 C 
HETATM   23  H   UNL     1      42.655 -11.224   9.236  1.00  0.00     0.280 HD
BRANCH  21  24
HETATM   24  C   UNL     1      43.667 -10.559  10.854  1.00  0.00     0.273 C 
BRANCH  24  25
HETATM   25  C   UNL     1      43.095  -9.699  11.949  1.00  0.00    -0.032 A 
HETATM   26  C   UNL     1      41.999 -10.147  12.708  1.00  0.00     0.012 A 
HETATM   27  C   UNL     1      41.490  -9.363  13.746  1.00  0.00     0.043 A 
HETATM   28  C   UNL     1      42.070  -8.133  14.026  1.00  0.00     0.116 A 
HETATM   29  F   UNL     1      41.583  -7.387  15.024  1.00  0.00    -0.206 F 
HETATM   30  C   UNL     1      43.156  -7.672  13.291  1.00  0.00     0.043 A 
HETATM   31  C   UNL     1      43.673  -8.456  12.258  1.00  0.00     0.012 A 
ENDBRANCH  24  25
ENDBRANCH  21  24
ENDBRANCH  20  21
ENDBRANCH   1  20
TORSDOF 6
ENDMDL
MODEL 2
REMARK VINA RESULT:      -9.4      5.747      8.846
REMARK  6 active torsions:
REMARK  status: ('A' for Active; 'I' for Inactive)
REMARK    1  A    between atoms: N_2  and  C_4 
REMARK    2  A    between atoms: N_2  and  C_23 
REMARK    3  A    between atoms: C_4  and  C_5 
REMARK       I    between atoms: C_5  and  N_6 
REMARK    4  A    between atoms: N_6  and  C_7 
REMARK    5  A    between atoms: C_8  and  O_9 
REMARK    6  A    between atoms: C_23  and  C_24 
ROOT
HETATM    1  C   UNL     1      42.782 -11.923   2.922  1.00  0.00     0.248 C 
HETATM    2  N   UNL     1      42.000 -13.004   3.263  1.00  0.00    -0.323 N 
HETATM    3  O   UNL     1      44.007 -11.871   3.026  1.00  0.00    -0.271 OA
HETATM    4  H   UNL     1      41.018 -12.876   3.499  1.00  0.00     0.169 HD
ENDROOT
BRANCH   2   5
HETATM    5  C   UNL     1      42.472 -14.313   3.523  1.00  0.00     0.071 A 
HETATM    6  C   UNL     1      42.799 -14.627   4.855  1.00  0.00     0.096 A 
HETATM    7  C   UNL     1      43.180 -15.923   5.237  1.00  0.00     0.054 A 
HETATM    8  C   UNL     1      43.261 -16.916   4.241  1.00  0.00     0.014 A 
HETATM    9  C   UNL     1      42.958 -16.562   2.932  1.00  0.00     0.089 A 
HETATM   10  C   UNL     1      43.583 -18.305   4.204  1.00  0.00     0.011 A 
HETATM   11  O   UNL     1      43.072 -17.636   2.105  1.00  0.00    -0.309 OA
HETATM   12  C   UNL     1      42.571 -15.286   2.524  1.00  0.00     0.070 A 
HETATM   13  C   UNL     1      43.447 -18.693   2.876  1.00  0.00     0.087 A 
HETATM   14  C   UNL     1      43.666 -19.987   2.409  1.00  0.00     0.038 A 
HETATM   15  C   UNL     1      44.046 -20.936   3.362  1.00  0.00     0.003 A 
HETATM   16  C   UNL     1      44.197 -20.590   4.706  1.00  0.00     0.001 A 
HETATM   17  C   UNL     1      43.969 -19.277   5.147  1.00  0.00     0.015 A 
BRANCH   6  18
HETATM   18  O   UNL     1      42.700 -13.609   5.779  1.00  0.00    -0.354 OA
HETATM   19  C   UNL     1      43.548 -13.845   6.907  1.00  0.00     0.210 C 
ENDBRANCH   6  18
ENDBRANCH   2   5
BRANCH   1  20
HETATM   20  C   UNL     1      42.000 -10.714   2.401  1.00  0.00     0.337 C 
BRANCH  20  21
HETATM   21  N   UNL     1      41.411 -10.913   0.996  1.00  0.00    -0.063 N 
HETATM   22  C   UNL     1      41.687  -9.734   0.116  1.00  0.00     0.270 C 
HETATM   23  H   UNL     1      41.924 -11.718   0.612  1.00  0.00     0.280 HD
BRANCH  21  24
HETATM   24  C   UNL     1      39.960 -11.366   0.939  1.00  0.00     0.273 C 
BRANCH  24  25
HETATM   25  C   UNL     1      39.646 -12.488  -0.015  1.00  0.00    -0.032 A 
HETATM   26  C   UNL     1      40.108 -13.792   0.241  1.00  0.00     0.012 A 
HETATM   27  C   UNL     1      39.789 -14.838  -0.627  1.00  0.00     0.043 A 
HETATM   28  C   UNL     1      39.013 -14.586  -1.751  1.00  0.00     0.116 A 
HETATM   29  F   UNL     1      38.704 -15.592  -2.577  1.00  0.00    -0.206 F 
HETATM   30  C   UNL     1      38.543 -13.307  -2.022  1.00  0.00     0.043 A 
HETATM   31  C   UNL     1      38.854 -12.259  -1.153  1.00  0.00     0.012 A 
ENDBRANCH  24  25
ENDBRANCH  21  24
ENDBRANCH  20  21
ENDBRANCH   1  20
TORSDOF 6
ENDMDL
MODEL 3
REMARK VINA RESULT:      -9.2      3.786      4.896
REMARK  6 active torsions:
REMARK  status: ('A' for Active; 'I' for Inactive)
REMARK    1  A    between atoms: N_2  and  C_4 
REMARK    2  A    between atoms: N_2  and  C_23 
REMARK    3  A    between atoms: C_4  and  C_5 
REMARK       I    between atoms: C_5  and  N_6 
REMARK    4  A    between atoms: N_6  and  C_7 
REMARK    5  A    between atoms: C_8  and  O_9 
REMARK    6  A    between atoms: C_23  and  C_24 
ROOT
HETATM    1  C   UNL     1      41.014 -12.062   3.662  1.00  0.00     0.248 C 
HETATM    2  N   UNL     1      42.147 -12.690   3.196  1.00  0.00    -0.323 N 
HETATM    3  O   UNL     1      39.922 -12.602   3.835  1.00  0.00    -0.271 OA
HETATM    4  H   UNL     1      42.882 -12.154   2.739  1.00  0.00     0.169 HD
ENDROOT
BRANCH   2   5
HETATM    5  C   UNL     1      42.333 -14.090   3.101  1.00  0.00     0.071 A 
HETATM    6  C   UNL     1      42.065 -14.693   1.859  1.00  0.00     0.096 A 
HETATM    7  C   UNL     1      42.312 -16.056   1.629  1.00  0.00     0.054 A 
HETATM    8  C   UNL     1      42.814 -16.831   2.691  1.00  0.00     0.014 A 
HETATM    9  C   UNL     1      43.040 -16.208   3.913  1.00  0.00     0.089 A 
HETATM   10  C   UNL     1      43.199 -18.193   2.873  1.00  0.00     0.011 A 
HETATM   11  O   UNL     1      43.535 -17.093   4.820  1.00  0.00    -0.309 OA
HETATM   12  C   UNL     1      42.811 -14.857   4.169  1.00  0.00     0.070 A 
HETATM   13  C   UNL     1      43.635 -18.295   4.189  1.00  0.00     0.087 A 
HETATM   14  C   UNL     1      44.108 -19.469   4.772  1.00  0.00     0.038 A 
HETATM   15  C   UNL     1      44.133 -20.602   3.955  1.00  0.00     0.003 A 
HETATM   16  C   UNL     1      43.702 -20.546   2.628  1.00  0.00     0.001 A 
HETATM   17  C   UNL     1      43.232 -19.348   2.068  1.00  0.00     0.015 A 
BRANCH   6  18
HETATM   18  O   UNL     1      41.574 -13.877   0.861  1.00  0.00    -0.354 OA
HETATM   19  C   UNL     1      40.266 -14.288   0.450  1.00  0.00     0.210 C 
ENDBRANCH   6  18
ENDBRANCH   2   5
BRANCH   1  20
HETATM   20  C   UNL     1      41.188 -10.568   3.945  1.00  0.00     0.337 C 
BRANCH  20  21
HETATM   21  N   UNL     1      41.176 -10.212   5.439  1.00  0.00    -0.063 N 
HETATM   22  C   UNL     1      41.698  -8.829   5.676  1.00  0.00     0.270 C 
HETATM   23  H   UNL     1      40.180 -10.220   5.699  1.00  0.00     0.280 HD
BRANCH  21  24
HETATM   24  C   UNL     1      41.787 -11.242   6.376  1.00  0.00     0.273 C 
BRANCH  24  25
HETATM   25  C   UNL     1      43.253 -11.084   6.681  1.00  0.00    -0.032 A 
HETATM   26  C   UNL     1      43.672 -10.596   7.931  1.00  0.00     0.012 A 
HETATM   27  C   UNL     1      45.033 -10.481   8.225  1.00  0.00     0.043 A 
HETATM   28  C   UNL     1      45.975 -10.847   7.273  1.00  0.00     0.116 A 
HETATM   29  F   UNL     1      47.277 -10.740   7.559  1.00  0.00    -0.206 F 
HETATM   30  C   UNL     1      45.583 -11.334   6.032  1.00  0.00     0.043 A 
HETATM   31  C   UNL     1      44.225 -11.459   5.737  1.00  0.00     0.012 A 
ENDBRANCH  24  25
ENDBRANCH  21  24
ENDBRANCH  20  21
ENDBRANCH   1  20
TORSDOF 6
ENDMDL
MODEL 4
REMARK VINA RESULT:      -9.1      6.237      9.239
REMARK  6 active torsions:
REMARK  status: ('A' for Active; 'I' for Inactive)
REMARK    1  A    between atoms: N_2  and  C_4 
REMARK    2  A    between atoms: N_2  and  C_23 
REMARK    3  A    between atoms: C_4  and  C_5 
REMARK       I    between atoms: C_5  and  N_6 
REMARK    4  A    between atoms: N_6  and  C_7 
REMARK    5  A    between atoms: C_8  and  O_9 
REMARK    6  A    between atoms: C_23  and  C_24 
ROOT
HETATM    1  C   UNL     1      42.049 -14.345   4.830  1.00  0.00     0.248 C 
HETATM    2  N   UNL     1      42.475 -13.707   3.686  1.00  0.00    -0.323 N 
HETATM    3  O   UNL     1      40.884 -14.649   5.082  1.00  0.00    -0.271 OA
HETATM    4  H   UNL     1      43.340 -13.170   3.687  1.00  0.00     0.169 HD
ENDROOT
BRANCH   2   5
HETATM    5  C   UNL     1      41.715 -13.542   2.503  1.00  0.00     0.071 A 
HETATM    6  C   UNL     1      41.607 -12.240   1.983  1.00  0.00     0.096 A 
HETATM    7  C   UNL     1      40.962 -11.981   0.764  1.00  0.00     0.054 A 
HETATM    8  C   UNL     1      40.389 -13.064   0.070  1.00  0.00     0.014 A 
HETATM    9  C   UNL     1      40.490 -14.332   0.627  1.00  0.00     0.089 A 
HETATM   10  C   UNL     1      39.682 -13.234  -1.158  1.00  0.00     0.011 A 
HETATM   11  O   UNL     1      39.899 -15.259  -0.174  1.00  0.00    -0.309 OA
HETATM   12  C   UNL     1      41.130 -14.621   1.832  1.00  0.00     0.070 A 
HETATM   13  C   UNL     1      39.412 -14.595  -1.257  1.00  0.00     0.087 A 
HETATM   14  C   UNL     1      38.737 -15.186  -2.323  1.00  0.00     0.038 A 
HETATM   15  C   UNL     1      38.314 -14.330  -3.344  1.00  0.00     0.003 A 
HETATM   16  C   UNL     1      38.562 -12.957  -3.284  1.00  0.00     0.001 A 
HETATM   17  C   UNL     1      39.246 -12.390  -2.197  1.00  0.00     0.015 A 
BRANCH   6  18
HETATM   18  O   UNL     1      42.189 -11.225   2.713  1.00  0.00    -0.354 OA
HETATM   19  C   UNL     1      41.353 -10.064   2.752  1.00  0.00     0.210 C 
ENDBRANCH   6  18
ENDBRANCH   2   5
BRANCH   1  20
HETATM   20  C   UNL     1      43.161 -14.649   5.837  1.00  0.00     0.337 C 
BRANCH  20  21
HETATM   21  N   UNL     1      43.291 -16.138   6.189  1.00  0.00    -0.063 N 
HETATM   22  C   UNL     1      43.265 -16.354   7.670  1.00  0.00     0.270 C 
HETATM   23  H   UNL     1      42.446 -16.572   5.795  1.00  0.00     0.280 HD
BRANCH  21  24
HETATM   24  C   UNL     1      44.421 -16.890   5.503  1.00  0.00     0.273 C 
BRANCH  24  25
HETATM   25  C   UNL     1      44.020 -17.882   4.444  1.00  0.00    -0.032 A 
HETATM   26  C   UNL     1      43.401 -17.447   3.258  1.00  0.00     0.012 A 
HETATM   27  C   UNL     1      43.059 -18.365   2.263  1.00  0.00     0.043 A 
HETATM   28  C   UNL     1      43.329 -19.714   2.449  1.00  0.00     0.116 A 
HETATM   29  F   UNL     1      43.004 -20.589   1.490  1.00  0.00    -0.206 F 
HETATM   30  C   UNL     1      43.942 -20.165   3.611  1.00  0.00     0.043 A 
HETATM   31  C   UNL     1      44.293 -19.251   4.606  1.00  0.00     0.012 A 
ENDBRANCH  24  25
ENDBRANCH  21  24
ENDBRANCH  20  21
ENDBRANCH   1  20
TORSDOF 6
ENDMDL
MODEL 5
REMARK VINA RESULT:      -8.9      1.760      2.728
REMARK  6 active torsions:
REMARK  status: ('A' for Active; 'I' for Inactive)
REMARK    1  A    between atoms: N_2  and  C_4 
REMARK    2  A    between atoms: N_2  and  C_23 
REMARK    3  A    between atoms: C_4  and  C_5 
REMARK       I    between atoms: C_5  and  N_6 
REMARK    4  A    between atoms: N_6  and  C_7 
REMARK    5  A    between atoms: C_8  and  O_9 
REMARK    6  A    between atoms: C_23  and  C_24 
ROOT
HETATM    1  C   UNL     1      41.958 -12.116   5.341  1.00  0.00     0.248 C 
HETATM    2  N   UNL     1      42.832 -12.694   4.449  1.00  0.00    -0.323 N 
HETATM    3  O   UNL     1      40.952 -12.655   5.800  1.00  0.00    -0.271 OA
HETATM    4  H   UNL     1      43.409 -12.114   3.843  1.00  0.00     0.169 HD
ENDROOT
BRANCH   2   5
HETATM    5  C   UNL     1      42.888 -14.071   4.123  1.00  0.00     0.071 A 
HETATM    6  C   UNL     1      42.588 -14.432   2.797  1.00  0.00     0.096 A 
HETATM    7  C   UNL     1      42.710 -15.755   2.345  1.00  0.00     0.054 A 
HETATM    8  C   UNL     1      43.117 -16.740   3.265  1.00  0.00     0.014 A 
HETATM    9  C   UNL     1      43.377 -16.351   4.574  1.00  0.00     0.089 A 
HETATM   10  C   UNL     1      43.368 -18.143   3.219  1.00  0.00     0.011 A 
HETATM   11  O   UNL     1      43.770 -17.417   5.322  1.00  0.00    -0.309 OA
HETATM   12  C   UNL     1      43.271 -15.045   5.050  1.00  0.00     0.070 A 
HETATM   13  C   UNL     1      43.768 -18.502   4.502  1.00  0.00     0.087 A 
HETATM   14  C   UNL     1      44.117 -19.796   4.882  1.00  0.00     0.038 A 
HETATM   15  C   UNL     1      44.051 -20.777   3.889  1.00  0.00     0.003 A 
HETATM   16  C   UNL     1      43.653 -20.461   2.588  1.00  0.00     0.001 A 
HETATM   17  C   UNL     1      43.307 -19.148   2.234  1.00  0.00     0.015 A 
BRANCH   6  18
HETATM   18  O   UNL     1      42.194 -13.419   1.948  1.00  0.00    -0.354 OA
HETATM   19  C   UNL     1      40.874 -13.647   1.442  1.00  0.00     0.210 C 
ENDBRANCH   6  18
ENDBRANCH   2   5
BRANCH   1  20
HETATM   20  C   UNL     1      42.310 -10.679   5.733  1.00  0.00     0.337 C 
BRANCH  20  21
HETATM   21  N   UNL     1      42.286 -10.424   7.247  1.00  0.00    -0.063 N 
HETATM   22  C   UNL     1      41.029  -9.725   7.664  1.00  0.00     0.270 C 
HETATM   23  H   UNL     1      42.276 -11.363   7.669  1.00  0.00     0.280 HD
BRANCH  21  24
HETATM   24  C   UNL     1      43.537  -9.791   7.838  1.00  0.00     0.273 C 
BRANCH  24  25
HETATM   25  C   UNL     1      43.485  -9.445   9.302  1.00  0.00    -0.032 A 
HETATM   26  C   UNL     1      43.289  -8.115   9.714  1.00  0.00     0.012 A 
HETATM   27  C   UNL     1      43.208  -7.800  11.072  1.00  0.00     0.043 A 
HETATM   28  C   UNL     1      43.327  -8.808  12.020  1.00  0.00     0.116 A 
HETATM   29  F   UNL     1      43.244  -8.503  13.320  1.00  0.00    -0.206 F 
HETATM   30  C   UNL     1      43.518 -10.130  11.636  1.00  0.00     0.043 A 
HETATM   31  C   UNL     1      43.591 -10.450  10.279  1.00  0.00     0.012 A 
ENDBRANCH  24  25
ENDBRANCH  21  24
ENDBRANCH  20  21
ENDBRANCH   1  20
TORSDOF 6
ENDMDL
MODEL 6
REMARK VINA RESULT:      -8.7      2.328      3.445
REMARK  6 active torsions:
REMARK  status: ('A' for Active; 'I' for Inactive)
REMARK    1  A    between atoms: N_2  and  C_4 
REMARK    2  A    between atoms: N_2  and  C_23 
REMARK    3  A    between atoms: C_4  and  C_5 
REMARK       I    between atoms: C_5  and  N_6 
REMARK    4  A    between atoms: N_6  and  C_7 
REMARK    5  A    between atoms: C_8  and  O_9 
REMARK    6  A    between atoms: C_23  and  C_24 
ROOT
HETATM    1  C   UNL     1      40.230 -11.516   6.275  1.00  0.00     0.248 C 
HETATM    2  N   UNL     1      41.443 -11.682   5.646  1.00  0.00    -0.323 N 
HETATM    3  O   UNL     1      39.379 -12.392   6.421  1.00  0.00    -0.271 OA
HETATM    4  H   UNL     1      41.927 -10.883   5.241  1.00  0.00     0.169 HD
ENDROOT
BRANCH   2   5
HETATM    5  C   UNL     1      42.033 -12.924   5.309  1.00  0.00     0.071 A 
HETATM    6  C   UNL     1      42.989 -13.446   6.201  1.00  0.00     0.096 A 
HETATM    7  C   UNL     1      43.561 -14.714   6.013  1.00  0.00     0.054 A 
HETATM    8  C   UNL     1      43.177 -15.458   4.881  1.00  0.00     0.014 A 
HETATM    9  C   UNL     1      42.253 -14.899   4.007  1.00  0.00     0.089 A 
HETATM   10  C   UNL     1      43.494 -16.740   4.343  1.00  0.00     0.011 A 
HETATM   11  O   UNL     1      41.984 -15.751   2.981  1.00  0.00    -0.309 OA
HETATM   12  C   UNL     1      41.663 -13.646   4.171  1.00  0.00     0.070 A 
HETATM   13  C   UNL     1      42.734 -16.868   3.185  1.00  0.00     0.087 A 
HETATM   14  C   UNL     1      42.744 -17.989   2.358  1.00  0.00     0.038 A 
HETATM   15  C   UNL     1      43.584 -19.038   2.741  1.00  0.00     0.003 A 
HETATM   16  C   UNL     1      44.367 -18.952   3.895  1.00  0.00     0.001 A 
HETATM   17  C   UNL     1      44.334 -17.809   4.709  1.00  0.00     0.015 A 
BRANCH   6  18
HETATM   18  O   UNL     1      43.321 -12.665   7.288  1.00  0.00    -0.354 OA
HETATM   19  C   UNL     1      44.585 -12.021   7.101  1.00  0.00     0.210 C 
ENDBRANCH   6  18
ENDBRANCH   2   5
BRANCH   1  20
HETATM   20  C   UNL     1      39.972 -10.098   6.791  1.00  0.00     0.337 C 
BRANCH  20  21
HETATM   21  N   UNL     1      40.271  -9.916   8.286  1.00  0.00    -0.063 N 
HETATM   22  C   UNL     1      39.038 -10.096   9.116  1.00  0.00     0.270 C 
HETATM   23  H   UNL     1      40.918 -10.681   8.516  1.00  0.00     0.280 HD
BRANCH  21  24
HETATM   24  C   UNL     1      41.059  -8.670   8.663  1.00  0.00     0.273 C 
BRANCH  24  25
HETATM   25  C   UNL     1      42.455  -8.892   9.180  1.00  0.00    -0.032 A 
HETATM   26  C   UNL     1      42.664  -9.534  10.414  1.00  0.00     0.012 A 
HETATM   27  C   UNL     1      43.960  -9.768  10.878  1.00  0.00     0.043 A 
HETATM   28  C   UNL     1      45.047  -9.360  10.116  1.00  0.00     0.116 A 
HETATM   29  F   UNL     1      46.288  -9.591  10.561  1.00  0.00    -0.206 F 
HETATM   30  C   UNL     1      44.864  -8.727   8.893  1.00  0.00     0.043 A 
HETATM   31  C   UNL     1      43.570  -8.497   8.422  1.00  0.00     0.012 A 
ENDBRANCH  24  25
ENDBRANCH  21  24
ENDBRANCH  20  21
ENDBRANCH   1  20
TORSDOF 6
ENDMDL
MODEL 7
REMARK VINA RESULT:      -8.6      2.848      4.122
REMARK  6 active torsions:
REMARK  status: ('A' for Active; 'I' for Inactive)
REMARK    1  A    between atoms: N_2  and  C_4 
REMARK    2  A    between atoms: N_2  and  C_23 
REMARK    3  A    between atoms: C_4  and  C_5 
REMARK       I    between atoms: C_5  and  N_6 
REMARK    4  A    between atoms: N_6  and  C_7 
REMARK    5  A    between atoms: C_8  and  O_9 
REMARK    6  A    between atoms: C_23  and  C_24 
ROOT
HETATM    1  C   UNL     1      41.037 -12.536   4.224  1.00  0.00     0.248 C 
HETATM    2  N   UNL     1      42.335 -12.989   4.170  1.00  0.00    -0.323 N 
HETATM    3  O   UNL     1      40.035 -13.227   4.042  1.00  0.00    -0.271 OA
HETATM    4  H   UNL     1      43.098 -12.346   3.967  1.00  0.00     0.169 HD
ENDROOT
BRANCH   2   5
HETATM    5  C   UNL     1      42.735 -14.347   4.173  1.00  0.00     0.071 A 
HETATM    6  C   UNL     1      43.092 -14.911   5.411  1.00  0.00     0.096 A 
HETATM    7  C   UNL     1      43.407 -16.273   5.541  1.00  0.00     0.054 A 
HETATM    8  C   UNL     1      43.388 -17.075   4.383  1.00  0.00     0.014 A 
HETATM    9  C   UNL     1      43.059 -16.478   3.173  1.00  0.00     0.089 A 
HETATM   10  C   UNL     1      43.623 -18.451   4.087  1.00  0.00     0.011 A 
HETATM   11  O   UNL     1      43.074 -17.392   2.166  1.00  0.00    -0.309 OA
HETATM   12  C   UNL     1      42.735 -15.131   3.015  1.00  0.00     0.070 A 
HETATM   13  C   UNL     1      43.413 -18.588   2.719  1.00  0.00     0.087 A 
HETATM   14  C   UNL     1      43.533 -19.789   2.023  1.00  0.00     0.038 A 
HETATM   15  C   UNL     1      43.891 -20.911   2.774  1.00  0.00     0.003 A 
HETATM   16  C   UNL     1      44.114 -20.819   4.150  1.00  0.00     0.001 A 
HETATM   17  C   UNL     1      43.984 -19.595   4.825  1.00  0.00     0.015 A 
BRANCH   6  18
HETATM   18  O   UNL     1      43.092 -14.070   6.504  1.00  0.00    -0.354 OA
HETATM   19  C   UNL     1      43.114 -14.809   7.730  1.00  0.00     0.210 C 
ENDBRANCH   6  18
ENDBRANCH   2   5
BRANCH   1  20
HETATM   20  C   UNL     1      40.900 -11.039   4.515  1.00  0.00     0.337 C 
BRANCH  20  21
HETATM   21  N   UNL     1      41.158 -10.664   5.981  1.00  0.00    -0.063 N 
HETATM   22  C   UNL     1      39.894 -10.691   6.783  1.00  0.00     0.270 C 
HETATM   23  H   UNL     1      41.771 -11.411   6.336  1.00  0.00     0.280 HD
BRANCH  21  24
HETATM   24  C   UNL     1      41.977  -9.404   6.213  1.00  0.00     0.273 C 
BRANCH  24  25
HETATM   25  C   UNL     1      42.959  -9.443   7.354  1.00  0.00    -0.032 A 
HETATM   26  C   UNL     1      43.738 -10.591   7.585  1.00  0.00     0.012 A 
HETATM   27  C   UNL     1      44.672 -10.615   8.623  1.00  0.00     0.043 A 
HETATM   28  C   UNL     1      44.827  -9.498   9.433  1.00  0.00     0.116 A 
HETATM   29  F   UNL     1      45.727  -9.523  10.423  1.00  0.00    -0.206 F 
HETATM   30  C   UNL     1      44.071  -8.352   9.222  1.00  0.00     0.043 A 
HETATM   31  C   UNL     1      43.142  -8.321   8.180  1.00  0.00     0.012 A 
ENDBRANCH  24  25
ENDBRANCH  21  24
ENDBRANCH  20  21
ENDBRANCH   1  20
TORSDOF 6
ENDMDL
MODEL 8
REMARK VINA RESULT:      -8.6      6.271      9.792
REMARK  6 active torsions:
REMARK  status: ('A' for Active; 'I' for Inactive)
REMARK    1  A    between atoms: N_2  and  C_4 
REMARK    2  A    between atoms: N_2  and  C_23 
REMARK    3  A    between atoms: C_4  and  C_5 
REMARK       I    between atoms: C_5  and  N_6 
REMARK    4  A    between atoms: N_6  and  C_7 
REMARK    5  A    between atoms: C_8  and  O_9 
REMARK    6  A    between atoms: C_23  and  C_24 
ROOT
HETATM    1  C   UNL     1      38.820 -11.976   1.944  1.00  0.00     0.248 C 
HETATM    2  N   UNL     1      38.703 -13.159   2.639  1.00  0.00    -0.323 N 
HETATM    3  O   UNL     1      39.879 -11.407   1.685  1.00  0.00    -0.271 OA
HETATM    4  H   UNL     1      37.839 -13.387   3.127  1.00  0.00     0.169 HD
ENDROOT
BRANCH   2   5
HETATM    5  C   UNL     1      39.762 -14.053   2.929  1.00  0.00     0.071 A 
HETATM    6  C   UNL     1      40.429 -13.884   4.157  1.00  0.00     0.096 A 
HETATM    7  C   UNL     1      41.424 -14.775   4.586  1.00  0.00     0.054 A 
HETATM    8  C   UNL     1      41.772 -15.845   3.739  1.00  0.00     0.014 A 
HETATM    9  C   UNL     1      41.113 -15.964   2.523  1.00  0.00     0.089 A 
HETATM   10  C   UNL     1      42.685 -16.940   3.796  1.00  0.00     0.011 A 
HETATM   11  O   UNL     1      41.557 -17.053   1.839  1.00  0.00    -0.309 OA
HETATM   12  C   UNL     1      40.116 -15.099   2.072  1.00  0.00     0.070 A 
HETATM   13  C   UNL     1      42.507 -17.647   2.611  1.00  0.00     0.087 A 
HETATM   14  C   UNL     1      43.209 -18.802   2.272  1.00  0.00     0.038 A 
HETATM   15  C   UNL     1      44.147 -19.256   3.203  1.00  0.00     0.003 A 
HETATM   16  C   UNL     1      44.359 -18.577   4.405  1.00  0.00     0.001 A 
HETATM   17  C   UNL     1      43.636 -17.416   4.719  1.00  0.00     0.015 A 
BRANCH   6  18
HETATM   18  O   UNL     1      40.041 -12.815   4.937  1.00  0.00    -0.354 OA
HETATM   19  C   UNL     1      41.164 -12.018   5.325  1.00  0.00     0.210 C 
ENDBRANCH   6  18
ENDBRANCH   2   5
BRANCH   1  20
HETATM   20  C   UNL     1      37.487 -11.363   1.508  1.00  0.00     0.337 C 
BRANCH  20  21
HETATM   21  N   UNL     1      37.593 -10.458   0.271  1.00  0.00    -0.063 N 
HETATM   22  C   UNL     1      36.848  -9.175   0.467  1.00  0.00     0.270 C 
HETATM   23  H   UNL     1      38.594 -10.232   0.201  1.00  0.00     0.280 HD
BRANCH  21  24
HETATM   24  C   UNL     1      37.293 -11.118  -1.066  1.00  0.00     0.273 C 
BRANCH  24  25
HETATM   25  C   UNL     1      38.424 -11.875  -1.709  1.00  0.00    -0.032 A 
HETATM   26  C   UNL     1      39.481 -11.185  -2.329  1.00  0.00     0.012 A 
HETATM   27  C   UNL     1      40.546 -11.887  -2.897  1.00  0.00     0.043 A 
HETATM   28  C   UNL     1      40.557 -13.275  -2.850  1.00  0.00     0.116 A 
HETATM   29  F   UNL     1      41.582 -13.945  -3.391  1.00  0.00    -0.206 F 
HETATM   30  C   UNL     1      39.525 -13.977  -2.240  1.00  0.00     0.043 A 
HETATM   31  C   UNL     1      38.462 -13.279  -1.664  1.00  0.00     0.012 A 
ENDBRANCH  24  25
ENDBRANCH  21  24
ENDBRANCH  20  21
ENDBRANCH   1  20
TORSDOF 6
ENDMDL
MODEL 9
REMARK VINA RESULT:      -8.4      2.690      3.441
REMARK  6 active torsions:
REMARK  status: ('A' for Active; 'I' for Inactive)
REMARK    1  A    between atoms: N_2  and  C_4 
REMARK    2  A    between atoms: N_2  and  C_23 
REMARK    3  A    between atoms: C_4  and  C_5 
REMARK       I    between atoms: C_5  and  N_6 
REMARK    4  A    between atoms: N_6  and  C_7 
REMARK    5  A    between atoms: C_8  and  O_9 
REMARK    6  A    between atoms: C_23  and  C_24 
ROOT
HETATM    1  C   UNL     1      40.663 -10.717   6.785  1.00  0.00     0.248 C 
HETATM    2  N   UNL     1      41.847 -11.102   6.196  1.00  0.00    -0.323 N 
HETATM    3  O   UNL     1      39.578 -11.274   6.628  1.00  0.00    -0.271 OA
HETATM    4  H   UNL     1      42.600 -10.429   6.064  1.00  0.00     0.169 HD
ENDROOT
BRANCH   2   5
HETATM    5  C   UNL     1      42.080 -12.337   5.545  1.00  0.00     0.071 A 
HETATM    6  C   UNL     1      41.834 -12.393   4.161  1.00  0.00     0.096 A 
HETATM    7  C   UNL     1      42.126 -13.537   3.402  1.00  0.00     0.054 A 
HETATM    8  C   UNL     1      42.654 -14.661   4.067  1.00  0.00     0.014 A 
HETATM    9  C   UNL     1      42.857 -14.579   5.439  1.00  0.00     0.089 A 
HETATM   10  C   UNL     1      43.083 -15.967   3.687  1.00  0.00     0.011 A 
HETATM   11  O   UNL     1      43.381 -15.740   5.917  1.00  0.00    -0.309 OA
HETATM   12  C   UNL     1      42.583 -13.455   6.217  1.00  0.00     0.070 A 
HETATM   13  C   UNL     1      43.521 -16.580   4.856  1.00  0.00     0.087 A 
HETATM   14  C   UNL     1      44.033 -17.874   4.920  1.00  0.00     0.038 A 
HETATM   15  C   UNL     1      44.097 -18.579   3.715  1.00  0.00     0.003 A 
HETATM   16  C   UNL     1      43.666 -18.003   2.518  1.00  0.00     0.001 A 
HETATM   17  C   UNL     1      43.156 -16.696   2.485  1.00  0.00     0.015 A 
BRANCH   6  18
HETATM   18  O   UNL     1      41.316 -11.258   3.572  1.00  0.00    -0.354 OA
HETATM   19  C   UNL     1      40.480 -11.584   2.457  1.00  0.00     0.210 C 
ENDBRANCH   6  18
ENDBRANCH   2   5
BRANCH   1  20
HETATM   20  C   UNL     1      40.773  -9.476   7.675  1.00  0.00     0.337 C 
BRANCH  20  21
HETATM   21  N   UNL     1      40.688  -9.780   9.178  1.00  0.00    -0.063 N 
HETATM   22  C   UNL     1      39.304  -9.560   9.703  1.00  0.00     0.270 C 
HETATM   23  H   UNL     1      40.895 -10.785   9.252  1.00  0.00     0.280 HD
BRANCH  21  24
HETATM   24  C   UNL     1      41.758  -9.140  10.049  1.00  0.00     0.273 C 
BRANCH  24  25
HETATM   25  C   UNL     1      43.166  -9.178   9.518  1.00  0.00    -0.032 A 
HETATM   26  C   UNL     1      43.850 -10.401   9.399  1.00  0.00     0.012 A 
HETATM   27  C   UNL     1      45.144 -10.439   8.875  1.00  0.00     0.043 A 
HETATM   28  C   UNL     1      45.758  -9.260   8.474  1.00  0.00     0.116 A 
HETATM   29  F   UNL     1      46.996  -9.301   7.967  1.00  0.00    -0.206 F 
HETATM   30  C   UNL     1      45.100  -8.041   8.579  1.00  0.00     0.043 A 
HETATM   31  C   UNL     1      43.803  -7.999   9.095  1.00  0.00     0.012 A 
ENDBRANCH  24  25
ENDBRANCH  21  24
ENDBRANCH  20  21
ENDBRANCH   1  20
TORSDOF 6
ENDMDL
MODEL 10
REMARK VINA RESULT:      -8.3      1.713      2.659
REMARK  6 active torsions:
REMARK  status: ('A' for Active; 'I' for Inactive)
REMARK    1  A    between atoms: N_2  and  C_4 
REMARK    2  A    between atoms: N_2  and  C_23 
REMARK    3  A    between atoms: C_4  and  C_5 
REMARK       I    between atoms: C_5  and  N_6 
REMARK    4  A    between atoms: N_6  and  C_7 
REMARK    5  A    between atoms: C_8  and  O_9 
REMARK    6  A    between atoms: C_23  and  C_24 
ROOT
HETATM    1  C   UNL     1      40.680 -11.205   6.423  1.00  0.00     0.248 C 
HETATM    2  N   UNL     1      41.949 -11.469   5.960  1.00  0.00    -0.323 N 
HETATM    3  O   UNL     1      39.723 -11.975   6.348  1.00  0.00    -0.271 OA
HETATM    4  H   UNL     1      42.579 -10.706   5.718  1.00  0.00     0.169 HD
ENDROOT
BRANCH   2   5
HETATM    5  C   UNL     1      42.440 -12.741   5.580  1.00  0.00     0.071 A 
HETATM    6  C   UNL     1      43.352 -13.367   6.451  1.00  0.00     0.096 A 
HETATM    7  C   UNL     1      43.822 -14.669   6.219  1.00  0.00     0.054 A 
HETATM    8  C   UNL     1      43.381 -15.341   5.062  1.00  0.00     0.014 A 
HETATM    9  C   UNL     1      42.503 -14.682   4.211  1.00  0.00     0.089 A 
HETATM   10  C   UNL     1      43.596 -16.626   4.480  1.00  0.00     0.011 A 
HETATM   11  O   UNL     1      42.168 -15.474   3.157  1.00  0.00    -0.309 OA
HETATM   12  C   UNL     1      42.014 -13.393   4.418  1.00  0.00     0.070 A 
HETATM   13  C   UNL     1      42.828 -16.653   3.321  1.00  0.00     0.087 A 
HETATM   14  C   UNL     1      42.750 -17.743   2.456  1.00  0.00     0.038 A 
HETATM   15  C   UNL     1      43.504 -18.867   2.801  1.00  0.00     0.003 A 
HETATM   16  C   UNL     1      44.291 -18.883   3.955  1.00  0.00     0.001 A 
HETATM   17  C   UNL     1      44.349 -17.769   4.808  1.00  0.00     0.015 A 
BRANCH   6  18
HETATM   18  O   UNL     1      43.744 -12.653   7.563  1.00  0.00    -0.354 OA
HETATM   19  C   UNL     1      44.855 -11.800   7.270  1.00  0.00     0.210 C 
ENDBRANCH   6  18
ENDBRANCH   2   5
BRANCH   1  20
HETATM   20  C   UNL     1      40.508  -9.818   7.046  1.00  0.00     0.337 C 
BRANCH  20  21
HETATM   21  N   UNL     1      40.581  -9.812   8.580  1.00  0.00    -0.063 N 
HETATM   22  C   UNL     1      39.217  -9.745   9.192  1.00  0.00     0.270 C 
HETATM   23  H   UNL     1      40.990 -10.724   8.824  1.00  0.00     0.280 HD
BRANCH  21  24
HETATM   24  C   UNL     1      41.555  -8.820   9.198  1.00  0.00     0.273 C 
BRANCH  24  25
HETATM   25  C   UNL     1      41.733  -8.897  10.691  1.00  0.00    -0.032 A 
HETATM   26  C   UNL     1      42.410  -9.984  11.273  1.00  0.00     0.012 A 
HETATM   27  C   UNL     1      42.603 -10.038  12.654  1.00  0.00     0.043 A 
HETATM   28  C   UNL     1      42.120  -9.013  13.457  1.00  0.00     0.116 A 
HETATM   29  F   UNL     1      42.311  -9.066  14.780  1.00  0.00    -0.206 F 
HETATM   30  C   UNL     1      41.450  -7.929  12.904  1.00  0.00     0.043 A 
HETATM   31  C   UNL     1      41.262  -7.866  11.522  1.00  0.00     0.012 A 
ENDBRANCH  24  25
ENDBRANCH  21  24
ENDBRANCH  20  21
ENDBRANCH   1  20
TORSDOF 6
ENDMDL
