MODEL 1
REMARK VINA RESULT:      -9.2      0.000      0.000
REMARK  5 active torsions:
REMARK  status: ('A' for Active; 'I' for Inactive)
REMARK    1  A    between atoms: C_8  and  N_9 
REMARK    2  A    between atoms: C_12  and  N_13 
REMARK    3  A    between atoms: N_13  and  C_15 
REMARK    4  A    between atoms: C_15  and  C_16 
REMARK    5  A    between atoms: C_17  and  C_18 
ROOT
HETATM    1  N   UNL     1      40.783 -15.362   4.389  1.00  0.00    -0.067 N 
HETATM    2  H   UNL     1      39.865 -15.699   4.071  1.00  0.00     0.280 HD
HETATM    3  C   UNL     1      40.530 -14.062   5.123  1.00  0.00     0.270 C 
ENDROOT
BRANCH   1   4
HETATM    4  C   UNL     1      41.734 -15.256   3.180  1.00  0.00     0.190 C 
HETATM    5  C   UNL     1      41.263 -16.164   2.031  1.00  0.00     0.048 C 
HETATM    6  C   UNL     1      40.094 -15.579   1.237  1.00  0.00     0.099 C 
HETATM    7  N   UNL     1      40.450 -14.227   0.786  1.00  0.00    -0.268 NA
HETATM    8  C   UNL     1      40.754 -13.287   1.869  1.00  0.00     0.099 C 
HETATM    9  C   UNL     1      41.943 -13.825   2.662  1.00  0.00     0.048 C 
BRANCH   7  10
HETATM   10  C   UNL     1      39.625 -13.717  -0.230  1.00  0.00     0.109 A 
HETATM   11  N   UNL     1      39.010 -12.534  -0.056  1.00  0.00    -0.224 NA
HETATM   12  C   UNL     1      38.165 -12.100  -1.023  1.00  0.00     0.102 A 
HETATM   13  N   UNL     1      37.905 -12.796  -2.138  1.00  0.00    -0.348 N 
HETATM   14  C   UNL     1      37.450 -10.804  -0.806  1.00  0.00     0.091 C 
HETATM   15  C   UNL     1      38.504 -13.980  -2.344  1.00  0.00     0.009 A 
HETATM   16  H   UNL     1      37.244 -12.425  -2.818  1.00  0.00     0.167 HD
HETATM   17  C   UNL     1      38.188 -14.747  -3.587  1.00  0.00     0.068 C 
HETATM   18  C   UNL     1      39.383 -14.467  -1.376  1.00  0.00     0.069 A 
ENDBRANCH   7  10
ENDBRANCH   1   4
BRANCH   1  19
HETATM   19  C   UNL     1      41.282 -16.418   5.391  1.00  0.00     0.277 C 
BRANCH  19  20
HETATM   20  C   UNL     1      42.711 -16.265   5.763  1.00  0.00     0.016 A 
HETATM   21  C   UNL     1      43.798 -17.148   5.484  1.00  0.00     0.096 A 
HETATM   22  N   UNL     1      44.918 -16.723   6.078  1.00  0.00    -0.174 NA
HETATM   23  N   UNL     1      44.606 -15.537   6.611  1.00  0.00    -0.288 N 
HETATM   24  H   UNL     1      45.343 -15.003   7.065  1.00  0.00     0.188 HD
HETATM   25  C   UNL     1      43.283 -15.231   6.480  1.00  0.00     0.120 A 
BRANCH  21  26
HETATM   26  C   UNL     1      43.790 -18.396   4.726  1.00  0.00    -0.005 A 
HETATM   27  C   UNL     1      43.714 -18.385   3.328  1.00  0.00     0.014 A 
HETATM   28  C   UNL     1      43.729 -19.586   2.612  1.00  0.00     0.001 A 
HETATM   29  C   UNL     1      43.828 -20.800   3.290  1.00  0.00     0.000 A 
HETATM   30  C   UNL     1      43.919 -20.818   4.681  1.00  0.00     0.001 A 
HETATM   31  C   UNL     1      43.902 -19.620   5.397  1.00  0.00     0.014 A 
ENDBRANCH  21  26
ENDBRANCH  19  20
ENDBRANCH   1  19
TORSDOF 5
ENDMDL
MODEL 2
REMARK VINA RESULT:      -9.1      1.786      2.654
REMARK  5 active torsions:
REMARK  status: ('A' for Active; 'I' for Inactive)
REMARK    1  A    between atoms: C_8  and  N_9 
REMARK    2  A    between atoms: C_12  and  N_13 
REMARK    3  A    between atoms: N_13  and  C_15 
REMARK    4  A    between atoms: C_15  and  C_16 
REMARK    5  A    between atoms: C_17  and  C_18 
ROOT
HETATM    1  N   UNL     1      42.660 -12.526   4.883  1.00  0.00    -0.067 N 
HETATM    2  H   UNL     1      41.636 -12.515   4.790  1.00  0.00     0.280 HD
HETATM    3  C   UNL     1      43.005 -11.482   5.925  1.00  0.00     0.270 C 
ENDROOT
BRANCH   1   4
HETATM    4  C   UNL     1      43.300 -12.304   3.498  1.00  0.00     0.190 C 
HETATM    5  C   UNL     1      43.137 -13.551   2.613  1.00  0.00     0.048 C 
HETATM    6  C   UNL     1      41.738 -13.689   2.010  1.00  0.00     0.099 C 
HETATM    7  N   UNL     1      41.394 -12.444   1.309  1.00  0.00    -0.268 NA
HETATM    8  C   UNL     1      41.386 -11.251   2.161  1.00  0.00     0.099 C 
HETATM    9  C   UNL     1      42.781 -11.064   2.752  1.00  0.00     0.048 C 
BRANCH   7  10
HETATM   10  C   UNL     1      40.305 -12.555   0.430  1.00  0.00     0.109 A 
HETATM   11  N   UNL     1      39.287 -11.681   0.519  1.00  0.00    -0.224 NA
HETATM   12  C   UNL     1      38.217 -11.854  -0.296  1.00  0.00     0.102 A 
HETATM   13  N   UNL     1      38.121 -12.857  -1.177  1.00  0.00    -0.348 N 
HETATM   14  C   UNL     1      37.069 -10.905  -0.164  1.00  0.00     0.091 C 
HETATM   15  C   UNL     1      39.120 -13.746  -1.294  1.00  0.00     0.009 A 
HETATM   16  H   UNL     1      37.281 -12.945  -1.748  1.00  0.00     0.167 HD
HETATM   17  C   UNL     1      38.985 -14.868  -2.273  1.00  0.00     0.068 C 
HETATM   18  C   UNL     1      40.243 -13.609  -0.477  1.00  0.00     0.069 A 
ENDBRANCH   7  10
ENDBRANCH   1   4
BRANCH   1  19
HETATM   19  C   UNL     1      43.007 -13.921   5.433  1.00  0.00     0.277 C 
BRANCH  19  20
HETATM   20  C   UNL     1      41.822 -14.784   5.669  1.00  0.00     0.016 A 
HETATM   21  C   UNL     1      41.592 -16.116   5.209  1.00  0.00     0.096 A 
HETATM   22  N   UNL     1      40.359 -16.522   5.532  1.00  0.00    -0.174 NA
HETATM   23  N   UNL     1      39.854 -15.545   6.292  1.00  0.00    -0.288 N 
HETATM   24  H   UNL     1      38.933 -15.679   6.702  1.00  0.00     0.188 HD
HETATM   25  C   UNL     1      40.680 -14.462   6.376  1.00  0.00     0.120 A 
BRANCH  21  26
HETATM   26  C   UNL     1      42.476 -16.980   4.433  1.00  0.00    -0.005 A 
HETATM   27  C   UNL     1      43.539 -17.654   5.047  1.00  0.00     0.014 A 
HETATM   28  C   UNL     1      44.366 -18.496   4.298  1.00  0.00     0.001 A 
HETATM   29  C   UNL     1      44.129 -18.674   2.935  1.00  0.00     0.000 A 
HETATM   30  C   UNL     1      43.064 -18.019   2.321  1.00  0.00     0.001 A 
HETATM   31  C   UNL     1      42.239 -17.176   3.067  1.00  0.00     0.014 A 
ENDBRANCH  21  26
ENDBRANCH  19  20
ENDBRANCH   1  19
TORSDOF 5
ENDMDL
MODEL 3
REMARK VINA RESULT:      -9.1      1.092      1.868
REMARK  5 active torsions:
REMARK  status: ('A' for Active; 'I' for Inactive)
REMARK    1  A    between atoms: C_8  and  N_9 
REMARK    2  A    between atoms: C_12  and  N_13 
REMARK    3  A    between atoms: N_13  and  C_15 
REMARK    4  A    between atoms: C_15  and  C_16 
REMARK    5  A    between atoms: C_17  and  C_18 
ROOT
HETATM    1  N   UNL     1      41.796 -14.972   4.291  1.00  0.00    -0.067 N 
HETATM    2  H   UNL     1      40.966 -14.382   4.149  1.00  0.00     0.280 HD
HETATM    3  C   UNL     1      42.826 -14.101   4.978  1.00  0.00     0.270 C 
ENDROOT
BRANCH   1   4
HETATM    4  C   UNL     1      42.238 -15.566   2.939  1.00  0.00     0.190 C 
HETATM    5  C   UNL     1      41.106 -16.395   2.308  1.00  0.00     0.048 C 
HETATM    6  C   UNL     1      40.025 -15.539   1.646  1.00  0.00     0.099 C 
HETATM    7  N   UNL     1      40.658 -14.620   0.691  1.00  0.00    -0.268 NA
HETATM    8  C   UNL     1      41.634 -13.704   1.288  1.00  0.00     0.099 C 
HETATM    9  C   UNL     1      42.749 -14.527   1.928  1.00  0.00     0.048 C 
BRANCH   7  10
HETATM   10  C   UNL     1      39.771 -14.032  -0.225  1.00  0.00     0.109 A 
HETATM   11  N   UNL     1      39.421 -14.703  -1.336  1.00  0.00    -0.224 NA
HETATM   12  C   UNL     1      38.619 -14.083  -2.236  1.00  0.00     0.102 A 
HETATM   13  N   UNL     1      38.168 -12.832  -2.078  1.00  0.00    -0.348 N 
HETATM   14  C   UNL     1      38.266 -14.818  -3.491  1.00  0.00     0.091 C 
HETATM   15  C   UNL     1      38.497 -12.134  -0.980  1.00  0.00     0.009 A 
HETATM   16  H   UNL     1      37.584 -12.414  -2.801  1.00  0.00     0.167 HD
HETATM   17  C   UNL     1      37.995 -10.734  -0.831  1.00  0.00     0.068 C 
HETATM   18  C   UNL     1      39.320 -12.732  -0.024  1.00  0.00     0.069 A 
ENDBRANCH   7  10
ENDBRANCH   1   4
BRANCH   1  19
HETATM   19  C   UNL     1      41.348 -16.081   5.260  1.00  0.00     0.277 C 
BRANCH  19  20
HETATM   20  C   UNL     1      42.294 -16.319   6.379  1.00  0.00     0.016 A 
HETATM   21  C   UNL     1      43.225 -17.390   6.538  1.00  0.00     0.096 A 
HETATM   22  N   UNL     1      43.824 -17.323   7.732  1.00  0.00    -0.174 NA
HETATM   23  N   UNL     1      43.402 -16.175   8.274  1.00  0.00    -0.288 N 
HETATM   24  H   UNL     1      43.791 -15.894   9.171  1.00  0.00     0.188 HD
HETATM   25  C   UNL     1      42.454 -15.551   7.516  1.00  0.00     0.120 A 
BRANCH  21  26
HETATM   26  C   UNL     1      43.514 -18.492   5.626  1.00  0.00    -0.005 A 
HETATM   27  C   UNL     1      43.824 -18.249   4.283  1.00  0.00     0.014 A 
HETATM   28  C   UNL     1      44.121 -19.310   3.424  1.00  0.00     0.001 A 
HETATM   29  C   UNL     1      44.117 -20.619   3.906  1.00  0.00     0.000 A 
HETATM   30  C   UNL     1      43.824 -20.869   5.245  1.00  0.00     0.001 A 
HETATM   31  C   UNL     1      43.526 -19.809   6.103  1.00  0.00     0.014 A 
ENDBRANCH  21  26
ENDBRANCH  19  20
ENDBRANCH   1  19
TORSDOF 5
ENDMDL
MODEL 4
REMARK VINA RESULT:      -8.5      3.643      7.120
REMARK  5 active torsions:
REMARK  status: ('A' for Active; 'I' for Inactive)
REMARK    1  A    between atoms: C_8  and  N_9 
REMARK    2  A    between atoms: C_12  and  N_13 
REMARK    3  A    between atoms: N_13  and  C_15 
REMARK    4  A    between atoms: C_15  and  C_16 
REMARK    5  A    between atoms: C_17  and  C_18 
ROOT
HETATM    1  N   UNL     1      41.233 -14.898   5.065  1.00  0.00    -0.067 N 
HETATM    2  H   UNL     1      40.609 -14.113   4.842  1.00  0.00     0.280 HD
HETATM    3  C   UNL     1      40.861 -15.356   6.460  1.00  0.00     0.270 C 
ENDROOT
BRANCH   1   4
HETATM    4  C   UNL     1      42.699 -14.450   4.893  1.00  0.00     0.190 C 
HETATM    5  C   UNL     1      42.773 -13.037   4.290  1.00  0.00     0.048 C 
HETATM    6  C   UNL     1      42.491 -11.929   5.306  1.00  0.00     0.099 C 
HETATM    7  N   UNL     1      43.380 -12.102   6.463  1.00  0.00    -0.268 NA
HETATM    8  C   UNL     1      43.226 -13.382   7.160  1.00  0.00     0.099 C 
HETATM    9  C   UNL     1      43.535 -14.512   6.181  1.00  0.00     0.048 C 
BRANCH   7  10
HETATM   10  C   UNL     1      43.474 -10.977   7.298  1.00  0.00     0.109 A 
HETATM   11  N   UNL     1      42.796  -9.858   6.984  1.00  0.00    -0.224 NA
HETATM   12  C   UNL     1      42.961  -8.765   7.769  1.00  0.00     0.102 A 
HETATM   13  N   UNL     1      43.771  -8.743   8.835  1.00  0.00    -0.348 N 
HETATM   14  C   UNL     1      42.238  -7.511   7.392  1.00  0.00     0.091 C 
HETATM   15  C   UNL     1      44.460  -9.842   9.178  1.00  0.00     0.009 A 
HETATM   16  H   UNL     1      43.867  -7.883   9.374  1.00  0.00     0.167 HD
HETATM   17  C   UNL     1      45.371  -9.790  10.361  1.00  0.00     0.068 C 
HETATM   18  C   UNL     1      44.323 -10.992   8.400  1.00  0.00     0.069 A 
ENDBRANCH   7  10
ENDBRANCH   1   4
BRANCH   1  19
HETATM   19  C   UNL     1      40.874 -16.005   4.059  1.00  0.00     0.277 C 
BRANCH  19  20
HETATM   20  C   UNL     1      41.618 -15.916   2.777  1.00  0.00     0.016 A 
HETATM   21  C   UNL     1      42.638 -16.786   2.283  1.00  0.00     0.096 A 
HETATM   22  N   UNL     1      43.149 -16.315   1.140  1.00  0.00    -0.174 NA
HETATM   23  N   UNL     1      42.398 -15.253   0.829  1.00  0.00    -0.288 N 
HETATM   24  H   UNL     1      42.579 -14.774  -0.050  1.00  0.00     0.188 HD
HETATM   25  C   UNL     1      41.487 -14.949   1.799  1.00  0.00     0.120 A 
BRANCH  21  26
HETATM   26  C   UNL     1      43.172 -18.003   2.886  1.00  0.00    -0.005 A 
HETATM   27  C   UNL     1      43.703 -17.987   4.182  1.00  0.00     0.014 A 
HETATM   28  C   UNL     1      44.192 -19.163   4.757  1.00  0.00     0.001 A 
HETATM   29  C   UNL     1      44.144 -20.361   4.044  1.00  0.00     0.000 A 
HETATM   30  C   UNL     1      43.603 -20.387   2.760  1.00  0.00     0.001 A 
HETATM   31  C   UNL     1      43.117 -19.213   2.183  1.00  0.00     0.014 A 
ENDBRANCH  21  26
ENDBRANCH  19  20
ENDBRANCH   1  19
TORSDOF 5
ENDMDL
MODEL 5
REMARK VINA RESULT:      -8.4      2.068      3.470
REMARK  5 active torsions:
REMARK  status: ('A' for Active; 'I' for Inactive)
REMARK    1  A    between atoms: C_8  and  N_9 
REMARK    2  A    between atoms: C_12  and  N_13 
REMARK    3  A    between atoms: N_13  and  C_15 
REMARK    4  A    between atoms: C_15  and  C_16 
REMARK    5  A    between atoms: C_17  and  C_18 
ROOT
HETATM    1  N   UNL     1      43.126 -12.406   5.911  1.00  0.00    -0.067 N 
HETATM    2  H   UNL     1      42.191 -12.313   6.328  1.00  0.00     0.280 HD
HETATM    3  C   UNL     1      44.115 -12.292   7.050  1.00  0.00     0.270 C 
ENDROOT
BRANCH   1   4
HETATM    4  C   UNL     1      43.292 -11.359   4.792  1.00  0.00     0.190 C 
HETATM    5  C   UNL     1      43.609 -12.037   3.448  1.00  0.00     0.048 C 
HETATM    6  C   UNL     1      42.381 -12.650   2.773  1.00  0.00     0.099 C 
HETATM    7  N   UNL     1      41.334 -11.625   2.660  1.00  0.00    -0.268 NA
HETATM    8  C   UNL     1      40.894 -11.065   3.942  1.00  0.00     0.099 C 
HETATM    9  C   UNL     1      42.092 -10.412   4.627  1.00  0.00     0.048 C 
BRANCH   7  10
HETATM   10  C   UNL     1      40.302 -11.944   1.764  1.00  0.00     0.109 A 
HETATM   11  N   UNL     1      40.500 -12.892   0.832  1.00  0.00    -0.224 NA
HETATM   12  C   UNL     1      39.511 -13.130  -0.064  1.00  0.00     0.102 A 
HETATM   13  N   UNL     1      38.352 -12.461  -0.073  1.00  0.00    -0.348 N 
HETATM   14  C   UNL     1      39.753 -14.157  -1.126  1.00  0.00     0.091 C 
HETATM   15  C   UNL     1      38.120 -11.509   0.845  1.00  0.00     0.009 A 
HETATM   16  H   UNL     1      37.655 -12.672  -0.786  1.00  0.00     0.167 HD
HETATM   17  C   UNL     1      36.826 -10.763   0.807  1.00  0.00     0.068 C 
HETATM   18  C   UNL     1      39.109 -11.229   1.789  1.00  0.00     0.069 A 
ENDBRANCH   7  10
ENDBRANCH   1   4
BRANCH   1  19
HETATM   19  C   UNL     1      43.178 -13.835   5.340  1.00  0.00     0.277 C 
BRANCH  19  20
HETATM   20  C   UNL     1      41.964 -14.640   5.627  1.00  0.00     0.016 A 
HETATM   21  C   UNL     1      41.670 -15.976   5.216  1.00  0.00     0.096 A 
HETATM   22  N   UNL     1      40.430 -16.321   5.576  1.00  0.00    -0.174 NA
HETATM   23  N   UNL     1      39.980 -15.299   6.313  1.00  0.00    -0.288 N 
HETATM   24  H   UNL     1      39.063 -15.383   6.746  1.00  0.00     0.188 HD
HETATM   25  C   UNL     1      40.851 -14.249   6.346  1.00  0.00     0.120 A 
BRANCH  21  26
HETATM   26  C   UNL     1      42.503 -16.900   4.452  1.00  0.00    -0.005 A 
HETATM   27  C   UNL     1      42.316 -17.061   3.073  1.00  0.00     0.014 A 
HETATM   28  C   UNL     1      43.133 -17.932   2.348  1.00  0.00     0.001 A 
HETATM   29  C   UNL     1      44.145 -18.640   2.996  1.00  0.00     0.000 A 
HETATM   30  C   UNL     1      44.346 -18.475   4.365  1.00  0.00     0.001 A 
HETATM   31  C   UNL     1      43.530 -17.607   5.091  1.00  0.00     0.014 A 
ENDBRANCH  21  26
ENDBRANCH  19  20
ENDBRANCH   1  19
TORSDOF 5
ENDMDL
MODEL 6
REMARK VINA RESULT:      -8.3      4.796      8.185
REMARK  5 active torsions:
REMARK  status: ('A' for Active; 'I' for Inactive)
REMARK    1  A    between atoms: C_8  and  N_9 
REMARK    2  A    between atoms: C_12  and  N_13 
REMARK    3  A    between atoms: N_13  and  C_15 
REMARK    4  A    between atoms: C_15  and  C_16 
REMARK    5  A    between atoms: C_17  and  C_18 
ROOT
HETATM    1  N   UNL     1      43.181 -13.079   5.651  1.00  0.00    -0.067 N 
HETATM    2  H   UNL     1      42.198 -12.977   5.935  1.00  0.00     0.280 HD
HETATM    3  C   UNL     1      43.801 -14.074   6.609  1.00  0.00     0.270 C 
ENDROOT
BRANCH   1   4
HETATM    4  C   UNL     1      43.851 -11.690   5.627  1.00  0.00     0.190 C 
HETATM    5  C   UNL     1      42.804 -10.579   5.437  1.00  0.00     0.048 C 
HETATM    6  C   UNL     1      42.031 -10.249   6.714  1.00  0.00     0.099 C 
HETATM    7  N   UNL     1      42.987  -9.953   7.790  1.00  0.00    -0.268 NA
HETATM    8  C   UNL     1      43.903 -11.052   8.107  1.00  0.00     0.099 C 
HETATM    9  C   UNL     1      44.718 -11.384   6.859  1.00  0.00     0.048 C 
BRANCH   7  10
HETATM   10  C   UNL     1      42.427  -9.305   8.903  1.00  0.00     0.109 A 
HETATM   11  N   UNL     1      43.174  -9.110  10.004  1.00  0.00    -0.224 NA
HETATM   12  C   UNL     1      42.587  -8.545  11.088  1.00  0.00     0.102 A 
HETATM   13  N   UNL     1      41.299  -8.182  11.119  1.00  0.00    -0.348 N 
HETATM   14  C   UNL     1      43.410  -8.370  12.325  1.00  0.00     0.091 C 
HETATM   15  C   UNL     1      40.525  -8.360  10.036  1.00  0.00     0.009 A 
HETATM   16  H   UNL     1      40.911  -7.781  11.971  1.00  0.00     0.167 HD
HETATM   17  C   UNL     1      39.086  -7.963  10.098  1.00  0.00     0.068 C 
HETATM   18  C   UNL     1      41.085  -8.937   8.896  1.00  0.00     0.069 A 
ENDBRANCH   7  10
ENDBRANCH   1   4
BRANCH   1  19
HETATM   19  C   UNL     1      43.138 -13.694   4.242  1.00  0.00     0.277 C 
BRANCH  19  20
HETATM   20  C   UNL     1      41.833 -14.311   3.896  1.00  0.00     0.016 A 
HETATM   21  C   UNL     1      41.548 -15.683   3.619  1.00  0.00     0.096 A 
HETATM   22  N   UNL     1      40.276 -15.835   3.238  1.00  0.00    -0.174 NA
HETATM   23  N   UNL     1      39.715 -14.631   3.392  1.00  0.00    -0.288 N 
HETATM   24  H   UNL     1      38.718 -14.536   3.215  1.00  0.00     0.188 HD
HETATM   25  C   UNL     1      40.617 -13.672   3.752  1.00  0.00     0.120 A 
BRANCH  21  26
HETATM   26  C   UNL     1      42.453 -16.828   3.650  1.00  0.00    -0.005 A 
HETATM   27  C   UNL     1      43.067 -17.224   4.845  1.00  0.00     0.014 A 
HETATM   28  C   UNL     1      43.915 -18.335   4.867  1.00  0.00     0.001 A 
HETATM   29  C   UNL     1      44.145 -19.060   3.698  1.00  0.00     0.000 A 
HETATM   30  C   UNL     1      43.525 -18.681   2.509  1.00  0.00     0.001 A 
HETATM   31  C   UNL     1      42.681 -17.571   2.484  1.00  0.00     0.014 A 
ENDBRANCH  21  26
ENDBRANCH  19  20
ENDBRANCH   1  19
TORSDOF 5
ENDMDL
MODEL 7
REMARK VINA RESULT:      -8.3      5.138      7.927
REMARK  5 active torsions:
REMARK  status: ('A' for Active; 'I' for Inactive)
REMARK    1  A    between atoms: C_8  and  N_9 
REMARK    2  A    between atoms: C_12  and  N_13 
REMARK    3  A    between atoms: N_13  and  C_15 
REMARK    4  A    between atoms: C_15  and  C_16 
REMARK    5  A    between atoms: C_17  and  C_18 
ROOT
HETATM    1  N   UNL     1      40.486  -9.549   8.977  1.00  0.00    -0.067 N 
HETATM    2  H   UNL     1      40.721 -10.549   9.024  1.00  0.00     0.280 HD
HETATM    3  C   UNL     1      39.212  -9.373   9.776  1.00  0.00     0.270 C 
ENDROOT
BRANCH   1   4
HETATM    4  C   UNL     1      40.399  -9.115   7.501  1.00  0.00     0.190 C 
HETATM    5  C   UNL     1      41.658  -9.543   6.728  1.00  0.00     0.048 C 
HETATM    6  C   UNL     1      41.663 -11.026   6.353  1.00  0.00     0.099 C 
HETATM    7  N   UNL     1      40.420 -11.344   5.637  1.00  0.00    -0.268 NA
HETATM    8  C   UNL     1      39.198 -11.094   6.406  1.00  0.00     0.099 C 
HETATM    9  C   UNL     1      39.143  -9.612   6.768  1.00  0.00     0.048 C 
BRANCH   7  10
HETATM   10  C   UNL     1      40.446 -12.562   4.940  1.00  0.00     0.109 A 
HETATM   11  N   UNL     1      40.198 -12.578   3.619  1.00  0.00    -0.224 NA
HETATM   12  C   UNL     1      40.160 -13.776   2.985  1.00  0.00     0.102 A 
HETATM   13  N   UNL     1      40.348 -14.944   3.613  1.00  0.00    -0.348 N 
HETATM   14  C   UNL     1      39.841 -13.792   1.524  1.00  0.00     0.091 C 
HETATM   15  C   UNL     1      40.601 -14.965   4.931  1.00  0.00     0.009 A 
HETATM   16  H   UNL     1      40.287 -15.813   3.084  1.00  0.00     0.167 HD
HETATM   17  C   UNL     1      40.791 -16.281   5.614  1.00  0.00     0.068 C 
HETATM   18  C   UNL     1      40.650 -13.756   5.626  1.00  0.00     0.069 A 
ENDBRANCH   7  10
ENDBRANCH   1   4
BRANCH   1  19
HETATM   19  C   UNL     1      41.636  -8.824   9.698  1.00  0.00     0.277 C 
BRANCH  19  20
HETATM   20  C   UNL     1      42.370  -9.677  10.666  1.00  0.00     0.016 A 
HETATM   21  C   UNL     1      43.619 -10.346  10.488  1.00  0.00     0.096 A 
HETATM   22  N   UNL     1      43.903 -11.111  11.548  1.00  0.00    -0.174 NA
HETATM   23  N   UNL     1      42.944 -10.845  12.441  1.00  0.00    -0.288 N 
HETATM   24  H   UNL     1      43.004 -11.281  13.358  1.00  0.00     0.188 HD
HETATM   25  C   UNL     1      41.979 -10.016  11.948  1.00  0.00     0.120 A 
BRANCH  21  26
HETATM   26  C   UNL     1      44.510 -10.325   9.332  1.00  0.00    -0.005 A 
HETATM   27  C   UNL     1      45.469  -9.315   9.184  1.00  0.00     0.014 A 
HETATM   28  C   UNL     1      46.331  -9.317   8.083  1.00  0.00     0.001 A 
HETATM   29  C   UNL     1      46.243 -10.333   7.132  1.00  0.00     0.000 A 
HETATM   30  C   UNL     1      45.302 -11.349   7.279  1.00  0.00     0.001 A 
HETATM   31  C   UNL     1      44.439 -11.347   8.376  1.00  0.00     0.014 A 
ENDBRANCH  21  26
ENDBRANCH  19  20
ENDBRANCH   1  19
TORSDOF 5
ENDMDL
MODEL 8
REMARK VINA RESULT:      -8.1      2.180      8.371
REMARK  5 active torsions:
REMARK  status: ('A' for Active; 'I' for Inactive)
REMARK    1  A    between atoms: C_8  and  N_9 
REMARK    2  A    between atoms: C_12  and  N_13 
REMARK    3  A    between atoms: N_13  and  C_15 
REMARK    4  A    between atoms: C_15  and  C_16 
REMARK    5  A    between atoms: C_17  and  C_18 
ROOT
HETATM    1  N   UNL     1      40.994 -12.062   1.108  1.00  0.00    -0.067 N 
HETATM    2  H   UNL     1      41.582 -12.315   0.304  1.00  0.00     0.280 HD
HETATM    3  C   UNL     1      41.939 -11.652   2.217  1.00  0.00     0.270 C 
ENDROOT
BRANCH   1   4
HETATM    4  C   UNL     1      40.060 -13.241   1.448  1.00  0.00     0.190 C 
HETATM    5  C   UNL     1      40.431 -14.488   0.627  1.00  0.00     0.048 C 
HETATM    6  C   UNL     1      41.657 -15.226   1.167  1.00  0.00     0.099 C 
HETATM    7  N   UNL     1      41.450 -15.523   2.591  1.00  0.00    -0.268 NA
HETATM    8  C   UNL     1      41.247 -14.340   3.433  1.00  0.00     0.099 C 
HETATM    9  C   UNL     1      40.007 -13.598   2.942  1.00  0.00     0.048 C 
BRANCH   7  10
HETATM   10  C   UNL     1      42.325 -16.486   3.117  1.00  0.00     0.109 A 
HETATM   11  N   UNL     1      43.001 -16.222   4.250  1.00  0.00    -0.224 NA
HETATM   12  C   UNL     1      43.892 -17.141   4.697  1.00  0.00     0.102 A 
HETATM   13  N   UNL     1      44.138 -18.294   4.061  1.00  0.00    -0.348 N 
HETATM   14  C   UNL     1      44.672 -16.824   5.933  1.00  0.00     0.091 C 
HETATM   15  C   UNL     1      43.479 -18.590   2.930  1.00  0.00     0.009 A 
HETATM   16  H   UNL     1      44.834 -18.935   4.438  1.00  0.00     0.167 HD
HETATM   17  C   UNL     1      43.781 -19.875   2.229  1.00  0.00     0.068 C 
HETATM   18  C   UNL     1      42.552 -17.675   2.431  1.00  0.00     0.069 A 
ENDBRANCH   7  10
ENDBRANCH   1   4
BRANCH   1  19
HETATM   19  C   UNL     1      40.186 -10.833   0.654  1.00  0.00     0.277 C 
BRANCH  19  20
HETATM   20  C   UNL     1      40.582 -10.314  -0.679  1.00  0.00     0.016 A 
HETATM   21  C   UNL     1      40.299 -10.867  -1.965  1.00  0.00     0.096 A 
HETATM   22  N   UNL     1      40.920 -10.175  -2.926  1.00  0.00    -0.174 NA
HETATM   23  N   UNL     1      41.475  -9.129  -2.304  1.00  0.00    -0.288 N 
HETATM   24  H   UNL     1      41.952  -8.429  -2.868  1.00  0.00     0.188 HD
HETATM   25  C   UNL     1      41.331  -9.184  -0.948  1.00  0.00     0.120 A 
BRANCH  21  26
HETATM   26  C   UNL     1      39.514 -12.052  -2.296  1.00  0.00    -0.005 A 
HETATM   27  C   UNL     1      38.114 -12.014  -2.272  1.00  0.00     0.014 A 
HETATM   28  C   UNL     1      37.372 -13.149  -2.613  1.00  0.00     0.001 A 
HETATM   29  C   UNL     1      38.026 -14.322  -2.987  1.00  0.00     0.000 A 
HETATM   30  C   UNL     1      39.418 -14.364  -3.028  1.00  0.00     0.001 A 
HETATM   31  C   UNL     1      40.160 -13.232  -2.686  1.00  0.00     0.014 A 
ENDBRANCH  21  26
ENDBRANCH  19  20
ENDBRANCH   1  19
TORSDOF 5
ENDMDL
MODEL 9
REMARK VINA RESULT:      -8.1      3.373      6.344
REMARK  5 active torsions:
REMARK  status: ('A' for Active; 'I' for Inactive)
REMARK    1  A    between atoms: C_8  and  N_9 
REMARK    2  A    between atoms: C_12  and  N_13 
REMARK    3  A    between atoms: N_13  and  C_15 
REMARK    4  A    between atoms: C_15  and  C_16 
REMARK    5  A    between atoms: C_17  and  C_18 
ROOT
HETATM    1  N   UNL     1      42.518 -15.334   2.489  1.00  0.00    -0.067 N 
HETATM    2  H   UNL     1      42.942 -15.290   3.424  1.00  0.00     0.280 HD
HETATM    3  C   UNL     1      43.660 -15.249   1.499  1.00  0.00     0.270 C 
ENDROOT
BRANCH   1   4
HETATM    4  C   UNL     1      41.454 -14.226   2.357  1.00  0.00     0.190 C 
HETATM    5  C   UNL     1      40.492 -14.244   3.558  1.00  0.00     0.048 C 
HETATM    6  C   UNL     1      41.083 -13.610   4.818  1.00  0.00     0.099 C 
HETATM    7  N   UNL     1      41.565 -12.260   4.494  1.00  0.00    -0.268 NA
HETATM    8  C   UNL     1      42.601 -12.218   3.458  1.00  0.00     0.099 C 
HETATM    9  C   UNL     1      42.031 -12.813   2.173  1.00  0.00     0.048 C 
BRANCH   7  10
HETATM   10  C   UNL     1      41.807 -11.446   5.612  1.00  0.00     0.109 A 
HETATM   11  N   UNL     1      42.989 -11.526   6.249  1.00  0.00    -0.224 NA
HETATM   12  C   UNL     1      43.170 -10.780   7.367  1.00  0.00     0.102 A 
HETATM   13  N   UNL     1      42.226  -9.975   7.872  1.00  0.00    -0.348 N 
HETATM   14  C   UNL     1      44.470 -10.904   8.096  1.00  0.00     0.091 C 
HETATM   15  C   UNL     1      41.036  -9.870   7.261  1.00  0.00     0.009 A 
HETATM   16  H   UNL     1      42.416  -9.455   8.728  1.00  0.00     0.167 HD
HETATM   17  C   UNL     1      39.992  -8.979   7.851  1.00  0.00     0.068 C 
HETATM   18  C   UNL     1      40.804 -10.618   6.106  1.00  0.00     0.069 A 
ENDBRANCH   7  10
ENDBRANCH   1   4
BRANCH   1  19
HETATM   19  C   UNL     1      41.874 -16.729   2.397  1.00  0.00     0.277 C 
BRANCH  19  20
HETATM   20  C   UNL     1      42.742 -17.824   2.898  1.00  0.00     0.016 A 
HETATM   21  C   UNL     1      43.368 -17.944   4.176  1.00  0.00     0.096 A 
HETATM   22  N   UNL     1      44.163 -19.018   4.215  1.00  0.00    -0.174 NA
HETATM   23  N   UNL     1      43.958 -19.651   3.055  1.00  0.00    -0.288 N 
HETATM   24  H   UNL     1      44.426 -20.541   2.901  1.00  0.00     0.188 HD
HETATM   25  C   UNL     1      43.139 -18.957   2.213  1.00  0.00     0.120 A 
BRANCH  21  26
HETATM   26  C   UNL     1      43.278 -17.047   5.324  1.00  0.00    -0.005 A 
HETATM   27  C   UNL     1      44.348 -16.211   5.667  1.00  0.00     0.014 A 
HETATM   28  C   UNL     1      44.242 -15.341   6.756  1.00  0.00     0.001 A 
HETATM   29  C   UNL     1      43.064 -15.297   7.501  1.00  0.00     0.000 A 
HETATM   30  C   UNL     1      41.990 -16.115   7.157  1.00  0.00     0.001 A 
HETATM   31  C   UNL     1      42.095 -16.986   6.072  1.00  0.00     0.014 A 
ENDBRANCH  21  26
ENDBRANCH  19  20
ENDBRANCH   1  19
TORSDOF 5
ENDMDL
MODEL 10
REMARK VINA RESULT:      -7.6      4.385      8.019
REMARK  5 active torsions:
REMARK  status: ('A' for Active; 'I' for Inactive)
REMARK    1  A    between atoms: C_8  and  N_9 
REMARK    2  A    between atoms: C_12  and  N_13 
REMARK    3  A    between atoms: N_13  and  C_15 
REMARK    4  A    between atoms: C_15  and  C_16 
REMARK    5  A    between atoms: C_17  and  C_18 
ROOT
HETATM    1  N   UNL     1      40.891 -10.387   4.678  1.00  0.00    -0.067 N 
HETATM    2  H   UNL     1      40.723 -11.175   5.317  1.00  0.00     0.280 HD
HETATM    3  C   UNL     1      39.529  -9.916   4.215  1.00  0.00     0.270 C 
ENDROOT
BRANCH   1   4
HETATM    4  C   UNL     1      41.845 -10.837   3.554  1.00  0.00     0.190 C 
HETATM    5  C   UNL     1      43.204 -11.271   4.129  1.00  0.00     0.048 C 
HETATM    6  C   UNL     1      43.181 -12.669   4.750  1.00  0.00     0.099 C 
HETATM    7  N   UNL     1      42.649 -13.621   3.766  1.00  0.00    -0.268 NA
HETATM    8  C   UNL     1      41.288 -13.324   3.310  1.00  0.00     0.099 C 
HETATM    9  C   UNL     1      41.283 -11.947   2.652  1.00  0.00     0.048 C 
BRANCH   7  10
HETATM   10  C   UNL     1      42.894 -14.970   4.071  1.00  0.00     0.109 A 
HETATM   11  N   UNL     1      43.235 -15.317   5.325  1.00  0.00    -0.224 NA
HETATM   12  C   UNL     1      43.534 -16.615   5.574  1.00  0.00     0.102 A 
HETATM   13  N   UNL     1      43.515 -17.567   4.632  1.00  0.00    -0.348 N 
HETATM   14  C   UNL     1      43.955 -16.989   6.961  1.00  0.00     0.091 C 
HETATM   15  C   UNL     1      43.176 -17.256   3.371  1.00  0.00     0.009 A 
HETATM   16  H   UNL     1      43.770 -18.522   4.879  1.00  0.00     0.167 HD
HETATM   17  C   UNL     1      43.177 -18.330   2.332  1.00  0.00     0.068 C 
HETATM   18  C   UNL     1      42.860 -15.931   3.066  1.00  0.00     0.069 A 
ENDBRANCH   7  10
ENDBRANCH   1   4
BRANCH   1  19
HETATM   19  C   UNL     1      41.537  -9.290   5.543  1.00  0.00     0.277 C 
BRANCH  19  20
HETATM   20  C   UNL     1      41.205  -9.389   6.986  1.00  0.00     0.016 A 
HETATM   21  C   UNL     1      42.093  -9.577   8.089  1.00  0.00     0.096 A 
HETATM   22  N   UNL     1      41.409  -9.729   9.228  1.00  0.00    -0.174 NA
HETATM   23  N   UNL     1      40.130  -9.512   8.902  1.00  0.00    -0.288 N 
HETATM   24  H   UNL     1      39.435  -9.518   9.645  1.00  0.00     0.188 HD
HETATM   25  C   UNL     1      39.949  -9.338   7.561  1.00  0.00     0.120 A 
BRANCH  21  26
HETATM   26  C   UNL     1      43.550  -9.672   8.082  1.00  0.00    -0.005 A 
HETATM   27  C   UNL     1      44.190 -10.850   7.678  1.00  0.00     0.014 A 
HETATM   28  C   UNL     1      45.585 -10.921   7.655  1.00  0.00     0.001 A 
HETATM   29  C   UNL     1      46.346  -9.814   8.027  1.00  0.00     0.000 A 
HETATM   30  C   UNL     1      45.717  -8.633   8.416  1.00  0.00     0.001 A 
HETATM   31  C   UNL     1      44.324  -8.561   8.442  1.00  0.00     0.014 A 
ENDBRANCH  21  26
ENDBRANCH  19  20
ENDBRANCH   1  19
TORSDOF 5
ENDMDL
