MODEL 1
REMARK VINA RESULT:      -9.2      0.000      0.000
REMARK  4 active torsions:
REMARK  status: ('A' for Active; 'I' for Inactive)
REMARK    1  A    between atoms: C_7  and  C_8 
REMARK    2  A    between atoms: C_8  and  N_9 
REMARK    3  A    between atoms: N_15  and  C_17 
REMARK    4  A    between atoms: C_21  and  C_22 
ROOT
HETATM    1  N   UNL     1      42.762 -10.973   5.828  1.00  0.00    -0.067 N 
HETATM    2  H   UNL     1      42.481  -9.982   5.843  1.00  0.00     0.280 HD
HETATM    3  C   UNL     1      43.225 -11.240   4.424  1.00  0.00     0.236 C 
HETATM    4  C   UNL     1      43.443 -12.737   4.188  1.00  0.00     0.039 C 
HETATM    5  C   UNL     1      42.213 -13.620   4.537  1.00  0.00    -0.013 C 
HETATM    6  C   UNL     1      41.041 -13.433   3.534  1.00  0.00     0.245 C 
HETATM    7  N   UNL     1      41.388 -13.970   2.166  1.00  0.00    -0.065 N 
HETATM    8  H   UNL     1      42.222 -13.500   1.787  1.00  0.00     0.280 HD
HETATM    9  C   UNL     1      41.708 -15.459   2.195  1.00  0.00     0.244 C 
HETATM   10  C   UNL     1      42.889 -15.706   3.144  1.00  0.00     0.045 C 
HETATM   11  C   UNL     1      42.610 -15.125   4.544  1.00  0.00     0.022 C 
HETATM   12  C   UNL     1      41.754 -13.247   5.978  1.00  0.00     0.039 C 
HETATM   13  C   UNL     1      41.543 -11.753   6.216  1.00  0.00     0.236 C 
ENDROOT
BRANCH   7  14
HETATM   14  C   UNL     1      40.283 -13.704   1.181  1.00  0.00     0.188 A 
HETATM   15  C   UNL     1      40.677 -13.059  -0.119  1.00  0.00     0.035 A 
HETATM   16  C   UNL     1      40.297 -14.512  -0.085  1.00  0.00     0.035 A 
ENDBRANCH   7  14
BRANCH  10  17
HETATM   17  C   UNL     1      43.229 -17.181   3.200  1.00  0.00    -0.052 A 
HETATM   18  C   UNL     1      43.929 -17.690   4.306  1.00  0.00     0.007 A 
HETATM   19  C   UNL     1      44.276 -19.041   4.369  1.00  0.00     0.001 A 
HETATM   20  C   UNL     1      43.930 -19.901   3.331  1.00  0.00     0.000 A 
HETATM   21  C   UNL     1      43.231 -19.413   2.231  1.00  0.00     0.001 A 
HETATM   22  C   UNL     1      42.882 -18.064   2.164  1.00  0.00     0.007 A 
ENDBRANCH  10  17
BRANCH   1  23
HETATM   23  C   UNL     1      43.868 -10.995   6.883  1.00  0.00     0.277 C 
BRANCH  23  24
HETATM   24  C   UNL     1      43.976  -9.696   7.592  1.00  0.00     0.011 A 
HETATM   25  C   UNL     1      45.162  -9.046   8.037  1.00  0.00     0.060 A 
HETATM   26  C   UNL     1      46.570  -9.518   7.966  1.00  0.00     0.073 C 
HETATM   27  N   UNL     1      44.895  -7.843   8.547  1.00  0.00    -0.178 NA
HETATM   28  N   UNL     1      43.560  -7.757   8.553  1.00  0.00    -0.284 N 
HETATM   29  C   UNL     1      42.910  -6.589   9.101  1.00  0.00     0.179 C 
HETATM   30  C   UNL     1      42.957  -8.834   7.961  1.00  0.00     0.122 A 
ENDBRANCH  23  24
ENDBRANCH   1  23
TORSDOF 4
ENDMDL
MODEL 2
REMARK VINA RESULT:      -8.6      3.071      8.442
REMARK  4 active torsions:
REMARK  status: ('A' for Active; 'I' for Inactive)
REMARK    1  A    between atoms: C_7  and  C_8 
REMARK    2  A    between atoms: C_8  and  N_9 
REMARK    3  A    between atoms: N_15  and  C_17 
REMARK    4  A    between atoms: C_21  and  C_22 
ROOT
HETATM    1  N   UNL     1      40.790 -14.140   1.382  1.00  0.00    -0.067 N 
HETATM    2  H   UNL     1      40.321 -14.835   0.783  1.00  0.00     0.280 HD
HETATM    3  C   UNL     1      42.082 -14.779   1.808  1.00  0.00     0.236 C 
HETATM    4  C   UNL     1      42.770 -13.958   2.901  1.00  0.00     0.039 C 
HETATM    5  C   UNL     1      41.872 -13.663   4.135  1.00  0.00    -0.013 C 
HETATM    6  C   UNL     1      41.595 -14.931   4.988  1.00  0.00     0.245 C 
HETATM    7  N   UNL     1      42.847 -15.428   5.670  1.00  0.00    -0.065 N 
HETATM    8  H   UNL     1      43.579 -15.650   4.981  1.00  0.00     0.280 HD
HETATM    9  C   UNL     1      43.442 -14.387   6.611  1.00  0.00     0.244 C 
HETATM   10  C   UNL     1      43.776 -13.118   5.816  1.00  0.00     0.045 C 
HETATM   11  C   UNL     1      42.543 -12.598   5.051  1.00  0.00     0.022 C 
HETATM   12  C   UNL     1      40.534 -13.061   3.613  1.00  0.00     0.039 C 
HETATM   13  C   UNL     1      39.849 -13.875   2.518  1.00  0.00     0.236 C 
ENDROOT
BRANCH   7  14
HETATM   14  C   UNL     1      42.588 -16.705   6.421  1.00  0.00     0.188 A 
HETATM   15  C   UNL     1      43.402 -17.903   6.019  1.00  0.00     0.035 A 
HETATM   16  C   UNL     1      43.689 -17.200   7.315  1.00  0.00     0.035 A 
ENDBRANCH   7  14
BRANCH  10  17
HETATM   17  C   UNL     1      44.366 -12.058   6.725  1.00  0.00    -0.052 A 
HETATM   18  C   UNL     1      45.649 -11.553   6.460  1.00  0.00     0.007 A 
HETATM   19  C   UNL     1      46.223 -10.594   7.297  1.00  0.00     0.001 A 
HETATM   20  C   UNL     1      45.527 -10.129   8.409  1.00  0.00     0.000 A 
HETATM   21  C   UNL     1      44.253 -10.617   8.682  1.00  0.00     0.001 A 
HETATM   22  C   UNL     1      43.674 -11.574   7.847  1.00  0.00     0.007 A 
ENDBRANCH  10  17
BRANCH   1  23
HETATM   23  C   UNL     1      40.944 -12.960   0.422  1.00  0.00     0.277 C 
BRANCH  23  24
HETATM   24  C   UNL     1      40.319 -13.239  -0.895  1.00  0.00     0.011 A 
HETATM   25  C   UNL     1      40.506 -12.524  -2.112  1.00  0.00     0.060 A 
HETATM   26  C   UNL     1      41.309 -11.299  -2.363  1.00  0.00     0.073 C 
HETATM   27  N   UNL     1      39.867 -13.112  -3.123  1.00  0.00    -0.178 NA
HETATM   28  N   UNL     1      39.178 -14.113  -2.563  1.00  0.00    -0.284 N 
HETATM   29  C   UNL     1      38.313 -14.941  -3.372  1.00  0.00     0.179 C 
HETATM   30  C   UNL     1      39.437 -14.253  -1.227  1.00  0.00     0.122 A 
ENDBRANCH  23  24
ENDBRANCH   1  23
TORSDOF 4
ENDMDL
MODEL 3
REMARK VINA RESULT:      -8.4      4.165      8.345
REMARK  4 active torsions:
REMARK  status: ('A' for Active; 'I' for Inactive)
REMARK    1  A    between atoms: C_7  and  C_8 
REMARK    2  A    between atoms: C_8  and  N_9 
REMARK    3  A    between atoms: N_15  and  C_17 
REMARK    4  A    between atoms: C_21  and  C_22 
ROOT
HETATM    1  N   UNL     1      43.175 -16.280   3.405  1.00  0.00    -0.067 N 
HETATM    2  H   UNL     1      43.704 -16.286   4.289  1.00  0.00     0.280 HD
HETATM    3  C   UNL     1      43.324 -14.889   2.854  1.00  0.00     0.236 C 
HETATM    4  C   UNL     1      42.387 -14.662   1.664  1.00  0.00     0.039 C 
HETATM    5  C   UNL     1      40.895 -14.977   1.963  1.00  0.00    -0.013 C 
HETATM    6  C   UNL     1      40.247 -13.941   2.922  1.00  0.00     0.245 C 
HETATM    7  N   UNL     1      40.120 -12.584   2.272  1.00  0.00    -0.065 N 
HETATM    8  H   UNL     1      41.039 -12.228   1.979  1.00  0.00     0.280 HD
HETATM    9  C   UNL     1      39.253 -12.624   1.020  1.00  0.00     0.244 C 
HETATM   10  C   UNL     1      39.865 -13.606   0.012  1.00  0.00     0.045 C 
HETATM   11  C   UNL     1      40.071 -14.997   0.642  1.00  0.00     0.022 C 
HETATM   12  C   UNL     1      40.826 -16.403   2.584  1.00  0.00     0.039 C 
HETATM   13  C   UNL     1      41.765 -16.634   3.766  1.00  0.00     0.236 C 
ENDROOT
BRANCH   7  14
HETATM   14  C   UNL     1      39.574 -11.568   3.237  1.00  0.00     0.188 A 
HETATM   15  C   UNL     1      40.399 -10.330   3.453  1.00  0.00     0.035 A 
HETATM   16  C   UNL     1      39.127 -10.256   2.658  1.00  0.00     0.035 A 
ENDBRANCH   7  14
BRANCH  10  17
HETATM   17  C   UNL     1      39.022 -13.674  -1.246  1.00  0.00    -0.052 A 
HETATM   18  C   UNL     1      38.075 -12.670  -1.502  1.00  0.00     0.007 A 
HETATM   19  C   UNL     1      37.270 -12.724  -2.642  1.00  0.00     0.001 A 
HETATM   20  C   UNL     1      37.398 -13.780  -3.539  1.00  0.00     0.000 A 
HETATM   21  C   UNL     1      38.335 -14.781  -3.302  1.00  0.00     0.001 A 
HETATM   22  C   UNL     1      39.143 -14.730  -2.165  1.00  0.00     0.007 A 
ENDBRANCH  10  17
BRANCH   1  23
HETATM   23  C   UNL     1      43.898 -17.366   2.607  1.00  0.00     0.277 C 
BRANCH  23  24
HETATM   24  C   UNL     1      43.888 -18.668   3.319  1.00  0.00     0.011 A 
HETATM   25  C   UNL     1      43.675 -19.960   2.761  1.00  0.00     0.060 A 
HETATM   26  C   UNL     1      43.351 -20.332   1.359  1.00  0.00     0.073 C 
HETATM   27  N   UNL     1      43.835 -20.917   3.676  1.00  0.00    -0.178 NA
HETATM   28  N   UNL     1      44.023 -20.265   4.830  1.00  0.00    -0.284 N 
HETATM   29  C   UNL     1      44.177 -21.002   6.063  1.00  0.00     0.179 C 
HETATM   30  C   UNL     1      44.094 -18.909   4.667  1.00  0.00     0.122 A 
ENDBRANCH  23  24
ENDBRANCH   1  23
TORSDOF 4
ENDMDL
MODEL 4
REMARK VINA RESULT:      -8.1      4.413      7.492
REMARK  4 active torsions:
REMARK  status: ('A' for Active; 'I' for Inactive)
REMARK    1  A    between atoms: C_7  and  C_8 
REMARK    2  A    between atoms: C_8  and  N_9 
REMARK    3  A    between atoms: N_15  and  C_17 
REMARK    4  A    between atoms: C_21  and  C_22 
ROOT
HETATM    1  N   UNL     1      40.557 -12.372   0.602  1.00  0.00    -0.067 N 
HETATM    2  H   UNL     1      40.052 -11.475   0.648  1.00  0.00     0.280 HD
HETATM    3  C   UNL     1      39.690 -13.361   1.329  1.00  0.00     0.236 C 
HETATM    4  C   UNL     1      40.428 -14.683   1.552  1.00  0.00     0.039 C 
HETATM    5  C   UNL     1      41.802 -14.532   2.263  1.00  0.00    -0.013 C 
HETATM    6  C   UNL     1      41.659 -14.132   3.758  1.00  0.00     0.245 C 
HETATM    7  N   UNL     1      41.046 -15.244   4.575  1.00  0.00    -0.065 N 
HETATM    8  H   UNL     1      40.116 -15.497   4.213  1.00  0.00     0.280 HD
HETATM    9  C   UNL     1      41.884 -16.515   4.539  1.00  0.00     0.244 C 
HETATM   10  C   UNL     1      42.030 -16.985   3.085  1.00  0.00     0.045 C 
HETATM   11  C   UNL     1      42.600 -15.866   2.191  1.00  0.00     0.022 C 
HETATM   12  C   UNL     1      42.618 -13.452   1.492  1.00  0.00     0.039 C 
HETATM   13  C   UNL     1      41.880 -12.135   1.262  1.00  0.00     0.236 C 
ENDROOT
BRANCH   7  14
HETATM   14  C   UNL     1      40.830 -14.816   6.000  1.00  0.00     0.188 A 
HETATM   15  C   UNL     1      39.951 -15.696   6.845  1.00  0.00     0.035 A 
HETATM   16  C   UNL     1      41.437 -15.683   7.066  1.00  0.00     0.035 A 
ENDBRANCH   7  14
BRANCH  10  17
HETATM   17  C   UNL     1      42.865 -18.247   3.013  1.00  0.00    -0.052 A 
HETATM   18  C   UNL     1      42.731 -19.106   1.910  1.00  0.00     0.007 A 
HETATM   19  C   UNL     1      43.471 -20.288   1.833  1.00  0.00     0.001 A 
HETATM   20  C   UNL     1      44.353 -20.628   2.854  1.00  0.00     0.000 A 
HETATM   21  C   UNL     1      44.501 -19.785   3.951  1.00  0.00     0.001 A 
HETATM   22  C   UNL     1      43.764 -18.602   4.032  1.00  0.00     0.007 A 
ENDBRANCH  10  17
BRANCH   1  23
HETATM   23  C   UNL     1      40.653 -12.593  -0.909  1.00  0.00     0.277 C 
BRANCH  23  24
HETATM   24  C   UNL     1      39.328 -12.477  -1.566  1.00  0.00     0.011 A 
HETATM   25  C   UNL     1      38.554 -13.521  -2.147  1.00  0.00     0.060 A 
HETATM   26  C   UNL     1      38.891 -14.961  -2.301  1.00  0.00     0.073 C 
HETATM   27  N   UNL     1      37.367 -13.075  -2.558  1.00  0.00    -0.178 NA
HETATM   28  N   UNL     1      37.409 -11.751  -2.367  1.00  0.00    -0.284 N 
HETATM   29  C   UNL     1      36.291 -10.925  -2.762  1.00  0.00     0.179 C 
HETATM   30  C   UNL     1      38.556 -11.342  -1.745  1.00  0.00     0.122 A 
ENDBRANCH  23  24
ENDBRANCH   1  23
TORSDOF 4
ENDMDL
MODEL 5
REMARK VINA RESULT:      -8.0      3.384      7.324
REMARK  4 active torsions:
REMARK  status: ('A' for Active; 'I' for Inactive)
REMARK    1  A    between atoms: C_7  and  C_8 
REMARK    2  A    between atoms: C_8  and  N_9 
REMARK    3  A    between atoms: N_15  and  C_17 
REMARK    4  A    between atoms: C_21  and  C_22 
ROOT
HETATM    1  N   UNL     1      40.134 -12.924   1.340  1.00  0.00    -0.067 N 
HETATM    2  H   UNL     1      39.807 -11.948   1.391  1.00  0.00     0.280 HD
HETATM    3  C   UNL     1      39.887 -13.504   2.704  1.00  0.00     0.236 C 
HETATM    4  C   UNL     1      40.548 -14.877   2.850  1.00  0.00     0.039 C 
HETATM    5  C   UNL     1      42.066 -14.889   2.516  1.00  0.00    -0.013 C 
HETATM    6  C   UNL     1      42.918 -14.147   3.583  1.00  0.00     0.245 C 
HETATM    7  N   UNL     1      42.919 -14.881   4.902  1.00  0.00    -0.065 N 
HETATM    8  H   UNL     1      41.962 -14.990   5.264  1.00  0.00     0.280 HD
HETATM    9  C   UNL     1      43.495 -16.286   4.780  1.00  0.00     0.244 C 
HETATM   10  C   UNL     1      42.669 -17.086   3.763  1.00  0.00     0.045 C 
HETATM   11  C   UNL     1      42.587 -16.352   2.411  1.00  0.00     0.022 C 
HETATM   12  C   UNL     1      42.250 -14.221   1.121  1.00  0.00     0.039 C 
HETATM   13  C   UNL     1      41.585 -12.855   0.972  1.00  0.00     0.236 C 
ENDROOT
BRANCH   7  14
HETATM   14  C   UNL     1      43.671 -14.111   5.953  1.00  0.00     0.188 A 
HETATM   15  C   UNL     1      42.921 -13.012   6.652  1.00  0.00     0.035 A 
HETATM   16  C   UNL     1      43.224 -14.293   7.375  1.00  0.00     0.035 A 
ENDBRANCH   7  14
BRANCH  10  17
HETATM   17  C   UNL     1      43.221 -18.489   3.613  1.00  0.00    -0.052 A 
HETATM   18  C   UNL     1      43.216 -19.105   2.351  1.00  0.00     0.007 A 
HETATM   19  C   UNL     1      43.696 -20.407   2.192  1.00  0.00     0.001 A 
HETATM   20  C   UNL     1      44.185 -21.110   3.289  1.00  0.00     0.000 A 
HETATM   21  C   UNL     1      44.201 -20.512   4.545  1.00  0.00     0.001 A 
HETATM   22  C   UNL     1      43.723 -19.211   4.708  1.00  0.00     0.007 A 
ENDBRANCH  10  17
BRANCH   1  23
HETATM   23  C   UNL     1      39.244 -13.489   0.232  1.00  0.00     0.277 C 
BRANCH  23  24
HETATM   24  C   UNL     1      39.549 -12.875  -1.084  1.00  0.00     0.011 A 
HETATM   25  C   UNL     1      39.416 -13.469  -2.370  1.00  0.00     0.060 A 
HETATM   26  C   UNL     1      39.005 -14.854  -2.723  1.00  0.00     0.073 C 
HETATM   27  N   UNL     1      39.684 -12.594  -3.340  1.00  0.00    -0.178 NA
HETATM   28  N   UNL     1      40.103 -11.492  -2.707  1.00  0.00    -0.284 N 
HETATM   29  C   UNL     1      40.538 -10.341  -3.464  1.00  0.00     0.179 C 
HETATM   30  C   UNL     1      40.013 -11.597  -1.345  1.00  0.00     0.122 A 
ENDBRANCH  23  24
ENDBRANCH   1  23
TORSDOF 4
ENDMDL
MODEL 6
REMARK VINA RESULT:      -7.9      2.735      7.217
REMARK  4 active torsions:
REMARK  status: ('A' for Active; 'I' for Inactive)
REMARK    1  A    between atoms: C_7  and  C_8 
REMARK    2  A    between atoms: C_8  and  N_9 
REMARK    3  A    between atoms: N_15  and  C_17 
REMARK    4  A    between atoms: C_21  and  C_22 
ROOT
HETATM    1  N   UNL     1      39.265 -11.346   1.561  1.00  0.00    -0.067 N 
HETATM    2  H   UNL     1      38.938 -10.369   1.604  1.00  0.00     0.280 HD
HETATM    3  C   UNL     1      39.318 -11.817   2.987  1.00  0.00     0.236 C 
HETATM    4  C   UNL     1      40.021 -13.173   3.095  1.00  0.00     0.039 C 
HETATM    5  C   UNL     1      41.436 -13.208   2.454  1.00  0.00    -0.013 C 
HETATM    6  C   UNL     1      42.477 -12.383   3.259  1.00  0.00     0.245 C 
HETATM    7  N   UNL     1      42.766 -13.011   4.602  1.00  0.00    -0.065 N 
HETATM    8  H   UNL     1      41.908 -13.093   5.163  1.00  0.00     0.280 HD
HETATM    9  C   UNL     1      43.331 -14.420   4.469  1.00  0.00     0.244 C 
HETATM   10  C   UNL     1      42.326 -15.299   3.712  1.00  0.00     0.045 C 
HETATM   11  C   UNL     1      41.950 -14.674   2.354  1.00  0.00     0.022 C 
HETATM   12  C   UNL     1      41.313 -12.651   1.004  1.00  0.00     0.039 C 
HETATM   13  C   UNL     1      40.606 -11.302   0.893  1.00  0.00     0.236 C 
ENDROOT
BRANCH   7  14
HETATM   14  C   UNL     1      43.706 -12.159   5.410  1.00  0.00     0.188 A 
HETATM   15  C   UNL     1      43.177 -11.612   6.706  1.00  0.00     0.035 A 
HETATM   16  C   UNL     1      44.182 -12.728   6.716  1.00  0.00     0.035 A 
ENDBRANCH   7  14
BRANCH  10  17
HETATM   17  C   UNL     1      42.860 -16.708   3.557  1.00  0.00    -0.052 A 
HETATM   18  C   UNL     1      43.643 -17.270   4.578  1.00  0.00     0.007 A 
HETATM   19  C   UNL     1      44.167 -18.557   4.448  1.00  0.00     0.001 A 
HETATM   20  C   UNL     1      43.918 -19.301   3.298  1.00  0.00     0.000 A 
HETATM   21  C   UNL     1      43.139 -18.761   2.279  1.00  0.00     0.001 A 
HETATM   22  C   UNL     1      42.612 -17.474   2.406  1.00  0.00     0.007 A 
ENDBRANCH  10  17
BRANCH   1  23
HETATM   23  C   UNL     1      38.175 -11.998   0.710  1.00  0.00     0.277 C 
BRANCH  23  24
HETATM   24  C   UNL     1      38.352 -11.698  -0.733  1.00  0.00     0.011 A 
HETATM   25  C   UNL     1      38.718 -12.604  -1.768  1.00  0.00     0.060 A 
HETATM   26  C   UNL     1      39.073 -14.044  -1.669  1.00  0.00     0.073 C 
HETATM   27  N   UNL     1      38.686 -12.014  -2.963  1.00  0.00    -0.178 NA
HETATM   28  N   UNL     1      38.428 -10.726  -2.708  1.00  0.00    -0.284 N 
HETATM   29  C   UNL     1      38.377  -9.768  -3.788  1.00  0.00     0.179 C 
HETATM   30  C   UNL     1      38.189 -10.486  -1.382  1.00  0.00     0.122 A 
ENDBRANCH  23  24
ENDBRANCH   1  23
TORSDOF 4
ENDMDL
MODEL 7
REMARK VINA RESULT:      -7.8      2.285      5.173
REMARK  4 active torsions:
REMARK  status: ('A' for Active; 'I' for Inactive)
REMARK    1  A    between atoms: C_7  and  C_8 
REMARK    2  A    between atoms: C_8  and  N_9 
REMARK    3  A    between atoms: N_15  and  C_17 
REMARK    4  A    between atoms: C_21  and  C_22 
ROOT
HETATM    1  N   UNL     1      42.421 -11.158   5.744  1.00  0.00    -0.067 N 
HETATM    2  H   UNL     1      42.838 -11.203   6.685  1.00  0.00     0.280 HD
HETATM    3  C   UNL     1      41.586 -12.400   5.612  1.00  0.00     0.236 C 
HETATM    4  C   UNL     1      41.100 -12.590   4.173  1.00  0.00     0.039 C 
HETATM    5  C   UNL     1      42.237 -12.579   3.113  1.00  0.00    -0.013 C 
HETATM    6  C   UNL     1      43.133 -13.846   3.186  1.00  0.00     0.245 C 
HETATM    7  N   UNL     1      42.379 -15.086   2.770  1.00  0.00    -0.065 N 
HETATM    8  H   UNL     1      41.554 -15.234   3.368  1.00  0.00     0.280 HD
HETATM    9  C   UNL     1      41.864 -14.995   1.339  1.00  0.00     0.244 C 
HETATM   10  C   UNL     1      40.936 -13.779   1.211  1.00  0.00     0.045 C 
HETATM   11  C   UNL     1      41.639 -12.490   1.678  1.00  0.00     0.022 C 
HETATM   12  C   UNL     1      43.093 -11.300   3.348  1.00  0.00     0.039 C 
HETATM   13  C   UNL     1      43.572 -11.105   4.785  1.00  0.00     0.236 C 
ENDROOT
BRANCH   7  14
HETATM   14  C   UNL     1      43.227 -16.318   2.929  1.00  0.00     0.188 A 
HETATM   15  C   UNL     1      42.848 -17.262   4.036  1.00  0.00     0.035 A 
HETATM   16  C   UNL     1      42.578 -17.633   2.606  1.00  0.00     0.035 A 
ENDBRANCH   7  14
BRANCH  10  17
HETATM   17  C   UNL     1      40.410 -13.656  -0.205  1.00  0.00    -0.052 A 
HETATM   18  C   UNL     1      39.647 -14.698  -0.755  1.00  0.00     0.007 A 
HETATM   19  C   UNL     1      39.172 -14.618  -2.066  1.00  0.00     0.001 A 
HETATM   20  C   UNL     1      39.453 -13.499  -2.844  1.00  0.00     0.000 A 
HETATM   21  C   UNL     1      40.204 -12.455  -2.312  1.00  0.00     0.001 A 
HETATM   22  C   UNL     1      40.680 -12.530  -1.002  1.00  0.00     0.007 A 
ENDBRANCH  10  17
BRANCH   1  23
HETATM   23  C   UNL     1      41.625  -9.855   5.822  1.00  0.00     0.277 C 
BRANCH  23  24
HETATM   24  C   UNL     1      40.753  -9.816   7.022  1.00  0.00     0.011 A 
HETATM   25  C   UNL     1      39.374 -10.160   7.104  1.00  0.00     0.060 A 
HETATM   26  C   UNL     1      38.449 -10.579   6.018  1.00  0.00     0.073 C 
HETATM   27  N   UNL     1      38.933 -10.105   8.360  1.00  0.00    -0.178 NA
HETATM   28  N   UNL     1      39.959  -9.617   9.067  1.00  0.00    -0.284 N 
HETATM   29  C   UNL     1      39.812  -9.368  10.483  1.00  0.00     0.179 C 
HETATM   30  C   UNL     1      41.090  -9.453   8.315  1.00  0.00     0.122 A 
ENDBRANCH  23  24
ENDBRANCH   1  23
TORSDOF 4
ENDMDL
MODEL 8
REMARK VINA RESULT:      -7.8      4.025      7.485
REMARK  4 active torsions:
REMARK  status: ('A' for Active; 'I' for Inactive)
REMARK    1  A    between atoms: C_7  and  C_8 
REMARK    2  A    between atoms: C_8  and  N_9 
REMARK    3  A    between atoms: N_15  and  C_17 
REMARK    4  A    between atoms: C_21  and  C_22 
ROOT
HETATM    1  N   UNL     1      42.802 -15.217   4.475  1.00  0.00    -0.067 N 
HETATM    2  H   UNL     1      43.202 -15.099   5.417  1.00  0.00     0.280 HD
HETATM    3  C   UNL     1      42.872 -13.860   3.834  1.00  0.00     0.236 C 
HETATM    4  C   UNL     1      42.088 -13.828   2.519  1.00  0.00     0.039 C 
HETATM    5  C   UNL     1      40.613 -14.299   2.648  1.00  0.00    -0.013 C 
HETATM    6  C   UNL     1      39.729 -13.285   3.426  1.00  0.00     0.245 C 
HETATM    7  N   UNL     1      39.544 -12.001   2.654  1.00  0.00    -0.065 N 
HETATM    8  H   UNL     1      40.451 -11.558   2.453  1.00  0.00     0.280 HD
HETATM    9  C   UNL     1      38.867 -12.230   1.309  1.00  0.00     0.244 C 
HETATM   10  C   UNL     1      39.716 -13.198   0.473  1.00  0.00     0.045 C 
HETATM   11  C   UNL     1      39.985 -14.508   1.238  1.00  0.00     0.022 C 
HETATM   12  C   UNL     1      40.616 -15.678   3.372  1.00  0.00     0.039 C 
HETATM   13  C   UNL     1      41.403 -15.712   4.680  1.00  0.00     0.236 C 
ENDROOT
BRANCH   7  14
HETATM   14  C   UNL     1      38.763 -10.994   3.453  1.00  0.00     0.188 A 
HETATM   15  C   UNL     1      39.456  -9.698   3.770  1.00  0.00     0.035 A 
HETATM   16  C   UNL     1      38.361  -9.732   2.743  1.00  0.00     0.035 A 
ENDBRANCH   7  14
BRANCH  10  17
HETATM   17  C   UNL     1      39.067 -13.452  -0.873  1.00  0.00    -0.052 A 
HETATM   18  C   UNL     1      39.413 -14.599  -1.605  1.00  0.00     0.007 A 
HETATM   19  C   UNL     1      38.847 -14.842  -2.858  1.00  0.00     0.001 A 
HETATM   20  C   UNL     1      37.929 -13.945  -3.396  1.00  0.00     0.000 A 
HETATM   21  C   UNL     1      37.572 -12.806  -2.681  1.00  0.00     0.001 A 
HETATM   22  C   UNL     1      38.135 -12.559  -1.428  1.00  0.00     0.007 A 
ENDBRANCH  10  17
BRANCH   1  23
HETATM   23  C   UNL     1      43.742 -16.261   3.870  1.00  0.00     0.277 C 
BRANCH  23  24
HETATM   24  C   UNL     1      43.790 -17.497   4.690  1.00  0.00     0.011 A 
HETATM   25  C   UNL     1      43.827 -17.595   6.109  1.00  0.00     0.060 A 
HETATM   26  C   UNL     1      43.892 -16.507   7.121  1.00  0.00     0.073 C 
HETATM   27  N   UNL     1      43.762 -18.864   6.511  1.00  0.00    -0.178 NA
HETATM   28  N   UNL     1      43.807 -19.587   5.385  1.00  0.00    -0.284 N 
HETATM   29  C   UNL     1      43.813 -21.030   5.449  1.00  0.00     0.179 C 
HETATM   30  C   UNL     1      43.794 -18.812   4.258  1.00  0.00     0.122 A 
ENDBRANCH  23  24
ENDBRANCH   1  23
TORSDOF 4
ENDMDL
MODEL 9
REMARK VINA RESULT:      -7.8      1.649      4.823
REMARK  4 active torsions:
REMARK  status: ('A' for Active; 'I' for Inactive)
REMARK    1  A    between atoms: C_7  and  C_8 
REMARK    2  A    between atoms: C_8  and  N_9 
REMARK    3  A    between atoms: N_15  and  C_17 
REMARK    4  A    between atoms: C_21  and  C_22 
ROOT
HETATM    1  N   UNL     1      42.963 -11.560   5.773  1.00  0.00    -0.067 N 
HETATM    2  H   UNL     1      43.571 -11.655   6.600  1.00  0.00     0.280 HD
HETATM    3  C   UNL     1      42.147 -12.821   5.724  1.00  0.00     0.236 C 
HETATM    4  C   UNL     1      41.372 -12.928   4.408  1.00  0.00     0.039 C 
HETATM    5  C   UNL     1      42.258 -12.798   3.138  1.00  0.00    -0.013 C 
HETATM    6  C   UNL     1      43.178 -14.032   2.923  1.00  0.00     0.245 C 
HETATM    7  N   UNL     1      42.381 -15.267   2.580  1.00  0.00    -0.065 N 
HETATM    8  H   UNL     1      41.705 -15.488   3.324  1.00  0.00     0.280 HD
HETATM    9  C   UNL     1      41.573 -15.095   1.300  1.00  0.00     0.244 C 
HETATM   10  C   UNL     1      40.613 -13.909   1.463  1.00  0.00     0.045 C 
HETATM   11  C   UNL     1      41.369 -12.630   1.871  1.00  0.00     0.022 C 
HETATM   12  C   UNL     1      43.116 -11.506   3.287  1.00  0.00     0.039 C 
HETATM   13  C   UNL     1      43.883 -11.395   4.602  1.00  0.00     0.236 C 
ENDROOT
BRANCH   7  14
HETATM   14  C   UNL     1      43.271 -16.474   2.463  1.00  0.00     0.188 A 
HETATM   15  C   UNL     1      43.186 -17.487   3.570  1.00  0.00     0.035 A 
HETATM   16  C   UNL     1      42.595 -17.793   2.223  1.00  0.00     0.035 A 
ENDBRANCH   7  14
BRANCH  10  17
HETATM   17  C   UNL     1      39.796 -13.706   0.203  1.00  0.00    -0.052 A 
HETATM   18  C   UNL     1      39.743 -14.726  -0.761  1.00  0.00     0.007 A 
HETATM   19  C   UNL     1      39.018 -14.552  -1.942  1.00  0.00     0.001 A 
HETATM   20  C   UNL     1      38.338 -13.361  -2.176  1.00  0.00     0.000 A 
HETATM   21  C   UNL     1      38.377 -12.343  -1.229  1.00  0.00     0.001 A 
HETATM   22  C   UNL     1      39.099 -12.512  -0.046  1.00  0.00     0.007 A 
ENDBRANCH  10  17
BRANCH   1  23
HETATM   23  C   UNL     1      42.172 -10.297   6.117  1.00  0.00     0.277 C 
BRANCH  23  24
HETATM   24  C   UNL     1      42.409  -9.866   7.517  1.00  0.00     0.011 A 
HETATM   25  C   UNL     1      41.464  -9.311   8.425  1.00  0.00     0.060 A 
HETATM   26  C   UNL     1      40.036  -8.966   8.195  1.00  0.00     0.073 C 
HETATM   27  N   UNL     1      41.997  -9.133   9.634  1.00  0.00    -0.178 NA
HETATM   28  N   UNL     1      43.291  -9.444   9.491  1.00  0.00    -0.284 N 
HETATM   29  C   UNL     1      44.198  -9.309  10.608  1.00  0.00     0.179 C 
HETATM   30  C   UNL     1      43.586  -9.920   8.243  1.00  0.00     0.122 A 
ENDBRANCH  23  24
ENDBRANCH   1  23
TORSDOF 4
ENDMDL
MODEL 10
REMARK VINA RESULT:      -7.8      4.779      8.160
REMARK  4 active torsions:
REMARK  status: ('A' for Active; 'I' for Inactive)
REMARK    1  A    between atoms: C_7  and  C_8 
REMARK    2  A    between atoms: C_8  and  N_9 
REMARK    3  A    between atoms: N_15  and  C_17 
REMARK    4  A    between atoms: C_21  and  C_22 
ROOT
HETATM    1  N   UNL     1      42.301 -15.640   2.686  1.00  0.00    -0.067 N 
HETATM    2  H   UNL     1      42.833 -16.504   2.506  1.00  0.00     0.280 HD
HETATM    3  C   UNL     1      40.909 -15.913   2.189  1.00  0.00     0.236 C 
HETATM    4  C   UNL     1      40.069 -14.633   2.168  1.00  0.00     0.039 C 
HETATM    5  C   UNL     1      40.715 -13.462   1.376  1.00  0.00    -0.013 C 
HETATM    6  C   UNL     1      40.727 -13.713  -0.157  1.00  0.00     0.245 C 
HETATM    7  N   UNL     1      39.331 -13.701  -0.734  1.00  0.00    -0.065 N 
HETATM    8  H   UNL     1      38.742 -14.418  -0.288  1.00  0.00     0.280 HD
HETATM    9  C   UNL     1      38.629 -12.367  -0.513  1.00  0.00     0.244 C 
HETATM   10  C   UNL     1      38.551 -12.079   0.993  1.00  0.00     0.045 C 
HETATM   11  C   UNL     1      39.946 -12.136   1.645  1.00  0.00     0.022 C 
HETATM   12  C   UNL     1      42.170 -13.279   1.902  1.00  0.00     0.039 C 
HETATM   13  C   UNL     1      43.006 -14.556   1.930  1.00  0.00     0.236 C 
ENDROOT
BRANCH   7  14
HETATM   14  C   UNL     1      39.345 -14.033  -2.200  1.00  0.00     0.188 A 
HETATM   15  C   UNL     1      38.593 -15.264  -2.622  1.00  0.00     0.035 A 
HETATM   16  C   UNL     1      38.042 -13.903  -2.936  1.00  0.00     0.035 A 
ENDBRANCH   7  14
BRANCH  10  17
HETATM   17  C   UNL     1      37.861 -10.753   1.247  1.00  0.00    -0.052 A 
HETATM   18  C   UNL     1      36.679 -10.442   0.556  1.00  0.00     0.007 A 
HETATM   19  C   UNL     1      36.039  -9.217   0.755  1.00  0.00     0.001 A 
HETATM   20  C   UNL     1      36.570  -8.288   1.645  1.00  0.00     0.000 A 
HETATM   21  C   UNL     1      37.737  -8.583   2.342  1.00  0.00     0.001 A 
HETATM   22  C   UNL     1      38.380  -9.807   2.146  1.00  0.00     0.007 A 
ENDBRANCH  10  17
BRANCH   1  23
HETATM   23  C   UNL     1      42.426 -15.514   4.205  1.00  0.00     0.277 C 
BRANCH  23  24
HETATM   24  C   UNL     1      42.944 -16.761   4.819  1.00  0.00     0.011 A 
HETATM   25  C   UNL     1      42.983 -17.096   6.201  1.00  0.00     0.060 A 
HETATM   26  C   UNL     1      42.583 -16.275   7.375  1.00  0.00     0.073 C 
HETATM   27  N   UNL     1      43.422 -18.341   6.388  1.00  0.00    -0.178 NA
HETATM   28  N   UNL     1      43.780 -18.769   5.171  1.00  0.00    -0.284 N 
HETATM   29  C   UNL     1      44.361 -20.081   5.005  1.00  0.00     0.179 C 
HETATM   30  C   UNL     1      43.485 -17.867   4.185  1.00  0.00     0.122 A 
ENDBRANCH  23  24
ENDBRANCH   1  23
TORSDOF 4
ENDMDL
