MODEL 1
REMARK VINA RESULT:      -9.5      0.000      0.000
REMARK  5 active torsions:
REMARK  status: ('A' for Active; 'I' for Inactive)
REMARK    1  A    between atoms: C_3  and  C_4 
REMARK       I    between atoms: C_4  and  N_5 
REMARK    2  A    between atoms: N_5  and  C_6 
REMARK    3  A    between atoms: C_6  and  C_7 
REMARK    4  A    between atoms: C_10  and  O_11 
REMARK    5  A    between atoms: O_11  and  C_12 
ROOT
HETATM    1  C   UNL     1      45.431 -11.188   7.092  1.00  0.00     0.052 C 
HETATM    2  C   UNL     1      44.009 -10.802   6.890  1.00  0.00    -0.009 A 
HETATM    3  C   UNL     1      43.256 -10.960   5.726  1.00  0.00     0.150 A 
HETATM    4  O   UNL     1      42.023 -10.400   5.902  1.00  0.00    -0.304 OA
HETATM    5  C   UNL     1      41.952  -9.920   7.162  1.00  0.00     0.088 A 
HETATM    6  C   UNL     1      43.144 -10.143   7.846  1.00  0.00     0.020 A 
HETATM    7  C   UNL     1      43.201  -9.690   9.191  1.00  0.00     0.011 A 
HETATM    8  C   UNL     1      42.076  -9.055   9.750  1.00  0.00     0.081 A 
HETATM    9  O   UNL     1      42.043  -8.574  11.031  1.00  0.00    -0.336 OA
HETATM   10  C   UNL     1      43.072  -9.000  11.946  1.00  0.00     0.078 C 
HETATM   11  C   UNL     1      42.459 -10.074  12.853  1.00  0.00     0.051 C 
HETATM   12  C   UNL     1      43.423  -7.761  12.781  1.00  0.00     0.051 C 
HETATM   13  C   UNL     1      44.326  -9.537  11.295  1.00  0.00     0.012 C 
HETATM   14  C   UNL     1      44.397  -9.861   9.999  1.00  0.00     0.014 C 
HETATM   15  C   UNL     1      40.916  -8.846   9.006  1.00  0.00     0.040 A 
HETATM   16  C   UNL     1      40.829  -9.285   7.687  1.00  0.00     0.041 A 
ENDROOT
BRANCH   3  17
HETATM   17  C   UNL     1      43.501 -11.548   4.421  1.00  0.00     0.276 C 
HETATM   18  N   UNL     1      42.476 -12.320   3.905  1.00  0.00    -0.351 N 
HETATM   19  H   UNL     1      41.558 -12.223   4.315  1.00  0.00     0.163 HD
HETATM   20  O   UNL     1      44.528 -11.349   3.775  1.00  0.00    -0.265 OA
BRANCH  18  21
HETATM   21  C   UNL     1      42.557 -12.777   2.537  1.00  0.00     0.161 C 
BRANCH  21  22
HETATM   22  C   UNL     1      42.459 -14.275   2.425  1.00  0.00    -0.040 A 
HETATM   23  C   UNL     1      43.450 -15.005   1.759  1.00  0.00     0.011 A 
HETATM   24  C   UNL     1      43.400 -16.401   1.729  1.00  0.00     0.037 A 
HETATM   25  C   UNL     1      42.371 -17.093   2.370  1.00  0.00     0.069 A 
HETATM   26  C   UNL     1      41.362 -16.372   3.007  1.00  0.00     0.037 A 
HETATM   27  C   UNL     1      41.412 -14.973   3.043  1.00  0.00     0.011 A 
BRANCH  25  28
HETATM   28  O   UNL     1      42.453 -18.453   2.282  1.00  0.00    -0.347 OA
BRANCH  28  29
HETATM   29  C   UNL     1      43.732 -19.069   2.469  1.00  0.00     0.120 C 
HETATM   30  C   UNL     1      44.040 -19.138   3.960  1.00  0.00     0.040 C 
HETATM   31  C   UNL     1      43.640 -20.476   1.882  1.00  0.00     0.040 C 
ENDBRANCH  28  29
ENDBRANCH  25  28
ENDBRANCH  21  22
ENDBRANCH  18  21
ENDBRANCH   3  17
TORSDOF 5
ENDMDL
MODEL 2
REMARK VINA RESULT:      -9.3      1.136      2.143
REMARK  5 active torsions:
REMARK  status: ('A' for Active; 'I' for Inactive)
REMARK    1  A    between atoms: C_3  and  C_4 
REMARK       I    between atoms: C_4  and  N_5 
REMARK    2  A    between atoms: N_5  and  C_6 
REMARK    3  A    between atoms: C_6  and  C_7 
REMARK    4  A    between atoms: C_10  and  O_11 
REMARK    5  A    between atoms: O_11  and  C_12 
ROOT
HETATM    1  C   UNL     1      41.479 -10.552   6.564  1.00  0.00     0.052 C 
HETATM    2  C   UNL     1      42.909 -10.561   6.972  1.00  0.00    -0.009 A 
HETATM    3  C   UNL     1      43.991 -11.021   6.222  1.00  0.00     0.150 A 
HETATM    4  O   UNL     1      45.129 -10.950   6.972  1.00  0.00    -0.304 OA
HETATM    5  C   UNL     1      44.811 -10.421   8.174  1.00  0.00     0.088 A 
HETATM    6  C   UNL     1      43.450 -10.139   8.247  1.00  0.00     0.020 A 
HETATM    7  C   UNL     1      42.982  -9.570   9.461  1.00  0.00     0.011 A 
HETATM    8  C   UNL     1      43.898  -9.324  10.503  1.00  0.00     0.081 A 
HETATM    9  O   UNL     1      43.538  -8.792  11.712  1.00  0.00    -0.336 OA
HETATM   10  C   UNL     1      42.242  -8.171  11.824  1.00  0.00     0.078 C 
HETATM   11  C   UNL     1      42.458  -6.654  11.771  1.00  0.00     0.051 C 
HETATM   12  C   UNL     1      41.711  -8.566  13.209  1.00  0.00     0.051 C 
HETATM   13  C   UNL     1      41.242  -8.581  10.768  1.00  0.00     0.012 C 
HETATM   14  C   UNL     1      41.580  -9.242   9.655  1.00  0.00     0.014 C 
HETATM   15  C   UNL     1      45.248  -9.645  10.372  1.00  0.00     0.040 A 
HETATM   16  C   UNL     1      45.737 -10.199   9.191  1.00  0.00     0.041 A 
ENDROOT
BRANCH   3  17
HETATM   17  C   UNL     1      44.152 -11.554   4.880  1.00  0.00     0.276 C 
HETATM   18  N   UNL     1      43.141 -12.386   4.436  1.00  0.00    -0.351 N 
HETATM   19  H   UNL     1      42.261 -12.370   4.934  1.00  0.00     0.163 HD
HETATM   20  O   UNL     1      45.095 -11.260   4.148  1.00  0.00    -0.265 OA
BRANCH  18  21
HETATM   21  C   UNL     1      43.122 -12.798   3.052  1.00  0.00     0.161 C 
BRANCH  21  22
HETATM   22  C   UNL     1      42.918 -14.281   2.897  1.00  0.00    -0.040 A 
HETATM   23  C   UNL     1      43.403 -14.953   1.769  1.00  0.00     0.011 A 
HETATM   24  C   UNL     1      43.284 -16.341   1.667  1.00  0.00     0.037 A 
HETATM   25  C   UNL     1      42.693 -17.084   2.690  1.00  0.00     0.069 A 
HETATM   26  C   UNL     1      42.177 -16.419   3.802  1.00  0.00     0.037 A 
HETATM   27  C   UNL     1      42.297 -15.028   3.908  1.00  0.00     0.011 A 
BRANCH  25  28
HETATM   28  O   UNL     1      42.660 -18.432   2.474  1.00  0.00    -0.347 OA
BRANCH  28  29
HETATM   29  C   UNL     1      43.878 -19.172   2.618  1.00  0.00     0.120 C 
HETATM   30  C   UNL     1      44.116 -19.460   4.096  1.00  0.00     0.040 C 
HETATM   31  C   UNL     1      43.701 -20.478   1.846  1.00  0.00     0.040 C 
ENDBRANCH  28  29
ENDBRANCH  25  28
ENDBRANCH  21  22
ENDBRANCH  18  21
ENDBRANCH   3  17
TORSDOF 5
ENDMDL
MODEL 3
REMARK VINA RESULT:      -8.6      2.703     10.533
REMARK  5 active torsions:
REMARK  status: ('A' for Active; 'I' for Inactive)
REMARK    1  A    between atoms: C_3  and  C_4 
REMARK       I    between atoms: C_4  and  N_5 
REMARK    2  A    between atoms: N_5  and  C_6 
REMARK    3  A    between atoms: C_6  and  C_7 
REMARK    4  A    between atoms: C_10  and  O_11 
REMARK    5  A    between atoms: O_11  and  C_12 
ROOT
HETATM    1  C   UNL     1      44.356 -11.459   4.817  1.00  0.00     0.052 C 
HETATM    2  C   UNL     1      43.944 -12.319   5.959  1.00  0.00    -0.009 A 
HETATM    3  C   UNL     1      44.037 -12.011   7.316  1.00  0.00     0.150 A 
HETATM    4  O   UNL     1      43.647 -13.089   8.055  1.00  0.00    -0.304 OA
HETATM    5  C   UNL     1      43.269 -14.070   7.207  1.00  0.00     0.088 A 
HETATM    6  C   UNL     1      43.413 -13.664   5.884  1.00  0.00     0.020 A 
HETATM    7  C   UNL     1      43.043 -14.604   4.885  1.00  0.00     0.011 A 
HETATM    8  C   UNL     1      42.561 -15.867   5.277  1.00  0.00     0.081 A 
HETATM    9  O   UNL     1      42.194 -16.841   4.387  1.00  0.00    -0.336 OA
HETATM   10  C   UNL     1      41.994 -16.466   3.009  1.00  0.00     0.078 C 
HETATM   11  C   UNL     1      40.482 -16.368   2.778  1.00  0.00     0.051 C 
HETATM   12  C   UNL     1      42.567 -17.622   2.178  1.00  0.00     0.051 C 
HETATM   13  C   UNL     1      42.659 -15.173   2.596  1.00  0.00     0.012 C 
HETATM   14  C   UNL     1      43.158 -14.293   3.470  1.00  0.00     0.014 C 
HETATM   15  C   UNL     1      42.456 -16.220   6.620  1.00  0.00     0.040 A 
HETATM   16  C   UNL     1      42.806 -15.317   7.622  1.00  0.00     0.041 A 
ENDROOT
BRANCH   3  17
HETATM   17  C   UNL     1      44.461 -10.846   8.073  1.00  0.00     0.276 C 
HETATM   18  N   UNL     1      43.850 -10.670   9.301  1.00  0.00    -0.351 N 
HETATM   19  H   UNL     1      43.363 -11.457   9.705  1.00  0.00     0.163 HD
HETATM   20  O   UNL     1      45.341 -10.078   7.690  1.00  0.00    -0.265 OA
BRANCH  18  21
HETATM   21  C   UNL     1      44.350  -9.655  10.199  1.00  0.00     0.161 C 
BRANCH  21  22
HETATM   22  C   UNL     1      43.402  -9.375  11.334  1.00  0.00    -0.040 A 
HETATM   23  C   UNL     1      43.702  -8.394  12.287  1.00  0.00     0.011 A 
HETATM   24  C   UNL     1      42.782  -8.079  13.291  1.00  0.00     0.037 A 
HETATM   25  C   UNL     1      41.547  -8.724  13.355  1.00  0.00     0.069 A 
HETATM   26  C   UNL     1      41.253  -9.725  12.429  1.00  0.00     0.037 A 
HETATM   27  C   UNL     1      42.171 -10.041  11.420  1.00  0.00     0.011 A 
BRANCH  25  28
HETATM   28  O   UNL     1      40.734  -8.306  14.371  1.00  0.00    -0.347 OA
BRANCH  28  29
HETATM   29  C   UNL     1      41.203  -7.258  15.227  1.00  0.00     0.120 C 
HETATM   30  C   UNL     1      40.243  -6.077  15.143  1.00  0.00     0.040 C 
HETATM   31  C   UNL     1      41.229  -7.820  16.647  1.00  0.00     0.040 C 
ENDBRANCH  28  29
ENDBRANCH  25  28
ENDBRANCH  21  22
ENDBRANCH  18  21
ENDBRANCH   3  17
TORSDOF 5
ENDMDL
MODEL 4
REMARK VINA RESULT:      -8.4      2.609     10.282
REMARK  5 active torsions:
REMARK  status: ('A' for Active; 'I' for Inactive)
REMARK    1  A    between atoms: C_3  and  C_4 
REMARK       I    between atoms: C_4  and  N_5 
REMARK    2  A    between atoms: N_5  and  C_6 
REMARK    3  A    between atoms: C_6  and  C_7 
REMARK    4  A    between atoms: C_10  and  O_11 
REMARK    5  A    between atoms: O_11  and  C_12 
ROOT
HETATM    1  C   UNL     1      43.310 -14.227   7.589  1.00  0.00     0.052 C 
HETATM    2  C   UNL     1      43.466 -13.060   6.680  1.00  0.00    -0.009 A 
HETATM    3  C   UNL     1      43.936 -11.791   7.019  1.00  0.00     0.150 A 
HETATM    4  O   UNL     1      43.844 -10.967   5.935  1.00  0.00    -0.304 OA
HETATM    5  C   UNL     1      43.361 -11.684   4.897  1.00  0.00     0.088 A 
HETATM    6  C   UNL     1      43.113 -13.000   5.277  1.00  0.00     0.020 A 
HETATM    7  C   UNL     1      42.607 -13.867   4.273  1.00  0.00     0.011 A 
HETATM    8  C   UNL     1      42.388 -13.363   2.976  1.00  0.00     0.081 A 
HETATM    9  O   UNL     1      41.890 -14.120   1.949  1.00  0.00    -0.336 OA
HETATM   10  C   UNL     1      41.878 -15.553   2.101  1.00  0.00     0.078 C 
HETATM   11  C   UNL     1      43.056 -16.107   1.291  1.00  0.00     0.051 C 
HETATM   12  C   UNL     1      40.558 -16.026   1.478  1.00  0.00     0.051 C 
HETATM   13  C   UNL     1      41.964 -16.046   3.528  1.00  0.00     0.012 C 
HETATM   14  C   UNL     1      42.303 -15.260   4.556  1.00  0.00     0.014 C 
HETATM   15  C   UNL     1      42.641 -12.029   2.664  1.00  0.00     0.040 A 
HETATM   16  C   UNL     1      43.143 -11.156   3.627  1.00  0.00     0.041 A 
ENDROOT
BRANCH   3  17
HETATM   17  C   UNL     1      44.459 -11.185   8.231  1.00  0.00     0.276 C 
HETATM   18  N   UNL     1      43.519 -10.817   9.176  1.00  0.00    -0.351 N 
HETATM   19  H   UNL     1      42.591 -11.209   9.098  1.00  0.00     0.163 HD
HETATM   20  O   UNL     1      45.661 -11.041   8.447  1.00  0.00    -0.265 OA
BRANCH  18  21
HETATM   21  C   UNL     1      43.962 -10.392  10.483  1.00  0.00     0.161 C 
BRANCH  21  22
HETATM   22  C   UNL     1      42.860  -9.749  11.282  1.00  0.00    -0.040 A 
HETATM   23  C   UNL     1      41.987  -8.833  10.683  1.00  0.00     0.011 A 
HETATM   24  C   UNL     1      40.916  -8.301  11.405  1.00  0.00     0.037 A 
HETATM   25  C   UNL     1      40.688  -8.680  12.728  1.00  0.00     0.069 A 
HETATM   26  C   UNL     1      41.572  -9.566  13.343  1.00  0.00     0.037 A 
HETATM   27  C   UNL     1      42.645 -10.104  12.621  1.00  0.00     0.011 A 
BRANCH  25  28
HETATM   28  O   UNL     1      39.595  -8.103  13.310  1.00  0.00    -0.347 OA
BRANCH  28  29
HETATM   29  C   UNL     1      39.159  -6.831  12.819  1.00  0.00     0.120 C 
HETATM   30  C   UNL     1      37.638  -6.834  12.707  1.00  0.00     0.040 C 
HETATM   31  C   UNL     1      39.612  -5.782  13.832  1.00  0.00     0.040 C 
ENDBRANCH  28  29
ENDBRANCH  25  28
ENDBRANCH  21  22
ENDBRANCH  18  21
ENDBRANCH   3  17
TORSDOF 5
ENDMDL
MODEL 5
REMARK VINA RESULT:      -8.3      2.582      4.126
REMARK  5 active torsions:
REMARK  status: ('A' for Active; 'I' for Inactive)
REMARK    1  A    between atoms: C_3  and  C_4 
REMARK       I    between atoms: C_4  and  N_5 
REMARK    2  A    between atoms: N_5  and  C_6 
REMARK    3  A    between atoms: C_6  and  C_7 
REMARK    4  A    between atoms: C_10  and  O_11 
REMARK    5  A    between atoms: O_11  and  C_12 
ROOT
HETATM    1  C   UNL     1      43.979 -10.984  11.571  1.00  0.00     0.052 C 
HETATM    2  C   UNL     1      43.843  -9.781  10.706  1.00  0.00    -0.009 A 
HETATM    3  C   UNL     1      44.310  -9.632   9.400  1.00  0.00     0.150 A 
HETATM    4  O   UNL     1      44.076  -8.356   8.976  1.00  0.00    -0.304 OA
HETATM    5  C   UNL     1      43.437  -7.692   9.963  1.00  0.00     0.088 A 
HETATM    6  C   UNL     1      43.244  -8.515  11.069  1.00  0.00     0.020 A 
HETATM    7  C   UNL     1      42.574  -7.939  12.182  1.00  0.00     0.011 A 
HETATM    8  C   UNL     1      42.150  -6.598  12.110  1.00  0.00     0.081 A 
HETATM    9  O   UNL     1      41.510  -5.955  13.135  1.00  0.00    -0.336 OA
HETATM   10  C   UNL     1      40.970  -6.752  14.209  1.00  0.00     0.078 C 
HETATM   11  C   UNL     1      39.458  -6.859  13.981  1.00  0.00     0.051 C 
HETATM   12  C   UNL     1      41.242  -5.957  15.492  1.00  0.00     0.051 C 
HETATM   13  C   UNL     1      41.566  -8.135  14.340  1.00  0.00     0.012 C 
HETATM   14  C   UNL     1      42.323  -8.700  13.394  1.00  0.00     0.014 C 
HETATM   15  C   UNL     1      42.389  -5.821  10.978  1.00  0.00     0.040 A 
HETATM   16  C   UNL     1      43.038  -6.360   9.869  1.00  0.00     0.041 A 
ENDROOT
BRANCH   3  17
HETATM   17  C   UNL     1      44.979 -10.501   8.447  1.00  0.00     0.276 C 
HETATM   18  N   UNL     1      44.190 -11.475   7.863  1.00  0.00    -0.351 N 
HETATM   19  H   UNL     1      43.187 -11.371   7.922  1.00  0.00     0.163 HD
HETATM   20  O   UNL     1      46.158 -10.368   8.127  1.00  0.00    -0.265 OA
BRANCH  18  21
HETATM   21  C   UNL     1      44.722 -12.250   6.766  1.00  0.00     0.161 C 
BRANCH  21  22
HETATM   22  C   UNL     1      43.672 -13.097   6.098  1.00  0.00    -0.040 A 
HETATM   23  C   UNL     1      42.771 -12.530   5.190  1.00  0.00     0.011 A 
HETATM   24  C   UNL     1      41.852 -13.334   4.510  1.00  0.00     0.037 A 
HETATM   25  C   UNL     1      41.823 -14.714   4.714  1.00  0.00     0.069 A 
HETATM   26  C   UNL     1      42.695 -15.283   5.642  1.00  0.00     0.037 A 
HETATM   27  C   UNL     1      43.620 -14.481   6.322  1.00  0.00     0.011 A 
BRANCH  25  28
HETATM   28  O   UNL     1      40.893 -15.384   3.971  1.00  0.00    -0.347 OA
BRANCH  28  29
HETATM   29  C   UNL     1      41.205 -15.687   2.607  1.00  0.00     0.120 C 
HETATM   30  C   UNL     1      41.969 -17.005   2.550  1.00  0.00     0.040 C 
HETATM   31  C   UNL     1      39.877 -15.813   1.863  1.00  0.00     0.040 C 
ENDBRANCH  28  29
ENDBRANCH  25  28
ENDBRANCH  21  22
ENDBRANCH  18  21
ENDBRANCH   3  17
TORSDOF 5
ENDMDL
MODEL 6
REMARK VINA RESULT:      -8.3      2.294      3.240
REMARK  5 active torsions:
REMARK  status: ('A' for Active; 'I' for Inactive)
REMARK    1  A    between atoms: C_3  and  C_4 
REMARK       I    between atoms: C_4  and  N_5 
REMARK    2  A    between atoms: N_5  and  C_6 
REMARK    3  A    between atoms: C_6  and  C_7 
REMARK    4  A    between atoms: C_10  and  O_11 
REMARK    5  A    between atoms: O_11  and  C_12 
ROOT
HETATM    1  C   UNL     1      45.090  -9.697  10.431  1.00  0.00     0.052 C 
HETATM    2  C   UNL     1      43.721  -9.480   9.891  1.00  0.00    -0.009 A 
HETATM    3  C   UNL     1      43.248  -9.856   8.634  1.00  0.00     0.150 A 
HETATM    4  O   UNL     1      41.971  -9.401   8.474  1.00  0.00    -0.304 OA
HETATM    5  C   UNL     1      41.599  -8.773   9.611  1.00  0.00     0.088 A 
HETATM    6  C   UNL     1      42.630  -8.791  10.546  1.00  0.00     0.020 A 
HETATM    7  C   UNL     1      42.366  -8.168  11.795  1.00  0.00     0.011 A 
HETATM    8  C   UNL     1      41.107  -7.578  12.017  1.00  0.00     0.081 A 
HETATM    9  O   UNL     1      40.768  -6.944  13.181  1.00  0.00    -0.336 OA
HETATM   10  C   UNL     1      41.603  -7.148  14.338  1.00  0.00     0.078 C 
HETATM   11  C   UNL     1      40.885  -8.152  15.247  1.00  0.00     0.051 C 
HETATM   12  C   UNL     1      41.682  -5.786  15.039  1.00  0.00     0.051 C 
HETATM   13  C   UNL     1      43.001  -7.640  14.038  1.00  0.00     0.012 C 
HETATM   14  C   UNL     1      43.370  -8.118  12.845  1.00  0.00     0.014 C 
HETATM   15  C   UNL     1      40.122  -7.579  11.031  1.00  0.00     0.040 A 
HETATM   16  C   UNL     1      40.349  -8.188   9.799  1.00  0.00     0.041 A 
ENDROOT
BRANCH   3  17
HETATM   17  C   UNL     1      43.807 -10.579   7.505  1.00  0.00     0.276 C 
HETATM   18  N   UNL     1      42.901 -11.281   6.731  1.00  0.00    -0.351 N 
HETATM   19  H   UNL     1      41.921 -11.053   6.823  1.00  0.00     0.163 HD
HETATM   20  O   UNL     1      44.999 -10.546   7.208  1.00  0.00    -0.265 OA
BRANCH  18  21
HETATM   21  C   UNL     1      43.341 -11.862   5.483  1.00  0.00     0.161 C 
BRANCH  21  22
HETATM   22  C   UNL     1      43.209 -13.362   5.470  1.00  0.00    -0.040 A 
HETATM   23  C   UNL     1      43.887 -14.144   6.411  1.00  0.00     0.011 A 
HETATM   24  C   UNL     1      43.698 -15.528   6.449  1.00  0.00     0.037 A 
HETATM   25  C   UNL     1      42.822 -16.153   5.559  1.00  0.00     0.069 A 
HETATM   26  C   UNL     1      42.168 -15.385   4.597  1.00  0.00     0.037 A 
HETATM   27  C   UNL     1      42.353 -13.997   4.559  1.00  0.00     0.011 A 
BRANCH  25  28
HETATM   28  O   UNL     1      42.713 -17.505   5.717  1.00  0.00    -0.347 OA
BRANCH  28  29
HETATM   29  C   UNL     1      43.902 -18.298   5.620  1.00  0.00     0.120 C 
HETATM   30  C   UNL     1      43.627 -19.684   6.191  1.00  0.00     0.040 C 
HETATM   31  C   UNL     1      44.252 -18.397   4.137  1.00  0.00     0.040 C 
ENDBRANCH  28  29
ENDBRANCH  25  28
ENDBRANCH  21  22
ENDBRANCH  18  21
ENDBRANCH   3  17
TORSDOF 5
ENDMDL
MODEL 7
REMARK VINA RESULT:      -8.2      2.734     10.527
REMARK  5 active torsions:
REMARK  status: ('A' for Active; 'I' for Inactive)
REMARK    1  A    between atoms: C_3  and  C_4 
REMARK       I    between atoms: C_4  and  N_5 
REMARK    2  A    between atoms: N_5  and  C_6 
REMARK    3  A    between atoms: C_6  and  C_7 
REMARK    4  A    between atoms: C_10  and  O_11 
REMARK    5  A    between atoms: O_11  and  C_12 
ROOT
HETATM    1  C   UNL     1      44.579 -12.358   6.459  1.00  0.00     0.052 C 
HETATM    2  C   UNL     1      43.240 -11.709   6.460  1.00  0.00    -0.009 A 
HETATM    3  C   UNL     1      42.819 -10.660   7.278  1.00  0.00     0.150 A 
HETATM    4  O   UNL     1      41.499 -10.405   7.046  1.00  0.00    -0.304 OA
HETATM    5  C   UNL     1      41.070 -11.238   6.073  1.00  0.00     0.088 A 
HETATM    6  C   UNL     1      42.099 -12.072   5.647  1.00  0.00     0.020 A 
HETATM    7  C   UNL     1      41.783 -12.997   4.616  1.00  0.00     0.011 A 
HETATM    8  C   UNL     1      40.477 -13.022   4.092  1.00  0.00     0.081 A 
HETATM    9  O   UNL     1      40.076 -13.887   3.109  1.00  0.00    -0.336 OA
HETATM   10  C   UNL     1      41.091 -14.586   2.362  1.00  0.00     0.078 C 
HETATM   11  C   UNL     1      41.228 -13.880   1.008  1.00  0.00     0.051 C 
HETATM   12  C   UNL     1      40.545 -16.004   2.149  1.00  0.00     0.051 C 
HETATM   13  C   UNL     1      42.442 -14.665   3.035  1.00  0.00     0.012 C 
HETATM   14  C   UNL     1      42.776 -13.924   4.098  1.00  0.00     0.014 C 
HETATM   15  C   UNL     1      39.485 -12.170   4.575  1.00  0.00     0.040 A 
HETATM   16  C   UNL     1      39.767 -11.248   5.581  1.00  0.00     0.041 A 
ENDROOT
BRANCH   3  17
HETATM   17  C   UNL     1      43.454  -9.835   8.291  1.00  0.00     0.276 C 
HETATM   18  N   UNL     1      43.355 -10.294   9.592  1.00  0.00    -0.351 N 
HETATM   19  H   UNL     1      43.094 -11.260   9.735  1.00  0.00     0.163 HD
HETATM   20  O   UNL     1      44.086  -8.814   8.028  1.00  0.00    -0.265 OA
BRANCH  18  21
HETATM   21  C   UNL     1      44.121  -9.644  10.629  1.00  0.00     0.161 C 
BRANCH  21  22
HETATM   22  C   UNL     1      43.276  -9.270  11.818  1.00  0.00    -0.040 A 
HETATM   23  C   UNL     1      42.188 -10.064  12.196  1.00  0.00     0.011 A 
HETATM   24  C   UNL     1      41.456  -9.761  13.348  1.00  0.00     0.037 A 
HETATM   25  C   UNL     1      41.804  -8.671  14.147  1.00  0.00     0.069 A 
HETATM   26  C   UNL     1      42.867  -7.856  13.760  1.00  0.00     0.037 A 
HETATM   27  C   UNL     1      43.604  -8.159  12.608  1.00  0.00     0.011 A 
BRANCH  25  28
HETATM   28  O   UNL     1      41.022  -8.500  15.254  1.00  0.00    -0.347 OA
BRANCH  28  29
HETATM   29  C   UNL     1      41.010  -7.213  15.882  1.00  0.00     0.120 C 
HETATM   30  C   UNL     1      39.840  -6.402  15.337  1.00  0.00     0.040 C 
HETATM   31  C   UNL     1      40.836  -7.450  17.381  1.00  0.00     0.040 C 
ENDBRANCH  28  29
ENDBRANCH  25  28
ENDBRANCH  21  22
ENDBRANCH  18  21
ENDBRANCH   3  17
TORSDOF 5
ENDMDL
MODEL 8
REMARK VINA RESULT:      -8.2      2.669      4.875
REMARK  5 active torsions:
REMARK  status: ('A' for Active; 'I' for Inactive)
REMARK    1  A    between atoms: C_3  and  C_4 
REMARK       I    between atoms: C_4  and  N_5 
REMARK    2  A    between atoms: N_5  and  C_6 
REMARK    3  A    between atoms: C_6  and  C_7 
REMARK    4  A    between atoms: C_10  and  O_11 
REMARK    5  A    between atoms: O_11  and  C_12 
ROOT
HETATM    1  C   UNL     1      43.172  -6.624   9.175  1.00  0.00     0.052 C 
HETATM    2  C   UNL     1      43.356  -7.774  10.100  1.00  0.00    -0.009 A 
HETATM    3  C   UNL     1      44.124  -8.917   9.874  1.00  0.00     0.150 A 
HETATM    4  O   UNL     1      43.967  -9.784  10.915  1.00  0.00    -0.304 OA
HETATM    5  C   UNL     1      43.146  -9.213  11.823  1.00  0.00     0.088 A 
HETATM    6  C   UNL     1      42.733  -7.954  11.394  1.00  0.00     0.020 A 
HETATM    7  C   UNL     1      41.868  -7.238  12.263  1.00  0.00     0.011 A 
HETATM    8  C   UNL     1      41.481  -7.824  13.484  1.00  0.00     0.081 A 
HETATM    9  O   UNL     1      40.640  -7.217  14.377  1.00  0.00    -0.336 OA
HETATM   10  C   UNL     1      40.383  -5.807  14.222  1.00  0.00     0.078 C 
HETATM   11  C   UNL     1      41.232  -5.070  15.264  1.00  0.00     0.051 C 
HETATM   12  C   UNL     1      38.895  -5.619  14.545  1.00  0.00     0.051 C 
HETATM   13  C   UNL     1      40.671  -5.252  12.845  1.00  0.00     0.012 C 
HETATM   14  C   UNL     1      41.366  -5.919  11.917  1.00  0.00     0.014 C 
HETATM   15  C   UNL     1      41.917  -9.097  13.848  1.00  0.00     0.040 A 
HETATM   16  C   UNL     1      42.771  -9.820  13.019  1.00  0.00     0.041 A 
ENDROOT
BRANCH   3  17
HETATM   17  C   UNL     1      45.000  -9.365   8.805  1.00  0.00     0.276 C 
HETATM   18  N   UNL     1      44.765 -10.642   8.329  1.00  0.00    -0.351 N 
HETATM   19  H   UNL     1      43.879 -11.075   8.550  1.00  0.00     0.163 HD
HETATM   20  O   UNL     1      45.870  -8.655   8.305  1.00  0.00    -0.265 OA
BRANCH  18  21
HETATM   21  C   UNL     1      45.455 -11.091   7.142  1.00  0.00     0.161 C 
BRANCH  21  22
HETATM   22  C   UNL     1      44.563 -11.884   6.224  1.00  0.00    -0.040 A 
HETATM   23  C   UNL     1      44.328 -11.454   4.913  1.00  0.00     0.011 A 
HETATM   24  C   UNL     1      43.568 -12.235   4.039  1.00  0.00     0.037 A 
HETATM   25  C   UNL     1      43.040 -13.459   4.450  1.00  0.00     0.069 A 
HETATM   26  C   UNL     1      43.242 -13.879   5.765  1.00  0.00     0.037 A 
HETATM   27  C   UNL     1      44.006 -13.101   6.643  1.00  0.00     0.011 A 
BRANCH  25  28
HETATM   28  O   UNL     1      42.336 -14.132   3.492  1.00  0.00    -0.347 OA
BRANCH  28  29
HETATM   29  C   UNL     1      42.705 -15.484   3.203  1.00  0.00     0.120 C 
HETATM   30  C   UNL     1      41.459 -16.361   3.236  1.00  0.00     0.040 C 
HETATM   31  C   UNL     1      43.319 -15.490   1.804  1.00  0.00     0.040 C 
ENDBRANCH  28  29
ENDBRANCH  25  28
ENDBRANCH  21  22
ENDBRANCH  18  21
ENDBRANCH   3  17
TORSDOF 5
ENDMDL
MODEL 9
REMARK VINA RESULT:      -8.1     18.219     21.494
REMARK  5 active torsions:
REMARK  status: ('A' for Active; 'I' for Inactive)
REMARK    1  A    between atoms: C_3  and  C_4 
REMARK       I    between atoms: C_4  and  N_5 
REMARK    2  A    between atoms: N_5  and  C_6 
REMARK    3  A    between atoms: C_6  and  C_7 
REMARK    4  A    between atoms: C_10  and  O_11 
REMARK    5  A    between atoms: O_11  and  C_12 
ROOT
HETATM    1  C   UNL     1      43.229 -32.297  -0.400  1.00  0.00     0.052 C 
HETATM    2  C   UNL     1      43.772 -30.929  -0.616  1.00  0.00    -0.009 A 
HETATM    3  C   UNL     1      43.907 -29.921   0.339  1.00  0.00     0.150 A 
HETATM    4  O   UNL     1      44.356 -28.781  -0.263  1.00  0.00    -0.304 OA
HETATM    5  C   UNL     1      44.549 -29.042  -1.574  1.00  0.00     0.088 A 
HETATM    6  C   UNL     1      44.220 -30.362  -1.870  1.00  0.00     0.020 A 
HETATM    7  C   UNL     1      44.384 -30.771  -3.221  1.00  0.00     0.011 A 
HETATM    8  C   UNL     1      44.860 -29.842  -4.166  1.00  0.00     0.081 A 
HETATM    9  O   UNL     1      45.036 -30.141  -5.491  1.00  0.00    -0.336 OA
HETATM   10  C   UNL     1      45.036 -31.528  -5.883  1.00  0.00     0.078 C 
HETATM   11  C   UNL     1      46.497 -31.941  -6.097  1.00  0.00     0.051 C 
HETATM   12  C   UNL     1      44.286 -31.581  -7.220  1.00  0.00     0.051 C 
HETATM   13  C   UNL     1      44.378 -32.470  -4.901  1.00  0.00     0.012 C 
HETATM   14  C   UNL     1      44.065 -32.122  -3.648  1.00  0.00     0.014 C 
HETATM   15  C   UNL     1      45.156 -28.529  -3.809  1.00  0.00     0.040 A 
HETATM   16  C   UNL     1      45.010 -28.100  -2.491  1.00  0.00     0.041 A 
ENDROOT
BRANCH   3  17
HETATM   17  C   UNL     1      43.663 -29.827   1.768  1.00  0.00     0.276 C 
HETATM   18  N   UNL     1      42.335 -29.829   2.154  1.00  0.00    -0.351 N 
HETATM   19  H   UNL     1      41.647 -30.146   1.485  1.00  0.00     0.163 HD
HETATM   20  O   UNL     1      44.564 -29.796   2.604  1.00  0.00    -0.265 OA
BRANCH  18  21
HETATM   21  C   UNL     1      42.008 -29.937   3.557  1.00  0.00     0.161 C 
BRANCH  21  22
HETATM   22  C   UNL     1      41.027 -31.045   3.834  1.00  0.00    -0.040 A 
HETATM   23  C   UNL     1      40.546 -31.262   5.130  1.00  0.00     0.011 A 
HETATM   24  C   UNL     1      39.574 -32.236   5.370  1.00  0.00     0.037 A 
HETATM   25  C   UNL     1      39.056 -33.001   4.324  1.00  0.00     0.069 A 
HETATM   26  C   UNL     1      39.554 -32.814   3.035  1.00  0.00     0.037 A 
HETATM   27  C   UNL     1      40.526 -31.836   2.790  1.00  0.00     0.011 A 
BRANCH  25  28
HETATM   28  O   UNL     1      38.097 -33.901   4.691  1.00  0.00    -0.347 OA
BRANCH  28  29
HETATM   29  C   UNL     1      36.794 -33.408   5.018  1.00  0.00     0.120 C 
HETATM   30  C   UNL     1      35.919 -33.443   3.770  1.00  0.00     0.040 C 
HETATM   31  C   UNL     1      36.222 -34.333   6.091  1.00  0.00     0.040 C 
ENDBRANCH  28  29
ENDBRANCH  25  28
ENDBRANCH  21  22
ENDBRANCH  18  21
ENDBRANCH   3  17
TORSDOF 5
ENDMDL
MODEL 10
REMARK VINA RESULT:      -8.0      6.070     13.264
REMARK  5 active torsions:
REMARK  status: ('A' for Active; 'I' for Inactive)
REMARK    1  A    between atoms: C_3  and  C_4 
REMARK       I    between atoms: C_4  and  N_5 
REMARK    2  A    between atoms: N_5  and  C_6 
REMARK    3  A    between atoms: C_6  and  C_7 
REMARK    4  A    between atoms: C_10  and  O_11 
REMARK    5  A    between atoms: O_11  and  C_12 
ROOT
HETATM    1  C   UNL     1      42.400  -9.172  13.807  1.00  0.00     0.052 C 
HETATM    2  C   UNL     1      42.308  -7.894  13.051  1.00  0.00    -0.009 A 
HETATM    3  C   UNL     1      41.791  -6.684  13.513  1.00  0.00     0.150 A 
HETATM    4  O   UNL     1      41.793  -5.771  12.499  1.00  0.00    -0.304 OA
HETATM    5  C   UNL     1      42.333  -6.354  11.406  1.00  0.00     0.088 A 
HETATM    6  C   UNL     1      42.691  -7.672  11.673  1.00  0.00     0.020 A 
HETATM    7  C   UNL     1      43.279  -8.401  10.605  1.00  0.00     0.011 A 
HETATM    8  C   UNL     1      43.465  -7.767   9.362  1.00  0.00     0.081 A 
HETATM    9  O   UNL     1      44.010  -8.392   8.272  1.00  0.00    -0.336 OA
HETATM   10  C   UNL     1      44.703  -9.639   8.478  1.00  0.00     0.078 C 
HETATM   11  C   UNL     1      46.206  -9.336   8.445  1.00  0.00     0.051 C 
HETATM   12  C   UNL     1      44.331 -10.523   7.281  1.00  0.00     0.051 C 
HETATM   13  C   UNL     1      44.356 -10.360   9.761  1.00  0.00     0.012 C 
HETATM   14  C   UNL     1      43.684  -9.787  10.765  1.00  0.00     0.014 C 
HETATM   15  C   UNL     1      43.070  -6.447   9.153  1.00  0.00     0.040 A 
HETATM   16  C   UNL     1      42.496  -5.705  10.184  1.00  0.00     0.041 A 
ENDROOT
BRANCH   3  17
HETATM   17  C   UNL     1      41.258  -6.217  14.781  1.00  0.00     0.276 C 
HETATM   18  N   UNL     1      42.142  -6.221  15.845  1.00  0.00    -0.351 N 
HETATM   19  H   UNL     1      43.129  -6.289  15.640  1.00  0.00     0.163 HD
HETATM   20  O   UNL     1      40.111  -5.795  14.915  1.00  0.00    -0.265 OA
BRANCH  18  21
HETATM   21  C   UNL     1      41.755  -5.591  17.086  1.00  0.00     0.161 C 
BRANCH  21  22
HETATM   22  C   UNL     1      41.401  -6.593  18.152  1.00  0.00    -0.040 A 
HETATM   23  C   UNL     1      40.101  -7.100  18.249  1.00  0.00     0.011 A 
HETATM   24  C   UNL     1      39.795  -8.091  19.186  1.00  0.00     0.037 A 
HETATM   25  C   UNL     1      40.781  -8.601  20.032  1.00  0.00     0.069 A 
HETATM   26  C   UNL     1      42.072  -8.078  19.964  1.00  0.00     0.037 A 
HETATM   27  C   UNL     1      42.382  -7.088  19.024  1.00  0.00     0.011 A 
BRANCH  25  28
HETATM   28  O   UNL     1      40.355  -9.580  20.884  1.00  0.00    -0.347 OA
BRANCH  28  29
HETATM   29  C   UNL     1      40.504  -9.365  22.292  1.00  0.00     0.120 C 
HETATM   30  C   UNL     1      39.451  -8.368  22.760  1.00  0.00     0.040 C 
HETATM   31  C   UNL     1      40.294 -10.716  22.974  1.00  0.00     0.040 C 
ENDBRANCH  28  29
ENDBRANCH  25  28
ENDBRANCH  21  22
ENDBRANCH  18  21
ENDBRANCH   3  17
TORSDOF 5
ENDMDL
