MODEL 1
REMARK VINA RESULT:      -8.2      0.000      0.000
REMARK  6 active torsions:
REMARK  status: ('A' for Active; 'I' for Inactive)
REMARK    1  A    between atoms: C_2  and  N_3 
REMARK    2  A    between atoms: C_2  and  C_24 
REMARK       I    between atoms: N_3  and  C_4 
REMARK    3  A    between atoms: C_4  and  C_5 
REMARK    4  A    between atoms: C_5  and  N_6 
REMARK    5  A    between atoms: C_10  and  N_11 
REMARK       I    between atoms: N_11  and  C_12 
REMARK       I    between atoms: C_12  and  N_13 
REMARK    6  A    between atoms: N_13  and  C_14 
ROOT
HETATM    1  N   UNL     1      42.050 -13.008   5.167  1.00  0.00    -0.063 N 
HETATM    2  H   UNL     1      42.596 -13.265   4.328  1.00  0.00     0.280 HD
HETATM    3  C   UNL     1      41.936 -11.503   5.165  1.00  0.00     0.237 C 
HETATM    4  C   UNL     1      43.209 -10.823   5.634  1.00  0.00     0.053 C 
HETATM    5  C   UNL     1      43.832 -11.414   6.897  1.00  0.00     0.089 C 
HETATM    6  C   UNL     1      43.954 -12.931   6.789  1.00  0.00     0.053 C 
HETATM    7  C   UNL     1      42.672 -13.627   6.384  1.00  0.00     0.237 C 
ENDROOT
BRANCH   1   8
HETATM    8  C   UNL     1      40.658 -13.640   4.930  1.00  0.00     0.337 C 
BRANCH   8   9
HETATM    9  C   UNL     1      40.612 -15.079   5.433  1.00  0.00     0.244 C 
HETATM   10  N   UNL     1      41.217 -16.100   4.778  1.00  0.00    -0.351 N 
HETATM   11  H   UNL     1      41.028 -16.992   5.226  1.00  0.00     0.163 HD
HETATM   12  O   UNL     1      40.019 -15.314   6.493  1.00  0.00    -0.272 OA
BRANCH  10  13
HETATM   13  C   UNL     1      41.874 -16.218   3.473  1.00  0.00     0.120 C 
HETATM   14  C   UNL     1      40.966 -16.142   2.248  1.00  0.00     0.038 C 
BRANCH  13  15
HETATM   15  C   UNL     1      42.808 -17.400   3.418  1.00  0.00     0.005 A 
HETATM   16  S   UNL     1      43.772 -17.889   4.750  1.00  0.00    -0.104 SA
HETATM   17  C   UNL     1      44.429 -19.210   3.891  1.00  0.00     0.050 A 
HETATM   18  C   UNL     1      43.918 -19.299   2.618  1.00  0.00     0.008 A 
HETATM   19  C   UNL     1      42.986 -18.257   2.345  1.00  0.00     0.017 A 
ENDBRANCH  13  15
ENDBRANCH  10  13
ENDBRANCH   8   9
ENDBRANCH   1   8
BRANCH   5  20
HETATM   20  N   UNL     1      43.255 -10.942   8.156  1.00  0.00    -0.338 N 
HETATM   21  C   UNL     1      43.922 -10.645   9.310  1.00  0.00     0.316 C 
HETATM   22  N   UNL     1      43.086 -10.171  10.282  1.00  0.00    -0.339 N 
HETATM   23  O   UNL     1      45.130 -10.769   9.453  1.00  0.00    -0.247 OA
HETATM   24  H   UNL     1      42.115 -10.439  10.212  1.00  0.00     0.164 HD
HETATM   25  H   UNL     1      42.322 -10.554   8.099  1.00  0.00     0.164 HD
BRANCH  22  26
HETATM   26  C   UNL     1      43.584  -9.874  11.625  1.00  0.00     0.086 C 
HETATM   27  C   UNL     1      43.680  -8.361  11.851  1.00  0.00     0.025 C 
HETATM   28  C   UNL     1      42.316  -7.696  12.026  1.00  0.00     0.002 C 
HETATM   29  C   UNL     1      41.488  -8.381  13.109  1.00  0.00     0.000 C 
HETATM   30  C   UNL     1      41.354  -9.879  12.857  1.00  0.00     0.002 C 
HETATM   31  C   UNL     1      42.719 -10.548  12.699  1.00  0.00     0.025 C 
ENDBRANCH  22  26
ENDBRANCH   5  20
TORSDOF 6
ENDMDL
MODEL 2
REMARK VINA RESULT:      -8.1      1.389      1.818
REMARK  6 active torsions:
REMARK  status: ('A' for Active; 'I' for Inactive)
REMARK    1  A    between atoms: C_2  and  N_3 
REMARK    2  A    between atoms: C_2  and  C_24 
REMARK       I    between atoms: N_3  and  C_4 
REMARK    3  A    between atoms: C_4  and  C_5 
REMARK    4  A    between atoms: C_5  and  N_6 
REMARK    5  A    between atoms: C_10  and  N_11 
REMARK       I    between atoms: N_11  and  C_12 
REMARK       I    between atoms: C_12  and  N_13 
REMARK    6  A    between atoms: N_13  and  C_14 
ROOT
HETATM    1  N   UNL     1      43.008 -13.463   5.715  1.00  0.00    -0.063 N 
HETATM    2  H   UNL     1      43.407 -13.460   4.762  1.00  0.00     0.280 HD
HETATM    3  C   UNL     1      41.956 -12.380   5.748  1.00  0.00     0.237 C 
HETATM    4  C   UNL     1      42.554 -10.991   5.867  1.00  0.00     0.053 C 
HETATM    5  C   UNL     1      43.651 -10.847   6.920  1.00  0.00     0.089 C 
HETATM    6  C   UNL     1      44.694 -11.950   6.780  1.00  0.00     0.053 C 
HETATM    7  C   UNL     1      44.113 -13.347   6.724  1.00  0.00     0.237 C 
ENDROOT
BRANCH   1   8
HETATM    8  C   UNL     1      42.338 -14.851   5.851  1.00  0.00     0.337 C 
BRANCH   8   9
HETATM    9  C   UNL     1      41.409 -15.133   4.675  1.00  0.00     0.244 C 
HETATM   10  N   UNL     1      41.839 -15.723   3.533  1.00  0.00    -0.351 N 
HETATM   11  H   UNL     1      41.097 -15.773   2.840  1.00  0.00     0.163 HD
HETATM   12  O   UNL     1      40.215 -14.833   4.783  1.00  0.00    -0.272 OA
BRANCH  10  13
HETATM   13  C   UNL     1      43.162 -16.083   3.014  1.00  0.00     0.120 C 
HETATM   14  C   UNL     1      43.470 -15.650   1.584  1.00  0.00     0.038 C 
BRANCH  13  15
HETATM   15  C   UNL     1      43.482 -17.538   3.252  1.00  0.00     0.005 A 
HETATM   16  S   UNL     1      44.134 -18.121   4.727  1.00  0.00    -0.104 SA
HETATM   17  C   UNL     1      44.143 -19.736   4.177  1.00  0.00     0.050 A 
HETATM   18  C   UNL     1      43.644 -19.846   2.900  1.00  0.00     0.008 A 
HETATM   19  C   UNL     1      43.264 -18.581   2.367  1.00  0.00     0.017 A 
ENDBRANCH  13  15
ENDBRANCH  10  13
ENDBRANCH   8   9
ENDBRANCH   1   8
BRANCH   5  20
HETATM   20  N   UNL     1      43.178 -10.632   8.287  1.00  0.00    -0.338 N 
HETATM   21  C   UNL     1      42.544  -9.527   8.779  1.00  0.00     0.316 C 
HETATM   22  N   UNL     1      42.182  -9.678  10.088  1.00  0.00    -0.339 N 
HETATM   23  O   UNL     1      42.309  -8.524   8.119  1.00  0.00    -0.247 OA
HETATM   24  H   UNL     1      42.714 -10.345  10.629  1.00  0.00     0.164 HD
HETATM   25  H   UNL     1      43.074 -11.463   8.857  1.00  0.00     0.164 HD
BRANCH  22  26
HETATM   26  C   UNL     1      41.568  -8.579  10.832  1.00  0.00     0.086 C 
HETATM   27  C   UNL     1      40.603  -9.111  11.898  1.00  0.00     0.025 C 
HETATM   28  C   UNL     1      41.321  -9.742  13.090  1.00  0.00     0.002 C 
HETATM   29  C   UNL     1      42.362  -8.800  13.687  1.00  0.00     0.000 C 
HETATM   30  C   UNL     1      43.350  -8.310  12.633  1.00  0.00     0.002 C 
HETATM   31  C   UNL     1      42.634  -7.662  11.449  1.00  0.00     0.025 C 
ENDBRANCH  22  26
ENDBRANCH   5  20
TORSDOF 6
ENDMDL
MODEL 3
REMARK VINA RESULT:      -7.9      5.328      8.811
REMARK  6 active torsions:
REMARK  status: ('A' for Active; 'I' for Inactive)
REMARK    1  A    between atoms: C_2  and  N_3 
REMARK    2  A    between atoms: C_2  and  C_24 
REMARK       I    between atoms: N_3  and  C_4 
REMARK    3  A    between atoms: C_4  and  C_5 
REMARK    4  A    between atoms: C_5  and  N_6 
REMARK    5  A    between atoms: C_10  and  N_11 
REMARK       I    between atoms: N_11  and  C_12 
REMARK       I    between atoms: C_12  and  N_13 
REMARK    6  A    between atoms: N_13  and  C_14 
ROOT
HETATM    1  N   UNL     1      42.060 -15.624   4.126  1.00  0.00    -0.063 N 
HETATM    2  H   UNL     1      42.379 -16.581   4.348  1.00  0.00     0.280 HD
HETATM    3  C   UNL     1      40.683 -15.756   3.519  1.00  0.00     0.237 C 
HETATM    4  C   UNL     1      40.727 -16.211   2.072  1.00  0.00     0.053 C 
HETATM    5  C   UNL     1      41.744 -15.484   1.195  1.00  0.00     0.089 C 
HETATM    6  C   UNL     1      43.114 -15.442   1.863  1.00  0.00     0.053 C 
HETATM    7  C   UNL     1      43.092 -14.929   3.288  1.00  0.00     0.237 C 
ENDROOT
BRANCH   1   8
HETATM    8  C   UNL     1      41.962 -14.920   5.500  1.00  0.00     0.337 C 
BRANCH   8   9
HETATM    9  C   UNL     1      41.495 -15.887   6.584  1.00  0.00     0.244 C 
HETATM   10  N   UNL     1      42.331 -16.773   7.178  1.00  0.00    -0.351 N 
HETATM   11  H   UNL     1      41.831 -17.374   7.827  1.00  0.00     0.163 HD
HETATM   12  O   UNL     1      40.314 -15.837   6.948  1.00  0.00    -0.272 OA
BRANCH  10  13
HETATM   13  C   UNL     1      43.712 -17.192   6.922  1.00  0.00     0.120 C 
HETATM   14  C   UNL     1      44.675 -16.105   6.457  1.00  0.00     0.038 C 
BRANCH  13  15
HETATM   15  C   UNL     1      43.773 -18.421   6.049  1.00  0.00     0.005 A 
HETATM   16  S   UNL     1      44.288 -18.378   4.414  1.00  0.00    -0.104 SA
HETATM   17  C   UNL     1      44.096 -20.064   4.227  1.00  0.00     0.050 A 
HETATM   18  C   UNL     1      43.665 -20.663   5.387  1.00  0.00     0.008 A 
HETATM   19  C   UNL     1      43.479 -19.718   6.436  1.00  0.00     0.017 A 
ENDBRANCH  13  15
ENDBRANCH  10  13
ENDBRANCH   8   9
ENDBRANCH   1   8
BRANCH   5  20
HETATM   20  N   UNL     1      41.295 -14.200   0.655  1.00  0.00    -0.338 N 
HETATM   21  C   UNL     1      40.282 -13.986  -0.235  1.00  0.00     0.316 C 
HETATM   22  N   UNL     1      40.085 -12.657  -0.484  1.00  0.00    -0.339 N 
HETATM   23  O   UNL     1      39.613 -14.879  -0.737  1.00  0.00    -0.247 OA
HETATM   24  H   UNL     1      40.875 -12.047  -0.330  1.00  0.00     0.164 HD
HETATM   25  H   UNL     1      41.579 -13.377   1.172  1.00  0.00     0.164 HD
BRANCH  22  26
HETATM   26  C   UNL     1      39.105 -12.214  -1.476  1.00  0.00     0.086 C 
HETATM   27  C   UNL     1      38.522 -10.848  -1.095  1.00  0.00     0.025 C 
HETATM   28  C   UNL     1      39.507  -9.699  -1.305  1.00  0.00     0.002 C 
HETATM   29  C   UNL     1      40.080  -9.698  -2.719  1.00  0.00     0.000 C 
HETATM   30  C   UNL     1      40.702 -11.043  -3.078  1.00  0.00     0.002 C 
HETATM   31  C   UNL     1      39.712 -12.191  -2.886  1.00  0.00     0.025 C 
ENDBRANCH  22  26
ENDBRANCH   5  20
TORSDOF 6
ENDMDL
MODEL 4
REMARK VINA RESULT:      -7.8      4.550      8.636
REMARK  6 active torsions:
REMARK  status: ('A' for Active; 'I' for Inactive)
REMARK    1  A    between atoms: C_2  and  N_3 
REMARK    2  A    between atoms: C_2  and  C_24 
REMARK       I    between atoms: N_3  and  C_4 
REMARK    3  A    between atoms: C_4  and  C_5 
REMARK    4  A    between atoms: C_5  and  N_6 
REMARK    5  A    between atoms: C_10  and  N_11 
REMARK       I    between atoms: N_11  and  C_12 
REMARK       I    between atoms: C_12  and  N_13 
REMARK    6  A    between atoms: N_13  and  C_14 
ROOT
HETATM    1  N   UNL     1      41.303 -12.539   5.294  1.00  0.00    -0.063 N 
HETATM    2  H   UNL     1      41.469 -11.814   6.011  1.00  0.00     0.280 HD
HETATM    3  C   UNL     1      42.281 -12.272   4.175  1.00  0.00     0.237 C 
HETATM    4  C   UNL     1      41.850 -11.119   3.288  1.00  0.00     0.053 C 
HETATM    5  C   UNL     1      40.383 -11.143   2.862  1.00  0.00     0.089 C 
HETATM    6  C   UNL     1      39.468 -11.367   4.061  1.00  0.00     0.053 C 
HETATM    7  C   UNL     1      39.850 -12.555   4.918  1.00  0.00     0.237 C 
ENDROOT
BRANCH   1   8
HETATM    8  C   UNL     1      41.661 -13.869   5.998  1.00  0.00     0.337 C 
BRANCH   8   9
HETATM    9  C   UNL     1      40.549 -14.900   5.829  1.00  0.00     0.244 C 
HETATM   10  N   UNL     1      40.444 -15.683   4.728  1.00  0.00    -0.351 N 
HETATM   11  H   UNL     1      39.610 -16.262   4.764  1.00  0.00     0.163 HD
HETATM   12  O   UNL     1      39.731 -15.039   6.746  1.00  0.00    -0.272 OA
BRANCH  10  13
HETATM   13  C   UNL     1      41.128 -15.706   3.432  1.00  0.00     0.120 C 
HETATM   14  C   UNL     1      40.235 -15.700   2.194  1.00  0.00     0.038 C 
BRANCH  13  15
HETATM   15  C   UNL     1      42.181 -16.784   3.371  1.00  0.00     0.005 A 
HETATM   16  S   UNL     1      43.245 -17.123   4.673  1.00  0.00    -0.104 SA
HETATM   17  C   UNL     1      44.004 -18.395   3.824  1.00  0.00     0.050 A 
HETATM   18  C   UNL     1      43.454 -18.581   2.578  1.00  0.00     0.008 A 
HETATM   19  C   UNL     1      42.406 -17.653   2.316  1.00  0.00     0.017 A 
ENDBRANCH  13  15
ENDBRANCH  10  13
ENDBRANCH   8   9
ENDBRANCH   1   8
BRANCH   5  20
HETATM   20  N   UNL     1      40.084 -11.990   1.707  1.00  0.00    -0.338 N 
HETATM   21  C   UNL     1      40.294 -11.696   0.389  1.00  0.00     0.316 C 
HETATM   22  N   UNL     1      39.958 -12.734  -0.432  1.00  0.00    -0.339 N 
HETATM   23  O   UNL     1      40.750 -10.633  -0.009  1.00  0.00    -0.247 OA
HETATM   24  H   UNL     1      39.280 -13.392  -0.074  1.00  0.00     0.164 HD
HETATM   25  H   UNL     1      39.952 -12.975   1.899  1.00  0.00     0.164 HD
BRANCH  22  26
HETATM   26  C   UNL     1      40.024 -12.596  -1.887  1.00  0.00     0.086 C 
HETATM   27  C   UNL     1      40.259 -13.956  -2.555  1.00  0.00     0.025 C 
HETATM   28  C   UNL     1      39.025 -14.856  -2.527  1.00  0.00     0.002 C 
HETATM   29  C   UNL     1      37.797 -14.149  -3.094  1.00  0.00     0.000 C 
HETATM   30  C   UNL     1      37.538 -12.819  -2.395  1.00  0.00     0.002 C 
HETATM   31  C   UNL     1      38.766 -11.911  -2.438  1.00  0.00     0.025 C 
ENDBRANCH  22  26
ENDBRANCH   5  20
TORSDOF 6
ENDMDL
MODEL 5
REMARK VINA RESULT:      -7.6      2.231      2.901
REMARK  6 active torsions:
REMARK  status: ('A' for Active; 'I' for Inactive)
REMARK    1  A    between atoms: C_2  and  N_3 
REMARK    2  A    between atoms: C_2  and  C_24 
REMARK       I    between atoms: N_3  and  C_4 
REMARK    3  A    between atoms: C_4  and  C_5 
REMARK    4  A    between atoms: C_5  and  N_6 
REMARK    5  A    between atoms: C_10  and  N_11 
REMARK       I    between atoms: N_11  and  C_12 
REMARK       I    between atoms: C_12  and  N_13 
REMARK    6  A    between atoms: N_13  and  C_14 
ROOT
HETATM    1  N   UNL     1      41.468 -12.781   5.230  1.00  0.00    -0.063 N 
HETATM    2  H   UNL     1      41.258 -12.673   4.223  1.00  0.00     0.280 HD
HETATM    3  C   UNL     1      40.142 -12.753   5.953  1.00  0.00     0.237 C 
HETATM    4  C   UNL     1      39.584 -11.350   6.092  1.00  0.00     0.053 C 
HETATM    5  C   UNL     1      40.588 -10.297   6.559  1.00  0.00     0.089 C 
HETATM    6  C   UNL     1      41.873 -10.364   5.741  1.00  0.00     0.053 C 
HETATM    7  C   UNL     1      42.475 -11.750   5.649  1.00  0.00     0.237 C 
ENDROOT
BRANCH   1   8
HETATM    8  C   UNL     1      42.100 -14.188   5.345  1.00  0.00     0.337 C 
BRANCH   8   9
HETATM    9  C   UNL     1      42.705 -14.631   4.017  1.00  0.00     0.244 C 
HETATM   10  N   UNL     1      43.252 -15.859   3.840  1.00  0.00    -0.351 N 
HETATM   11  H   UNL     1      43.659 -15.953   2.914  1.00  0.00     0.163 HD
HETATM   12  O   UNL     1      42.670 -13.846   3.062  1.00  0.00    -0.272 OA
BRANCH  10  13
HETATM   13  C   UNL     1      43.578 -16.963   4.747  1.00  0.00     0.120 C 
HETATM   14  C   UNL     1      44.766 -16.747   5.679  1.00  0.00     0.038 C 
BRANCH  13  15
HETATM   15  C   UNL     1      43.655 -18.283   4.021  1.00  0.00     0.005 A 
HETATM   16  S   UNL     1      44.106 -19.747   4.793  1.00  0.00    -0.104 SA
HETATM   17  C   UNL     1      43.906 -20.655   3.361  1.00  0.00     0.050 A 
HETATM   18  C   UNL     1      43.485 -19.872   2.312  1.00  0.00     0.008 A 
HETATM   19  C   UNL     1      43.342 -18.507   2.691  1.00  0.00     0.017 A 
ENDBRANCH  13  15
ENDBRANCH  10  13
ENDBRANCH   8   9
ENDBRANCH   1   8
BRANCH   5  20
HETATM   20  N   UNL     1      40.794 -10.232   8.006  1.00  0.00    -0.338 N 
HETATM   21  C   UNL     1      40.630  -9.144   8.816  1.00  0.00     0.316 C 
HETATM   22  N   UNL     1      40.848  -9.443  10.131  1.00  0.00    -0.339 N 
HETATM   23  O   UNL     1      40.305  -8.036   8.415  1.00  0.00    -0.247 OA
HETATM   24  H   UNL     1      41.443 -10.238  10.322  1.00  0.00     0.164 HD
HETATM   25  H   UNL     1      40.809 -11.119   8.494  1.00  0.00     0.164 HD
BRANCH  22  26
HETATM   26  C   UNL     1      40.810  -8.400  11.157  1.00  0.00     0.086 C 
HETATM   27  C   UNL     1      40.146  -8.918  12.439  1.00  0.00     0.025 C 
HETATM   28  C   UNL     1      41.031  -9.890  13.218  1.00  0.00     0.002 C 
HETATM   29  C   UNL     1      42.412  -9.301  13.491  1.00  0.00     0.000 C 
HETATM   30  C   UNL     1      43.090  -8.831  12.209  1.00  0.00     0.002 C 
HETATM   31  C   UNL     1      42.213  -7.845  11.438  1.00  0.00     0.025 C 
ENDBRANCH  22  26
ENDBRANCH   5  20
TORSDOF 6
ENDMDL
MODEL 6
REMARK VINA RESULT:      -7.5      3.705      8.817
REMARK  6 active torsions:
REMARK  status: ('A' for Active; 'I' for Inactive)
REMARK    1  A    between atoms: C_2  and  N_3 
REMARK    2  A    between atoms: C_2  and  C_24 
REMARK       I    between atoms: N_3  and  C_4 
REMARK    3  A    between atoms: C_4  and  C_5 
REMARK    4  A    between atoms: C_5  and  N_6 
REMARK    5  A    between atoms: C_10  and  N_11 
REMARK       I    between atoms: N_11  and  C_12 
REMARK       I    between atoms: C_12  and  N_13 
REMARK    6  A    between atoms: N_13  and  C_14 
ROOT
HETATM    1  N   UNL     1      42.852 -16.436   4.918  1.00  0.00    -0.063 N 
HETATM    2  H   UNL     1      42.644 -17.347   5.358  1.00  0.00     0.280 HD
HETATM    3  C   UNL     1      41.554 -15.665   4.884  1.00  0.00     0.237 C 
HETATM    4  C   UNL     1      40.629 -16.130   3.775  1.00  0.00     0.053 C 
HETATM    5  C   UNL     1      41.295 -16.318   2.413  1.00  0.00     0.089 C 
HETATM    6  C   UNL     1      42.568 -17.148   2.535  1.00  0.00     0.053 C 
HETATM    7  C   UNL     1      43.529 -16.655   3.596  1.00  0.00     0.237 C 
ENDROOT
BRANCH   1   8
HETATM    8  C   UNL     1      43.843 -15.754   5.890  1.00  0.00     0.337 C 
BRANCH   8   9
HETATM    9  C   UNL     1      43.108 -15.073   7.040  1.00  0.00     0.244 C 
HETATM   10  N   UNL     1      43.034 -13.725   7.160  1.00  0.00    -0.351 N 
HETATM   11  H   UNL     1      42.560 -13.455   8.017  1.00  0.00     0.163 HD
HETATM   12  O   UNL     1      42.539 -15.782   7.877  1.00  0.00    -0.272 OA
BRANCH  10  13
HETATM   13  C   UNL     1      43.673 -12.608   6.458  1.00  0.00     0.120 C 
HETATM   14  C   UNL     1      43.988 -11.372   7.295  1.00  0.00     0.038 C 
BRANCH  13  15
HETATM   15  C   UNL     1      42.955 -12.263   5.178  1.00  0.00     0.005 A 
HETATM   16  S   UNL     1      41.290 -11.853   5.124  1.00  0.00    -0.104 SA
HETATM   17  C   UNL     1      41.326 -11.601   3.436  1.00  0.00     0.050 A 
HETATM   18  C   UNL     1      42.582 -11.805   2.913  1.00  0.00     0.008 A 
HETATM   19  C   UNL     1      43.519 -12.187   3.915  1.00  0.00     0.017 A 
ENDBRANCH  13  15
ENDBRANCH  10  13
ENDBRANCH   8   9
ENDBRANCH   1   8
BRANCH   5  20
HETATM   20  N   UNL     1      41.443 -15.098   1.619  1.00  0.00    -0.338 N 
HETATM   21  C   UNL     1      40.657 -14.688   0.579  1.00  0.00     0.316 C 
HETATM   22  N   UNL     1      41.036 -13.468   0.095  1.00  0.00    -0.339 N 
HETATM   23  O   UNL     1      39.710 -15.329   0.144  1.00  0.00    -0.247 OA
HETATM   24  H   UNL     1      41.997 -13.199   0.252  1.00  0.00     0.164 HD
HETATM   25  H   UNL     1      42.010 -14.366   2.029  1.00  0.00     0.164 HD
BRANCH  22  26
HETATM   26  C   UNL     1      40.381 -12.885  -1.076  1.00  0.00     0.086 C 
HETATM   27  C   UNL     1      39.011 -12.307  -0.704  1.00  0.00     0.025 C 
HETATM   28  C   UNL     1      39.108 -11.011   0.098  1.00  0.00     0.002 C 
HETATM   29  C   UNL     1      39.989  -9.979  -0.600  1.00  0.00     0.000 C 
HETATM   30  C   UNL     1      41.369 -10.542  -0.926  1.00  0.00     0.002 C 
HETATM   31  C   UNL     1      41.273 -11.829  -1.744  1.00  0.00     0.025 C 
ENDBRANCH  22  26
ENDBRANCH   5  20
TORSDOF 6
ENDMDL
MODEL 7
REMARK VINA RESULT:      -7.5      2.080      2.951
REMARK  6 active torsions:
REMARK  status: ('A' for Active; 'I' for Inactive)
REMARK    1  A    between atoms: C_2  and  N_3 
REMARK    2  A    between atoms: C_2  and  C_24 
REMARK       I    between atoms: N_3  and  C_4 
REMARK    3  A    between atoms: C_4  and  C_5 
REMARK    4  A    between atoms: C_5  and  N_6 
REMARK    5  A    between atoms: C_10  and  N_11 
REMARK       I    between atoms: N_11  and  C_12 
REMARK       I    between atoms: C_12  and  N_13 
REMARK    6  A    between atoms: N_13  and  C_14 
ROOT
HETATM    1  N   UNL     1      43.152 -13.929   5.902  1.00  0.00    -0.063 N 
HETATM    2  H   UNL     1      43.398 -13.956   4.899  1.00  0.00     0.280 HD
HETATM    3  C   UNL     1      41.880 -13.123   6.015  1.00  0.00     0.237 C 
HETATM    4  C   UNL     1      42.125 -11.630   5.906  1.00  0.00     0.053 C 
HETATM    5  C   UNL     1      43.291 -11.103   6.741  1.00  0.00     0.089 C 
HETATM    6  C   UNL     1      44.544 -11.945   6.526  1.00  0.00     0.053 C 
HETATM    7  C   UNL     1      44.326 -13.433   6.696  1.00  0.00     0.237 C 
ENDROOT
BRANCH   1   8
HETATM    8  C   UNL     1      42.874 -15.405   6.273  1.00  0.00     0.337 C 
BRANCH   8   9
HETATM    9  C   UNL     1      43.982 -16.321   5.763  1.00  0.00     0.244 C 
HETATM   10  N   UNL     1      43.904 -16.965   4.573  1.00  0.00    -0.351 N 
HETATM   11  H   UNL     1      44.702 -17.576   4.430  1.00  0.00     0.163 HD
HETATM   12  O   UNL     1      44.998 -16.456   6.454  1.00  0.00    -0.272 OA
BRANCH  10  13
HETATM   13  C   UNL     1      42.836 -17.141   3.584  1.00  0.00     0.120 C 
HETATM   14  C   UNL     1      43.075 -18.198   2.510  1.00  0.00     0.038 C 
BRANCH  13  15
HETATM   15  C   UNL     1      42.387 -15.825   3.001  1.00  0.00     0.005 A 
HETATM   16  S   UNL     1      40.758 -15.291   3.048  1.00  0.00    -0.104 SA
HETATM   17  C   UNL     1      41.134 -13.822   2.264  1.00  0.00     0.050 A 
HETATM   18  C   UNL     1      42.476 -13.719   1.983  1.00  0.00     0.008 A 
HETATM   19  C   UNL     1      43.197 -14.872   2.406  1.00  0.00     0.017 A 
ENDBRANCH  13  15
ENDBRANCH  10  13
ENDBRANCH   8   9
ENDBRANCH   1   8
BRANCH   5  20
HETATM   20  N   UNL     1      42.978 -10.831   8.144  1.00  0.00    -0.338 N 
HETATM   21  C   UNL     1      42.682  -9.621   8.706  1.00  0.00     0.316 C 
HETATM   22  N   UNL     1      42.380  -9.728  10.034  1.00  0.00    -0.339 N 
HETATM   23  O   UNL     1      42.668  -8.566   8.088  1.00  0.00    -0.247 OA
HETATM   24  H   UNL     1      42.758 -10.529  10.520  1.00  0.00     0.164 HD
HETATM   25  H   UNL     1      42.703 -11.630   8.702  1.00  0.00     0.164 HD
BRANCH  22  26
HETATM   26  C   UNL     1      42.117  -8.540  10.846  1.00  0.00     0.086 C 
HETATM   27  C   UNL     1      40.621  -8.404  11.150  1.00  0.00     0.025 C 
HETATM   28  C   UNL     1      40.126  -9.423  12.176  1.00  0.00     0.002 C 
HETATM   29  C   UNL     1      40.969  -9.398  13.448  1.00  0.00     0.000 C 
HETATM   30  C   UNL     1      42.452  -9.581  13.147  1.00  0.00     0.002 C 
HETATM   31  C   UNL     1      42.953  -8.551  12.134  1.00  0.00     0.025 C 
ENDBRANCH  22  26
ENDBRANCH   5  20
TORSDOF 6
ENDMDL
MODEL 8
REMARK VINA RESULT:      -7.4      4.407      8.790
REMARK  6 active torsions:
REMARK  status: ('A' for Active; 'I' for Inactive)
REMARK    1  A    between atoms: C_2  and  N_3 
REMARK    2  A    between atoms: C_2  and  C_24 
REMARK       I    between atoms: N_3  and  C_4 
REMARK    3  A    between atoms: C_4  and  C_5 
REMARK    4  A    between atoms: C_5  and  N_6 
REMARK    5  A    between atoms: C_10  and  N_11 
REMARK       I    between atoms: N_11  and  C_12 
REMARK       I    between atoms: C_12  and  N_13 
REMARK    6  A    between atoms: N_13  and  C_14 
ROOT
HETATM    1  N   UNL     1      41.909 -12.295   5.138  1.00  0.00    -0.063 N 
HETATM    2  H   UNL     1      42.341 -11.596   5.765  1.00  0.00     0.280 HD
HETATM    3  C   UNL     1      42.892 -12.537   4.017  1.00  0.00     0.237 C 
HETATM    4  C   UNL     1      42.885 -11.424   2.986  1.00  0.00     0.053 C 
HETATM    5  C   UNL     1      41.498 -10.971   2.532  1.00  0.00     0.089 C 
HETATM    6  C   UNL     1      40.591 -10.701   3.728  1.00  0.00     0.053 C 
HETATM    7  C   UNL     1      40.540 -11.833   4.733  1.00  0.00     0.237 C 
ENDROOT
BRANCH   1   8
HETATM    8  C   UNL     1      41.780 -13.568   6.007  1.00  0.00     0.337 C 
BRANCH   8   9
HETATM    9  C   UNL     1      43.149 -14.072   6.455  1.00  0.00     0.244 C 
HETATM   10  N   UNL     1      43.511 -15.375   6.360  1.00  0.00    -0.351 N 
HETATM   11  H   UNL     1      44.430 -15.533   6.763  1.00  0.00     0.163 HD
HETATM   12  O   UNL     1      43.963 -13.253   6.895  1.00  0.00    -0.272 OA
BRANCH  10  13
HETATM   13  C   UNL     1      42.790 -16.606   6.025  1.00  0.00     0.120 C 
HETATM   14  C   UNL     1      43.278 -17.884   6.700  1.00  0.00     0.038 C 
BRANCH  13  15
HETATM   15  C   UNL     1      42.627 -16.773   4.535  1.00  0.00     0.005 A 
HETATM   16  S   UNL     1      41.246 -16.222   3.679  1.00  0.00    -0.104 SA
HETATM   17  C   UNL     1      41.868 -16.747   2.179  1.00  0.00     0.050 A 
HETATM   18  C   UNL     1      43.112 -17.317   2.311  1.00  0.00     0.008 A 
HETATM   19  C   UNL     1      43.549 -17.333   3.666  1.00  0.00     0.017 A 
ENDBRANCH  13  15
ENDBRANCH  10  13
ENDBRANCH   8   9
ENDBRANCH   1   8
BRANCH   5  20
HETATM   20  N   UNL     1      40.889 -11.787   1.483  1.00  0.00    -0.338 N 
HETATM   21  C   UNL     1      40.958 -11.586   0.133  1.00  0.00     0.316 C 
HETATM   22  N   UNL     1      40.325 -12.572  -0.569  1.00  0.00    -0.339 N 
HETATM   23  O   UNL     1      41.538 -10.644  -0.388  1.00  0.00    -0.247 OA
HETATM   24  H   UNL     1      39.597 -13.076  -0.083  1.00  0.00     0.164 HD
HETATM   25  H   UNL     1      40.608 -12.722   1.753  1.00  0.00     0.164 HD
BRANCH  22  26
HETATM   26  C   UNL     1      40.207 -12.503  -2.026  1.00  0.00     0.086 C 
HETATM   27  C   UNL     1      40.271 -13.902  -2.647  1.00  0.00     0.025 C 
HETATM   28  C   UNL     1      39.001 -14.718  -2.413  1.00  0.00     0.002 C 
HETATM   29  C   UNL     1      37.753 -13.959  -2.853  1.00  0.00     0.000 C 
HETATM   30  C   UNL     1      37.666 -12.585  -2.196  1.00  0.00     0.002 C 
HETATM   31  C   UNL     1      38.930 -11.762  -2.445  1.00  0.00     0.025 C 
ENDBRANCH  22  26
ENDBRANCH   5  20
TORSDOF 6
ENDMDL
MODEL 9
REMARK VINA RESULT:      -7.2      3.553      4.631
REMARK  6 active torsions:
REMARK  status: ('A' for Active; 'I' for Inactive)
REMARK    1  A    between atoms: C_2  and  N_3 
REMARK    2  A    between atoms: C_2  and  C_24 
REMARK       I    between atoms: N_3  and  C_4 
REMARK    3  A    between atoms: C_4  and  C_5 
REMARK    4  A    between atoms: C_5  and  N_6 
REMARK    5  A    between atoms: C_10  and  N_11 
REMARK       I    between atoms: N_11  and  C_12 
REMARK       I    between atoms: C_12  and  N_13 
REMARK    6  A    between atoms: N_13  and  C_14 
ROOT
HETATM    1  N   UNL     1      41.650 -13.043   4.202  1.00  0.00    -0.063 N 
HETATM    2  H   UNL     1      42.099 -13.412   3.347  1.00  0.00     0.280 HD
HETATM    3  C   UNL     1      42.072 -11.599   4.324  1.00  0.00     0.237 C 
HETATM    4  C   UNL     1      43.487 -11.448   4.850  1.00  0.00     0.053 C 
HETATM    5  C   UNL     1      43.823 -12.315   6.062  1.00  0.00     0.089 C 
HETATM    6  C   UNL     1      43.408 -13.764   5.831  1.00  0.00     0.053 C 
HETATM    7  C   UNL     1      41.977 -13.932   5.366  1.00  0.00     0.237 C 
ENDROOT
BRANCH   1   8
HETATM    8  C   UNL     1      40.133 -13.125   3.910  1.00  0.00     0.337 C 
BRANCH   8   9
HETATM    9  C   UNL     1      39.847 -14.049   2.730  1.00  0.00     0.244 C 
HETATM   10  N   UNL     1      39.497 -13.581   1.507  1.00  0.00    -0.351 N 
HETATM   11  H   UNL     1      39.286 -14.340   0.867  1.00  0.00     0.163 HD
HETATM   12  O   UNL     1      39.965 -15.268   2.895  1.00  0.00    -0.272 OA
BRANCH  10  13
HETATM   13  C   UNL     1      39.144 -12.254   0.993  1.00  0.00     0.120 C 
HETATM   14  C   UNL     1      38.002 -11.534   1.702  1.00  0.00     0.038 C 
BRANCH  13  15
HETATM   15  C   UNL     1      38.973 -12.260  -0.506  1.00  0.00     0.005 A 
HETATM   16  S   UNL     1      39.642 -13.474  -1.516  1.00  0.00    -0.104 SA
HETATM   17  C   UNL     1      38.983 -12.774  -2.927  1.00  0.00     0.050 A 
HETATM   18  C   UNL     1      38.248 -11.646  -2.645  1.00  0.00     0.008 A 
HETATM   19  C   UNL     1      38.243 -11.349  -1.252  1.00  0.00     0.017 A 
ENDBRANCH  13  15
ENDBRANCH  10  13
ENDBRANCH   8   9
ENDBRANCH   1   8
BRANCH   5  20
HETATM   20  N   UNL     1      43.409 -11.767   7.354  1.00  0.00    -0.338 N 
HETATM   21  C   UNL     1      44.214 -11.258   8.333  1.00  0.00     0.316 C 
HETATM   22  N   UNL     1      43.499 -10.773   9.391  1.00  0.00    -0.339 N 
HETATM   23  O   UNL     1      45.435 -11.221   8.262  1.00  0.00    -0.247 OA
HETATM   24  H   UNL     1      42.576 -11.160   9.527  1.00  0.00     0.164 HD
HETATM   25  H   UNL     1      42.435 -11.501   7.433  1.00  0.00     0.164 HD
BRANCH  22  26
HETATM   26  C   UNL     1      44.172 -10.262  10.585  1.00  0.00     0.086 C 
HETATM   27  C   UNL     1      44.349  -8.741  10.504  1.00  0.00     0.025 C 
HETATM   28  C   UNL     1      43.042  -7.977  10.706  1.00  0.00     0.002 C 
HETATM   29  C   UNL     1      42.333  -8.398  11.990  1.00  0.00     0.000 C 
HETATM   30  C   UNL     1      42.115  -9.906  12.046  1.00  0.00     0.002 C 
HETATM   31  C   UNL     1      43.425 -10.672  11.862  1.00  0.00     0.025 C 
ENDBRANCH  22  26
ENDBRANCH   5  20
TORSDOF 6
ENDMDL
MODEL 10
REMARK VINA RESULT:      -7.2      4.375     10.250
REMARK  6 active torsions:
REMARK  status: ('A' for Active; 'I' for Inactive)
REMARK    1  A    between atoms: C_2  and  N_3 
REMARK    2  A    between atoms: C_2  and  C_24 
REMARK       I    between atoms: N_3  and  C_4 
REMARK    3  A    between atoms: C_4  and  C_5 
REMARK    4  A    between atoms: C_5  and  N_6 
REMARK    5  A    between atoms: C_10  and  N_11 
REMARK       I    between atoms: N_11  and  C_12 
REMARK       I    between atoms: C_12  and  N_13 
REMARK    6  A    between atoms: N_13  and  C_14 
ROOT
HETATM    1  N   UNL     1      42.276 -14.211   4.550  1.00  0.00    -0.063 N 
HETATM    2  H   UNL     1      42.262 -14.972   5.249  1.00  0.00     0.280 HD
HETATM    3  C   UNL     1      40.852 -14.027   4.081  1.00  0.00     0.237 C 
HETATM    4  C   UNL     1      40.423 -15.095   3.093  1.00  0.00     0.053 C 
HETATM    5  C   UNL     1      41.428 -15.391   1.981  1.00  0.00     0.089 C 
HETATM    6  C   UNL     1      42.825 -15.612   2.550  1.00  0.00     0.053 C 
HETATM    7  C   UNL     1      43.291 -14.519   3.488  1.00  0.00     0.237 C 
ENDROOT
BRANCH   1   8
HETATM    8  C   UNL     1      42.732 -12.964   5.344  1.00  0.00     0.337 C 
BRANCH   8   9
HETATM    9  C   UNL     1      43.117 -13.331   6.774  1.00  0.00     0.244 C 
HETATM   10  N   UNL     1      43.726 -12.456   7.611  1.00  0.00    -0.351 N 
HETATM   11  H   UNL     1      43.961 -12.894   8.497  1.00  0.00     0.163 HD
HETATM   12  O   UNL     1      42.836 -14.461   7.187  1.00  0.00    -0.272 OA
BRANCH  10  13
HETATM   13  C   UNL     1      44.311 -11.124   7.433  1.00  0.00     0.120 C 
HETATM   14  C   UNL     1      45.771 -11.077   6.992  1.00  0.00     0.038 C 
BRANCH  13  15
HETATM   15  C   UNL     1      44.044 -10.230   8.619  1.00  0.00     0.005 A 
HETATM   16  S   UNL     1      43.383  -8.654   8.469  1.00  0.00    -0.104 SA
HETATM   17  C   UNL     1      43.386  -8.407  10.158  1.00  0.00     0.050 A 
HETATM   18  C   UNL     1      43.862  -9.504  10.836  1.00  0.00     0.008 A 
HETATM   19  C   UNL     1      44.242 -10.553   9.951  1.00  0.00     0.017 A 
ENDBRANCH  13  15
ENDBRANCH  10  13
ENDBRANCH   8   9
ENDBRANCH   1   8
BRANCH   5  20
HETATM   20  N   UNL     1      41.378 -14.479   0.838  1.00  0.00    -0.338 N 
HETATM   21  C   UNL     1      40.471 -14.482  -0.184  1.00  0.00     0.316 C 
HETATM   22  N   UNL     1      40.675 -13.454  -1.060  1.00  0.00    -0.339 N 
HETATM   23  O   UNL     1      39.566 -15.299  -0.291  1.00  0.00    -0.247 OA
HETATM   24  H   UNL     1      41.612 -13.076  -1.101  1.00  0.00     0.164 HD
HETATM   25  H   UNL     1      41.895 -13.614   0.936  1.00  0.00     0.164 HD
BRANCH  22  26
HETATM   26  C   UNL     1      39.868 -13.325  -2.273  1.00  0.00     0.086 C 
HETATM   27  C   UNL     1      38.473 -12.780  -1.946  1.00  0.00     0.025 C 
HETATM   28  C   UNL     1      38.482 -11.294  -1.590  1.00  0.00     0.002 C 
HETATM   29  C   UNL     1      39.181 -10.461  -2.660  1.00  0.00     0.000 C 
HETATM   30  C   UNL     1      40.587 -10.977  -2.950  1.00  0.00     0.002 C 
HETATM   31  C   UNL     1      40.577 -12.459  -3.323  1.00  0.00     0.025 C 
ENDBRANCH  22  26
ENDBRANCH   5  20
TORSDOF 6
ENDMDL
