MODEL 1
REMARK VINA RESULT:      -7.8      0.000      0.000
REMARK  9 active torsions:
REMARK  status: ('A' for Active; 'I' for Inactive)
REMARK    1  A    between atoms: C_2  and  O_3 
REMARK    2  A    between atoms: O_3  and  C_4 
REMARK    3  A    between atoms: C_4  and  C_5 
REMARK    4  A    between atoms: C_7  and  C_8 
REMARK       I    between atoms: C_8  and  N_9 
REMARK    5  A    between atoms: N_9  and  N_10 
REMARK    6  A    between atoms: N_10  and  C_11 
REMARK    7  A    between atoms: C_11  and  N_12 
REMARK    8  A    between atoms: N_12  and  C_13 
REMARK    9  A    between atoms: C_13  and  C_14 
ROOT
HETATM    1  C   UNL     1      43.658 -13.006   6.506  1.00  0.00     0.293 C 
HETATM    2  N   UNL     1      43.496 -12.843   5.136  1.00  0.00    -0.262 N 
HETATM    3  O   UNL     1      43.126 -13.951   7.090  1.00  0.00    -0.264 OA
HETATM    4  H   UNL     1      44.105 -12.231   4.601  1.00  0.00     0.190 HD
ENDROOT
BRANCH   1   5
HETATM    5  C   UNL     1      44.487 -12.002   7.145  1.00  0.00     0.145 A 
HETATM    6  O   UNL     1      44.179 -11.633   8.429  1.00  0.00    -0.307 OA
HETATM    7  C   UNL     1      45.072 -10.678   8.814  1.00  0.00     0.078 A 
HETATM    8  C   UNL     1      45.963 -10.428   7.794  1.00  0.00     0.038 A 
HETATM    9  C   UNL     1      45.591 -11.278   6.723  1.00  0.00     0.045 A 
BRANCH   7  10
HETATM   10  C   UNL     1      44.917 -10.127  10.185  1.00  0.00     0.240 C 
BRANCH  10  11
HETATM   11  O   UNL     1      43.558 -10.356  10.558  1.00  0.00    -0.345 OA
BRANCH  11  12
HETATM   12  C   UNL     1      43.108  -9.726  11.684  1.00  0.00     0.069 A 
HETATM   13  C   UNL     1      42.165 -10.224  12.583  1.00  0.00     0.038 A 
HETATM   14  C   UNL     1      41.808  -9.477  13.711  1.00  0.00     0.022 A 
HETATM   15  C   UNL     1      42.393  -8.232  13.937  1.00  0.00     0.011 A 
HETATM   16  C   UNL     1      43.334  -7.727  13.045  1.00  0.00     0.022 A 
HETATM   17 BR   UNL     1      41.908  -7.227  15.461  1.00  0.00    -0.051 Br
HETATM   18  C   UNL     1      43.692  -8.478  11.923  1.00  0.00     0.038 A 
ENDBRANCH  11  12
ENDBRANCH  10  11
ENDBRANCH   7  10
ENDBRANCH   1   5
BRANCH   2  19
HETATM   19  N   UNL     1      42.882 -13.889   4.413  1.00  0.00    -0.274 N 
HETATM   20  H   UNL     1      43.079 -14.809   4.807  1.00  0.00     0.189 HD
BRANCH  19  21
HETATM   21  C   UNL     1      42.763 -13.794   3.049  1.00  0.00     0.186 C 
HETATM   22  S   UNL     1      41.758 -12.720   2.248  1.00  0.00    -0.040 SA
BRANCH  21  23
HETATM   23  N   UNL     1      43.483 -14.679   2.311  1.00  0.00    -0.364 N 
HETATM   24  H   UNL     1      44.399 -14.346   2.021  1.00  0.00     0.162 HD
BRANCH  23  25
HETATM   25  C   UNL     1      43.069 -15.937   1.694  1.00  0.00     0.154 C 
BRANCH  25  26
HETATM   26  C   UNL     1      42.706 -17.004   2.740  1.00  0.00     0.139 C 
HETATM   27  O   UNL     1      43.562 -16.852   3.893  1.00  0.00    -0.384 OA
HETATM   28  C   UNL     1      44.128 -18.130   4.206  1.00  0.00     0.168 C 
HETATM   29  C   UNL     1      44.122 -18.917   2.918  1.00  0.00     0.029 C 
HETATM   30  C   UNL     1      42.851 -18.443   2.258  1.00  0.00     0.035 C 
ENDBRANCH  25  26
ENDBRANCH  23  25
ENDBRANCH  21  23
ENDBRANCH  19  21
ENDBRANCH   2  19
TORSDOF 9
ENDMDL
MODEL 2
REMARK VINA RESULT:      -7.7      1.550      1.786
REMARK  9 active torsions:
REMARK  status: ('A' for Active; 'I' for Inactive)
REMARK    1  A    between atoms: C_2  and  O_3 
REMARK    2  A    between atoms: O_3  and  C_4 
REMARK    3  A    between atoms: C_4  and  C_5 
REMARK    4  A    between atoms: C_7  and  C_8 
REMARK       I    between atoms: C_8  and  N_9 
REMARK    5  A    between atoms: N_9  and  N_10 
REMARK    6  A    between atoms: N_10  and  C_11 
REMARK    7  A    between atoms: C_11  and  N_12 
REMARK    8  A    between atoms: N_12  and  C_13 
REMARK    9  A    between atoms: C_13  and  C_14 
ROOT
HETATM    1  C   UNL     1      43.476 -13.419   6.771  1.00  0.00     0.293 C 
HETATM    2  N   UNL     1      42.117 -13.134   6.820  1.00  0.00    -0.262 N 
HETATM    3  O   UNL     1      43.867 -14.551   6.481  1.00  0.00    -0.264 OA
HETATM    4  H   UNL     1      41.778 -12.177   6.816  1.00  0.00     0.190 HD
ENDROOT
BRANCH   1   5
HETATM    5  C   UNL     1      44.345 -12.297   7.071  1.00  0.00     0.145 A 
HETATM    6  O   UNL     1      44.299 -11.765   8.334  1.00  0.00    -0.307 OA
HETATM    7  C   UNL     1      45.177 -10.724   8.380  1.00  0.00     0.078 A 
HETATM    8  C   UNL     1      45.801 -10.580   7.160  1.00  0.00     0.038 A 
HETATM    9  C   UNL     1      45.270 -11.589   6.319  1.00  0.00     0.045 A 
BRANCH   7  10
HETATM   10  C   UNL     1      45.284  -9.992   9.669  1.00  0.00     0.240 C 
BRANCH  10  11
HETATM   11  O   UNL     1      44.523 -10.738  10.617  1.00  0.00    -0.345 OA
BRANCH  11  12
HETATM   12  C   UNL     1      43.765 -10.025  11.504  1.00  0.00     0.069 A 
HETATM   13  C   UNL     1      42.987 -10.556  12.533  1.00  0.00     0.038 A 
HETATM   14  C   UNL     1      42.273  -9.705  13.384  1.00  0.00     0.022 A 
HETATM   15  C   UNL     1      42.336  -8.324  13.202  1.00  0.00     0.011 A 
HETATM   16  C   UNL     1      43.109  -7.786  12.178  1.00  0.00     0.022 A 
HETATM   17 BR   UNL     1      41.369  -7.179  14.353  1.00  0.00    -0.051 Br
HETATM   18  C   UNL     1      43.824  -8.638  11.334  1.00  0.00     0.038 A 
ENDBRANCH  11  12
ENDBRANCH  10  11
ENDBRANCH   7  10
ENDBRANCH   1   5
BRANCH   2  19
HETATM   19  N   UNL     1      41.218 -14.110   6.338  1.00  0.00    -0.274 N 
HETATM   20  H   UNL     1      41.556 -15.062   6.481  1.00  0.00     0.189 HD
BRANCH  19  21
HETATM   21  C   UNL     1      40.485 -13.859   5.205  1.00  0.00     0.186 C 
HETATM   22  S   UNL     1      39.646 -12.441   4.903  1.00  0.00    -0.040 SA
BRANCH  21  23
HETATM   23  N   UNL     1      40.404 -14.865   4.296  1.00  0.00    -0.364 N 
HETATM   24  H   UNL     1      39.717 -14.720   3.561  1.00  0.00     0.162 HD
BRANCH  23  25
HETATM   25  C   UNL     1      40.991 -16.202   4.326  1.00  0.00     0.154 C 
BRANCH  25  26
HETATM   26  C   UNL     1      42.143 -16.353   3.318  1.00  0.00     0.139 C 
HETATM   27  O   UNL     1      41.812 -17.389   2.368  1.00  0.00    -0.384 OA
HETATM   28  C   UNL     1      42.916 -18.300   2.291  1.00  0.00     0.168 C 
HETATM   29  C   UNL     1      43.644 -18.187   3.609  1.00  0.00     0.029 C 
HETATM   30  C   UNL     1      43.486 -16.722   3.938  1.00  0.00     0.035 C 
ENDBRANCH  25  26
ENDBRANCH  23  25
ENDBRANCH  21  23
ENDBRANCH  19  21
ENDBRANCH   2  19
TORSDOF 9
ENDMDL
MODEL 3
REMARK VINA RESULT:      -7.6      2.029      2.361
REMARK  9 active torsions:
REMARK  status: ('A' for Active; 'I' for Inactive)
REMARK    1  A    between atoms: C_2  and  O_3 
REMARK    2  A    between atoms: O_3  and  C_4 
REMARK    3  A    between atoms: C_4  and  C_5 
REMARK    4  A    between atoms: C_7  and  C_8 
REMARK       I    between atoms: C_8  and  N_9 
REMARK    5  A    between atoms: N_9  and  N_10 
REMARK    6  A    between atoms: N_10  and  C_11 
REMARK    7  A    between atoms: C_11  and  N_12 
REMARK    8  A    between atoms: N_12  and  C_13 
REMARK    9  A    between atoms: C_13  and  C_14 
ROOT
HETATM    1  C   UNL     1      43.589 -12.755   6.775  1.00  0.00     0.293 C 
HETATM    2  N   UNL     1      43.091 -13.755   7.599  1.00  0.00    -0.262 N 
HETATM    3  O   UNL     1      43.276 -12.714   5.583  1.00  0.00    -0.264 OA
HETATM    4  H   UNL     1      43.135 -13.676   8.611  1.00  0.00     0.190 HD
ENDROOT
BRANCH   1   5
HETATM    5  C   UNL     1      44.465 -11.803   7.431  1.00  0.00     0.145 A 
HETATM    6  O   UNL     1      44.117 -11.364   8.683  1.00  0.00    -0.307 OA
HETATM    7  C   UNL     1      45.066 -10.474   9.091  1.00  0.00     0.078 A 
HETATM    8  C   UNL     1      46.032 -10.338   8.119  1.00  0.00     0.038 A 
HETATM    9  C   UNL     1      45.650 -11.190   7.054  1.00  0.00     0.045 A 
BRANCH   7  10
HETATM   10  C   UNL     1      44.880  -9.863  10.433  1.00  0.00     0.240 C 
BRANCH  10  11
HETATM   11  O   UNL     1      43.580  -9.276  10.430  1.00  0.00    -0.345 OA
BRANCH  11  12
HETATM   12  C   UNL     1      42.999  -9.049  11.645  1.00  0.00     0.069 A 
HETATM   13  C   UNL     1      41.933  -9.764  12.194  1.00  0.00     0.038 A 
HETATM   14  C   UNL     1      41.447  -9.434  13.464  1.00  0.00     0.022 A 
HETATM   15  C   UNL     1      42.024  -8.388  14.182  1.00  0.00     0.011 A 
HETATM   16  C   UNL     1      43.086  -7.669  13.642  1.00  0.00     0.022 A 
HETATM   17 BR   UNL     1      41.363  -7.947  15.896  1.00  0.00    -0.051 Br
HETATM   18  C   UNL     1      43.572  -8.004  12.377  1.00  0.00     0.038 A 
ENDBRANCH  11  12
ENDBRANCH  10  11
ENDBRANCH   7  10
ENDBRANCH   1   5
BRANCH   2  19
HETATM   19  N   UNL     1      42.073 -14.589   7.089  1.00  0.00    -0.274 N 
HETATM   20  H   UNL     1      41.149 -14.349   7.450  1.00  0.00     0.189 HD
BRANCH  19  21
HETATM   21  C   UNL     1      42.336 -15.914   6.846  1.00  0.00     0.186 C 
HETATM   22  S   UNL     1      43.591 -16.782   7.536  1.00  0.00    -0.040 SA
BRANCH  21  23
HETATM   23  N   UNL     1      41.541 -16.537   5.938  1.00  0.00    -0.364 N 
HETATM   24  H   UNL     1      41.151 -17.423   6.250  1.00  0.00     0.162 HD
BRANCH  23  25
HETATM   25  C   UNL     1      41.330 -16.245   4.522  1.00  0.00     0.154 C 
BRANCH  25  26
HETATM   26  C   UNL     1      42.650 -15.967   3.784  1.00  0.00     0.139 C 
HETATM   27  O   UNL     1      42.364 -15.352   2.510  1.00  0.00    -0.384 OA
HETATM   28  C   UNL     1      43.072 -16.071   1.493  1.00  0.00     0.168 C 
HETATM   29  C   UNL     1      43.285 -17.463   2.036  1.00  0.00     0.029 C 
HETATM   30  C   UNL     1      43.496 -17.204   3.508  1.00  0.00     0.035 C 
ENDBRANCH  25  26
ENDBRANCH  23  25
ENDBRANCH  21  23
ENDBRANCH  19  21
ENDBRANCH   2  19
TORSDOF 9
ENDMDL
MODEL 4
REMARK VINA RESULT:      -7.5      1.718      2.346
REMARK  9 active torsions:
REMARK  status: ('A' for Active; 'I' for Inactive)
REMARK    1  A    between atoms: C_2  and  O_3 
REMARK    2  A    between atoms: O_3  and  C_4 
REMARK    3  A    between atoms: C_4  and  C_5 
REMARK    4  A    between atoms: C_7  and  C_8 
REMARK       I    between atoms: C_8  and  N_9 
REMARK    5  A    between atoms: N_9  and  N_10 
REMARK    6  A    between atoms: N_10  and  C_11 
REMARK    7  A    between atoms: C_11  and  N_12 
REMARK    8  A    between atoms: N_12  and  C_13 
REMARK    9  A    between atoms: C_13  and  C_14 
ROOT
HETATM    1  C   UNL     1      44.582 -11.428   7.150  1.00  0.00     0.293 C 
HETATM    2  N   UNL     1      43.331 -12.006   6.976  1.00  0.00    -0.262 N 
HETATM    3  O   UNL     1      45.426 -11.484   6.254  1.00  0.00    -0.264 OA
HETATM    4  H   UNL     1      42.551 -11.771   7.584  1.00  0.00     0.190 HD
ENDROOT
BRANCH   1   5
HETATM    5  C   UNL     1      44.779 -10.774   8.429  1.00  0.00     0.145 A 
HETATM    6  O   UNL     1      43.969 -11.141   9.473  1.00  0.00    -0.307 OA
HETATM    7  C   UNL     1      44.320 -10.393  10.557  1.00  0.00     0.078 A 
HETATM    8  C   UNL     1      45.357  -9.548  10.229  1.00  0.00     0.038 A 
HETATM    9  C   UNL     1      45.655  -9.792   8.866  1.00  0.00     0.045 A 
BRANCH   7  10
HETATM   10  C   UNL     1      43.556 -10.626  11.810  1.00  0.00     0.240 C 
BRANCH  10  11
HETATM   11  O   UNL     1      42.474  -9.697  11.799  1.00  0.00    -0.345 OA
BRANCH  11  12
HETATM   12  C   UNL     1      42.252  -8.989  12.946  1.00  0.00     0.069 A 
HETATM   13  C   UNL     1      41.246  -9.235  13.883  1.00  0.00     0.038 A 
HETATM   14  C   UNL     1      41.145  -8.439  15.029  1.00  0.00     0.022 A 
HETATM   15  C   UNL     1      42.047  -7.397  15.236  1.00  0.00     0.011 A 
HETATM   16  C   UNL     1      43.052  -7.144  14.308  1.00  0.00     0.022 A 
HETATM   17 BR   UNL     1      41.905  -6.325  16.786  1.00  0.00    -0.051 Br
HETATM   18  C   UNL     1      43.153  -7.943  13.167  1.00  0.00     0.038 A 
ENDBRANCH  11  12
ENDBRANCH  10  11
ENDBRANCH   7  10
ENDBRANCH   1   5
BRANCH   2  19
HETATM   19  N   UNL     1      42.990 -12.473   5.688  1.00  0.00    -0.274 N 
HETATM   20  H   UNL     1      42.331 -11.859   5.208  1.00  0.00     0.189 HD
BRANCH  19  21
HETATM   21  C   UNL     1      42.885 -13.822   5.460  1.00  0.00     0.186 C 
HETATM   22  S   UNL     1      43.339 -15.015   6.544  1.00  0.00    -0.040 SA
BRANCH  21  23
HETATM   23  N   UNL     1      42.422 -14.200   4.240  1.00  0.00    -0.364 N 
HETATM   24  H   UNL     1      42.978 -13.873   3.454  1.00  0.00     0.162 HD
BRANCH  23  25
HETATM   25  C   UNL     1      41.149 -14.814   3.871  1.00  0.00     0.154 C 
BRANCH  25  26
HETATM   26  C   UNL     1      41.332 -15.992   2.901  1.00  0.00     0.139 C 
HETATM   27  O   UNL     1      42.246 -16.948   3.479  1.00  0.00    -0.384 OA
HETATM   28  C   UNL     1      43.255 -17.253   2.508  1.00  0.00     0.168 C 
HETATM   29  C   UNL     1      43.326 -16.056   1.590  1.00  0.00     0.029 C 
HETATM   30  C   UNL     1      41.886 -15.610   1.533  1.00  0.00     0.035 C 
ENDBRANCH  25  26
ENDBRANCH  23  25
ENDBRANCH  21  23
ENDBRANCH  19  21
ENDBRANCH   2  19
TORSDOF 9
ENDMDL
MODEL 5
REMARK VINA RESULT:      -7.5      4.901      9.435
REMARK  9 active torsions:
REMARK  status: ('A' for Active; 'I' for Inactive)
REMARK    1  A    between atoms: C_2  and  O_3 
REMARK    2  A    between atoms: O_3  and  C_4 
REMARK    3  A    between atoms: C_4  and  C_5 
REMARK    4  A    between atoms: C_7  and  C_8 
REMARK       I    between atoms: C_8  and  N_9 
REMARK    5  A    between atoms: N_9  and  N_10 
REMARK    6  A    between atoms: N_10  and  C_11 
REMARK    7  A    between atoms: C_11  and  N_12 
REMARK    8  A    between atoms: N_12  and  C_13 
REMARK    9  A    between atoms: C_13  and  C_14 
ROOT
HETATM    1  C   UNL     1      39.733 -10.997   6.830  1.00  0.00     0.293 C 
HETATM    2  N   UNL     1      40.740 -10.383   7.565  1.00  0.00    -0.262 N 
HETATM    3  O   UNL     1      38.570 -10.992   7.237  1.00  0.00    -0.264 OA
HETATM    4  H   UNL     1      41.640 -10.164   7.148  1.00  0.00     0.190 HD
ENDROOT
BRANCH   1   5
HETATM    5  C   UNL     1      40.170 -11.604   5.587  1.00  0.00     0.145 A 
HETATM    6  O   UNL     1      41.402 -12.206   5.562  1.00  0.00    -0.307 OA
HETATM    7  C   UNL     1      41.604 -12.688   4.302  1.00  0.00     0.078 A 
HETATM    8  C   UNL     1      40.512 -12.411   3.512  1.00  0.00     0.038 A 
HETATM    9  C   UNL     1      39.589 -11.718   4.333  1.00  0.00     0.045 A 
BRANCH   7  10
HETATM   10  C   UNL     1      42.894 -13.380   4.048  1.00  0.00     0.240 C 
BRANCH  10  11
HETATM   11  O   UNL     1      42.876 -14.567   4.840  1.00  0.00    -0.345 OA
BRANCH  11  12
HETATM   12  C   UNL     1      42.980 -15.757   4.178  1.00  0.00     0.069 A 
HETATM   13  C   UNL     1      42.424 -16.057   2.933  1.00  0.00     0.038 A 
HETATM   14  C   UNL     1      42.626 -17.317   2.359  1.00  0.00     0.022 A 
HETATM   15  C   UNL     1      43.383 -18.275   3.031  1.00  0.00     0.011 A 
HETATM   16  C   UNL     1      43.941 -17.985   4.272  1.00  0.00     0.022 A 
HETATM   17 BR   UNL     1      43.654 -19.975   2.251  1.00  0.00    -0.051 Br
HETATM   18  C   UNL     1      43.741 -16.726   4.840  1.00  0.00     0.038 A 
ENDBRANCH  11  12
ENDBRANCH  10  11
ENDBRANCH   7  10
ENDBRANCH   1   5
BRANCH   2  19
HETATM   19  N   UNL     1      40.363  -9.592   8.672  1.00  0.00    -0.274 N 
HETATM   20  H   UNL     1      39.591  -8.960   8.460  1.00  0.00     0.189 HD
BRANCH  19  21
HETATM   21  C   UNL     1      41.321  -9.153   9.551  1.00  0.00     0.186 C 
HETATM   22  S   UNL     1      41.293  -7.675  10.338  1.00  0.00    -0.040 SA
BRANCH  21  23
HETATM   23  N   UNL     1      42.389  -9.970   9.747  1.00  0.00    -0.364 N 
HETATM   24  H   UNL     1      42.165 -10.873  10.156  1.00  0.00     0.162 HD
BRANCH  23  25
HETATM   25  C   UNL     1      43.818  -9.677   9.664  1.00  0.00     0.154 C 
BRANCH  25  26
HETATM   26  C   UNL     1      44.289  -9.494   8.212  1.00  0.00     0.139 C 
HETATM   27  O   UNL     1      43.789 -10.583   7.407  1.00  0.00    -0.384 OA
HETATM   28  C   UNL     1      44.884 -11.138   6.669  1.00  0.00     0.168 C 
HETATM   29  C   UNL     1      46.128 -10.817   7.461  1.00  0.00     0.029 C 
HETATM   30  C   UNL     1      45.802  -9.459   8.033  1.00  0.00     0.035 C 
ENDBRANCH  25  26
ENDBRANCH  23  25
ENDBRANCH  21  23
ENDBRANCH  19  21
ENDBRANCH   2  19
TORSDOF 9
ENDMDL
MODEL 6
REMARK VINA RESULT:      -7.5      4.795     10.717
REMARK  9 active torsions:
REMARK  status: ('A' for Active; 'I' for Inactive)
REMARK    1  A    between atoms: C_2  and  O_3 
REMARK    2  A    between atoms: O_3  and  C_4 
REMARK    3  A    between atoms: C_4  and  C_5 
REMARK    4  A    between atoms: C_7  and  C_8 
REMARK       I    between atoms: C_8  and  N_9 
REMARK    5  A    between atoms: N_9  and  N_10 
REMARK    6  A    between atoms: N_10  and  C_11 
REMARK    7  A    between atoms: C_11  and  N_12 
REMARK    8  A    between atoms: N_12  and  C_13 
REMARK    9  A    between atoms: C_13  and  C_14 
ROOT
HETATM    1  C   UNL     1      43.924 -10.713   9.133  1.00  0.00     0.293 C 
HETATM    2  N   UNL     1      42.746  -9.983   9.234  1.00  0.00    -0.262 N 
HETATM    3  O   UNL     1      44.720 -10.748  10.074  1.00  0.00    -0.264 OA
HETATM    4  H   UNL     1      41.977 -10.130   8.587  1.00  0.00     0.190 HD
ENDROOT
BRANCH   1   5
HETATM    5  C   UNL     1      44.106 -11.405   7.872  1.00  0.00     0.145 A 
HETATM    6  O   UNL     1      43.759 -12.731   7.808  1.00  0.00    -0.307 OA
HETATM    7  C   UNL     1      44.029 -13.171   6.547  1.00  0.00     0.078 A 
HETATM    8  C   UNL     1      44.540 -12.142   5.788  1.00  0.00     0.038 A 
HETATM    9  C   UNL     1      44.589 -11.008   6.635  1.00  0.00     0.045 A 
BRANCH   7  10
HETATM   10  C   UNL     1      43.731 -14.598   6.256  1.00  0.00     0.240 C 
BRANCH  10  11
HETATM   11  O   UNL     1      43.102 -14.624   4.975  1.00  0.00    -0.345 OA
BRANCH  11  12
HETATM   12  C   UNL     1      43.186 -15.789   4.266  1.00  0.00     0.069 A 
HETATM   13  C   UNL     1      42.922 -15.943   2.904  1.00  0.00     0.038 A 
HETATM   14  C   UNL     1      43.066 -17.196   2.299  1.00  0.00     0.022 A 
HETATM   15  C   UNL     1      43.471 -18.294   3.056  1.00  0.00     0.011 A 
HETATM   16  C   UNL     1      43.736 -18.149   4.415  1.00  0.00     0.022 A 
HETATM   17 BR   UNL     1      43.664 -19.984   2.234  1.00  0.00    -0.051 Br
HETATM   18  C   UNL     1      43.595 -16.896   5.015  1.00  0.00     0.038 A 
ENDBRANCH  11  12
ENDBRANCH  10  11
ENDBRANCH   7  10
ENDBRANCH   1   5
BRANCH   2  19
HETATM   19  N   UNL     1      42.398  -9.458  10.497  1.00  0.00    -0.274 N 
HETATM   20  H   UNL     1      43.176  -9.470  11.157  1.00  0.00     0.189 HD
BRANCH  19  21
HETATM   21  C   UNL     1      41.137  -9.668  10.997  1.00  0.00     0.186 C 
HETATM   22  S   UNL     1      39.715  -9.317  10.185  1.00  0.00    -0.040 SA
BRANCH  21  23
HETATM   23  N   UNL     1      41.056 -10.149  12.265  1.00  0.00    -0.364 N 
HETATM   24  H   UNL     1      41.593 -10.995  12.435  1.00  0.00     0.162 HD
BRANCH  23  25
HETATM   25  C   UNL     1      40.160  -9.769  13.354  1.00  0.00     0.154 C 
BRANCH  25  26
HETATM   26  C   UNL     1      40.836  -8.822  14.359  1.00  0.00     0.139 C 
HETATM   27  O   UNL     1      40.357  -7.477  14.144  1.00  0.00    -0.384 OA
HETATM   28  C   UNL     1      41.489  -6.606  14.039  1.00  0.00     0.168 C 
HETATM   29  C   UNL     1      42.638  -7.467  13.573  1.00  0.00     0.029 C 
HETATM   30  C   UNL     1      42.357  -8.778  14.266  1.00  0.00     0.035 C 
ENDBRANCH  25  26
ENDBRANCH  23  25
ENDBRANCH  21  23
ENDBRANCH  19  21
ENDBRANCH   2  19
TORSDOF 9
ENDMDL
MODEL 7
REMARK VINA RESULT:      -7.5      5.165     10.067
REMARK  9 active torsions:
REMARK  status: ('A' for Active; 'I' for Inactive)
REMARK    1  A    between atoms: C_2  and  O_3 
REMARK    2  A    between atoms: O_3  and  C_4 
REMARK    3  A    between atoms: C_4  and  C_5 
REMARK    4  A    between atoms: C_7  and  C_8 
REMARK       I    between atoms: C_8  and  N_9 
REMARK    5  A    between atoms: N_9  and  N_10 
REMARK    6  A    between atoms: N_10  and  C_11 
REMARK    7  A    between atoms: C_11  and  N_12 
REMARK    8  A    between atoms: N_12  and  C_13 
REMARK    9  A    between atoms: C_13  and  C_14 
ROOT
HETATM    1  C   UNL     1      44.315 -10.633   8.869  1.00  0.00     0.293 C 
HETATM    2  N   UNL     1      43.271 -10.753   9.778  1.00  0.00    -0.262 N 
HETATM    3  O   UNL     1      45.305  -9.952   9.141  1.00  0.00    -0.264 OA
HETATM    4  H   UNL     1      42.572 -11.483   9.686  1.00  0.00     0.190 HD
ENDROOT
BRANCH   1   5
HETATM    5  C   UNL     1      44.132 -11.365   7.631  1.00  0.00     0.145 A 
HETATM    6  O   UNL     1      43.927 -12.719   7.707  1.00  0.00    -0.307 OA
HETATM    7  C   UNL     1      43.799 -13.193   6.435  1.00  0.00     0.078 A 
HETATM    8  C   UNL     1      43.910 -12.158   5.534  1.00  0.00     0.038 A 
HETATM    9  C   UNL     1      44.122 -10.984   6.298  1.00  0.00     0.045 A 
BRANCH   7  10
HETATM   10  C   UNL     1      43.575 -14.655   6.283  1.00  0.00     0.240 C 
BRANCH  10  11
HETATM   11  O   UNL     1      43.110 -14.852   4.948  1.00  0.00    -0.345 OA
BRANCH  11  12
HETATM   12  C   UNL     1      43.302 -16.089   4.401  1.00  0.00     0.069 A 
HETATM   13  C   UNL     1      43.950 -17.166   5.009  1.00  0.00     0.038 A 
HETATM   14  C   UNL     1      44.059 -18.389   4.338  1.00  0.00     0.022 A 
HETATM   15  C   UNL     1      43.523 -18.533   3.060  1.00  0.00     0.011 A 
HETATM   16  C   UNL     1      42.876 -17.465   2.446  1.00  0.00     0.022 A 
HETATM   17 BR   UNL     1      43.674 -20.186   2.158  1.00  0.00    -0.051 Br
HETATM   18  C   UNL     1      42.764 -16.247   3.120  1.00  0.00     0.038 A 
ENDBRANCH  11  12
ENDBRANCH  10  11
ENDBRANCH   7  10
ENDBRANCH   1   5
BRANCH   2  19
HETATM   19  N   UNL     1      43.466 -10.246  11.082  1.00  0.00    -0.274 N 
HETATM   20  H   UNL     1      44.209 -10.732  11.586  1.00  0.00     0.189 HD
BRANCH  19  21
HETATM   21  C   UNL     1      42.390  -9.803  11.808  1.00  0.00     0.186 C 
HETATM   22  S   UNL     1      42.489  -8.868  13.193  1.00  0.00    -0.040 SA
BRANCH  21  23
HETATM   23  N   UNL     1      41.162 -10.204  11.385  1.00  0.00    -0.364 N 
HETATM   24  H   UNL     1      41.152 -11.090  10.886  1.00  0.00     0.162 HD
BRANCH  23  25
HETATM   25  C   UNL     1      39.900  -9.469  11.347  1.00  0.00     0.154 C 
BRANCH  25  26
HETATM   26  C   UNL     1      39.602  -8.900   9.950  1.00  0.00     0.139 C 
HETATM   27  O   UNL     1      40.578  -9.401   9.013  1.00  0.00    -0.384 OA
HETATM   28  C   UNL     1      41.117  -8.290   8.286  1.00  0.00     0.168 C 
HETATM   29  C   UNL     1      40.943  -7.084   9.177  1.00  0.00     0.029 C 
HETATM   30  C   UNL     1      39.632  -7.379   9.863  1.00  0.00     0.035 C 
ENDBRANCH  25  26
ENDBRANCH  23  25
ENDBRANCH  21  23
ENDBRANCH  19  21
ENDBRANCH   2  19
TORSDOF 9
ENDMDL
MODEL 8
REMARK VINA RESULT:      -7.4      4.923     10.038
REMARK  9 active torsions:
REMARK  status: ('A' for Active; 'I' for Inactive)
REMARK    1  A    between atoms: C_2  and  O_3 
REMARK    2  A    between atoms: O_3  and  C_4 
REMARK    3  A    between atoms: C_4  and  C_5 
REMARK    4  A    between atoms: C_7  and  C_8 
REMARK       I    between atoms: C_8  and  N_9 
REMARK    5  A    between atoms: N_9  and  N_10 
REMARK    6  A    between atoms: N_10  and  C_11 
REMARK    7  A    between atoms: C_11  and  N_12 
REMARK    8  A    between atoms: N_12  and  C_13 
REMARK    9  A    between atoms: C_13  and  C_14 
ROOT
HETATM    1  C   UNL     1      43.793 -10.588  10.680  1.00  0.00     0.293 C 
HETATM    2  N   UNL     1      42.548  -9.973  10.633  1.00  0.00    -0.262 N 
HETATM    3  O   UNL     1      44.083 -11.339  11.613  1.00  0.00    -0.264 OA
HETATM    4  H   UNL     1      42.198  -9.554   9.776  1.00  0.00     0.190 HD
ENDROOT
BRANCH   1   5
HETATM    5  C   UNL     1      44.668 -10.279   9.566  1.00  0.00     0.145 A 
HETATM    6  O   UNL     1      44.618 -11.092   8.462  1.00  0.00    -0.307 OA
HETATM    7  C   UNL     1      45.528 -10.625   7.560  1.00  0.00     0.078 A 
HETATM    8  C   UNL     1      46.163  -9.513   8.064  1.00  0.00     0.038 A 
HETATM    9  C   UNL     1      45.612  -9.287   9.350  1.00  0.00     0.045 A 
BRANCH   7  10
HETATM   10  C   UNL     1      45.645 -11.370   6.279  1.00  0.00     0.240 C 
BRANCH  10  11
HETATM   11  O   UNL     1      44.521 -10.988   5.488  1.00  0.00    -0.345 OA
BRANCH  11  12
HETATM   12  C   UNL     1      43.880 -11.979   4.800  1.00  0.00     0.069 A 
HETATM   13  C   UNL     1      43.679 -12.024   3.420  1.00  0.00     0.038 A 
HETATM   14  C   UNL     1      43.019 -13.115   2.842  1.00  0.00     0.022 A 
HETATM   15  C   UNL     1      42.559 -14.156   3.645  1.00  0.00     0.011 A 
HETATM   16  C   UNL     1      42.754 -14.119   5.023  1.00  0.00     0.022 A 
HETATM   17 BR   UNL     1      41.668 -15.627   2.860  1.00  0.00    -0.051 Br
HETATM   18  C   UNL     1      43.417 -13.032   5.595  1.00  0.00     0.038 A 
ENDBRANCH  11  12
ENDBRANCH  10  11
ENDBRANCH   7  10
ENDBRANCH   1   5
BRANCH   2  19
HETATM   19  N   UNL     1      41.569 -10.385  11.562  1.00  0.00    -0.274 N 
HETATM   20  H   UNL     1      41.469 -11.400  11.605  1.00  0.00     0.189 HD
BRANCH  19  21
HETATM   21  C   UNL     1      40.440  -9.627  11.743  1.00  0.00     0.186 C 
HETATM   22  S   UNL     1      39.458  -9.064  10.509  1.00  0.00    -0.040 SA
BRANCH  21  23
HETATM   23  N   UNL     1      40.140  -9.273  13.020  1.00  0.00    -0.364 N 
HETATM   24  H   UNL     1      39.190  -8.940  13.158  1.00  0.00     0.162 HD
BRANCH  23  25
HETATM   25  C   UNL     1      41.021  -9.096  14.172  1.00  0.00     0.154 C 
BRANCH  25  26
HETATM   26  C   UNL     1      41.597  -7.673  14.249  1.00  0.00     0.139 C 
HETATM   27  O   UNL     1      40.685  -6.754  13.609  1.00  0.00    -0.384 OA
HETATM   28  C   UNL     1      41.427  -5.960  12.675  1.00  0.00     0.168 C 
HETATM   29  C   UNL     1      42.633  -6.783  12.292  1.00  0.00     0.029 C 
HETATM   30  C   UNL     1      42.955  -7.499  13.581  1.00  0.00     0.035 C 
ENDBRANCH  25  26
ENDBRANCH  23  25
ENDBRANCH  21  23
ENDBRANCH  19  21
ENDBRANCH   2  19
TORSDOF 9
ENDMDL
MODEL 9
REMARK VINA RESULT:      -7.4      5.057      8.968
REMARK  9 active torsions:
REMARK  status: ('A' for Active; 'I' for Inactive)
REMARK    1  A    between atoms: C_2  and  O_3 
REMARK    2  A    between atoms: O_3  and  C_4 
REMARK    3  A    between atoms: C_4  and  C_5 
REMARK    4  A    between atoms: C_7  and  C_8 
REMARK       I    between atoms: C_8  and  N_9 
REMARK    5  A    between atoms: N_9  and  N_10 
REMARK    6  A    between atoms: N_10  and  C_11 
REMARK    7  A    between atoms: C_11  and  N_12 
REMARK    8  A    between atoms: N_12  and  C_13 
REMARK    9  A    between atoms: C_13  and  C_14 
ROOT
HETATM    1  C   UNL     1      43.960  -9.705  10.790  1.00  0.00     0.293 C 
HETATM    2  N   UNL     1      42.993 -10.682  10.993  1.00  0.00    -0.262 N 
HETATM    3  O   UNL     1      44.101  -8.788  11.601  1.00  0.00    -0.264 OA
HETATM    4  H   UNL     1      43.015 -11.561  10.484  1.00  0.00     0.190 HD
ENDROOT
BRANCH   1   5
HETATM    5  C   UNL     1      44.754  -9.874   9.588  1.00  0.00     0.145 A 
HETATM    6  O   UNL     1      44.458 -10.928   8.763  1.00  0.00    -0.307 OA
HETATM    7  C   UNL     1      45.333 -10.897   7.718  1.00  0.00     0.078 A 
HETATM    8  C   UNL     1      46.190  -9.828   7.853  1.00  0.00     0.038 A 
HETATM    9  C   UNL     1      45.820  -9.169   9.051  1.00  0.00     0.045 A 
BRANCH   7  10
HETATM   10  C   UNL     1      45.194 -11.966   6.694  1.00  0.00     0.240 C 
BRANCH  10  11
HETATM   11  O   UNL     1      44.090 -12.772   7.104  1.00  0.00    -0.345 OA
BRANCH  11  12
HETATM   12  C   UNL     1      43.679 -13.748   6.239  1.00  0.00     0.069 A 
HETATM   13  C   UNL     1      43.791 -15.124   6.440  1.00  0.00     0.038 A 
HETATM   14  C   UNL     1      43.309 -16.016   5.475  1.00  0.00     0.022 A 
HETATM   15  C   UNL     1      42.718 -15.529   4.310  1.00  0.00     0.011 A 
HETATM   16  C   UNL     1      42.603 -14.158   4.101  1.00  0.00     0.022 A 
HETATM   17 BR   UNL     1      42.069 -16.736   3.009  1.00  0.00    -0.051 Br
HETATM   18  C   UNL     1      43.081 -13.272   5.069  1.00  0.00     0.038 A 
ENDBRANCH  11  12
ENDBRANCH  10  11
ENDBRANCH   7  10
ENDBRANCH   1   5
BRANCH   2  19
HETATM   19  N   UNL     1      42.327 -10.706  12.238  1.00  0.00    -0.274 N 
HETATM   20  H   UNL     1      42.458 -11.586  12.738  1.00  0.00     0.189 HD
BRANCH  19  21
HETATM   21  C   UNL     1      41.119 -10.070  12.376  1.00  0.00     0.186 C 
HETATM   22  S   UNL     1      40.637  -9.214  13.732  1.00  0.00    -0.040 SA
BRANCH  21  23
HETATM   23  N   UNL     1      40.242 -10.198  11.346  1.00  0.00    -0.364 N 
HETATM   24  H   UNL     1      40.141 -11.143  10.987  1.00  0.00     0.162 HD
BRANCH  23  25
HETATM   25  C   UNL     1      39.588  -9.168  10.542  1.00  0.00     0.154 C 
BRANCH  25  26
HETATM   26  C   UNL     1      39.848  -9.355   9.038  1.00  0.00     0.139 C 
HETATM   27  O   UNL     1      41.271  -9.424   8.804  1.00  0.00    -0.384 OA
HETATM   28  C   UNL     1      41.602  -8.502   7.759  1.00  0.00     0.168 C 
HETATM   29  C   UNL     1      40.525  -7.444   7.778  1.00  0.00     0.029 C 
HETATM   30  C   UNL     1      39.300  -8.240   8.154  1.00  0.00     0.035 C 
ENDBRANCH  25  26
ENDBRANCH  23  25
ENDBRANCH  21  23
ENDBRANCH  19  21
ENDBRANCH   2  19
TORSDOF 9
ENDMDL
MODEL 10
REMARK VINA RESULT:      -7.3      2.062      2.435
REMARK  9 active torsions:
REMARK  status: ('A' for Active; 'I' for Inactive)
REMARK    1  A    between atoms: C_2  and  O_3 
REMARK    2  A    between atoms: O_3  and  C_4 
REMARK    3  A    between atoms: C_4  and  C_5 
REMARK    4  A    between atoms: C_7  and  C_8 
REMARK       I    between atoms: C_8  and  N_9 
REMARK    5  A    between atoms: N_9  and  N_10 
REMARK    6  A    between atoms: N_10  and  C_11 
REMARK    7  A    between atoms: C_11  and  N_12 
REMARK    8  A    between atoms: N_12  and  C_13 
REMARK    9  A    between atoms: C_13  and  C_14 
ROOT
HETATM    1  C   UNL     1      43.609 -12.253   6.311  1.00  0.00     0.293 C 
HETATM    2  N   UNL     1      42.747 -13.077   7.024  1.00  0.00    -0.262 N 
HETATM    3  O   UNL     1      43.528 -12.177   5.083  1.00  0.00    -0.264 OA
HETATM    4  H   UNL     1      42.631 -12.977   8.028  1.00  0.00     0.190 HD
ENDROOT
BRANCH   1   5
HETATM    5  C   UNL     1      44.560 -11.517   7.122  1.00  0.00     0.145 A 
HETATM    6  O   UNL     1      44.201 -11.201   8.407  1.00  0.00    -0.307 OA
HETATM    7  C   UNL     1      45.231 -10.505   8.967  1.00  0.00     0.078 A 
HETATM    8  C   UNL     1      46.258 -10.372   8.060  1.00  0.00     0.038 A 
HETATM    9  C   UNL     1      45.831 -11.022   6.876  1.00  0.00     0.045 A 
BRANCH   7  10
HETATM   10  C   UNL     1      45.050 -10.052  10.372  1.00  0.00     0.240 C 
BRANCH  10  11
HETATM   11  O   UNL     1      43.650 -10.120  10.637  1.00  0.00    -0.345 OA
BRANCH  11  12
HETATM   12  C   UNL     1      43.202  -9.494  11.767  1.00  0.00     0.069 A 
HETATM   13  C   UNL     1      43.648  -8.267  12.259  1.00  0.00     0.038 A 
HETATM   14  C   UNL     1      43.086  -7.731  13.423  1.00  0.00     0.022 A 
HETATM   15  C   UNL     1      42.080  -8.424  14.094  1.00  0.00     0.011 A 
HETATM   16  C   UNL     1      41.630  -9.649  13.611  1.00  0.00     0.022 A 
HETATM   17 BR   UNL     1      41.324  -7.697  15.666  1.00  0.00    -0.051 Br
HETATM   18  C   UNL     1      42.190 -10.179  12.447  1.00  0.00     0.038 A 
ENDBRANCH  11  12
ENDBRANCH  10  11
ENDBRANCH   7  10
ENDBRANCH   1   5
BRANCH   2  19
HETATM   19  N   UNL     1      41.663 -13.659   6.332  1.00  0.00    -0.274 N 
HETATM   20  H   UNL     1      40.791 -13.145   6.461  1.00  0.00     0.189 HD
BRANCH  19  21
HETATM   21  C   UNL     1      41.585 -15.024   6.214  1.00  0.00     0.186 C 
HETATM   22  S   UNL     1      40.209 -15.933   6.510  1.00  0.00    -0.040 SA
BRANCH  21  23
HETATM   23  N   UNL     1      42.730 -15.674   5.882  1.00  0.00    -0.364 N 
HETATM   24  H   UNL     1      43.584 -15.221   6.196  1.00  0.00     0.162 HD
BRANCH  23  25
HETATM   25  C   UNL     1      42.937 -16.797   4.970  1.00  0.00     0.154 C 
BRANCH  25  26
HETATM   26  C   UNL     1      44.020 -17.764   5.477  1.00  0.00     0.139 C 
HETATM   27  O   UNL     1      44.452 -18.608   4.389  1.00  0.00    -0.384 OA
HETATM   28  C   UNL     1      44.402 -19.971   4.828  1.00  0.00     0.168 C 
HETATM   29  C   UNL     1      43.377 -20.016   5.935  1.00  0.00     0.029 C 
HETATM   30  C   UNL     1      43.574 -18.681   6.610  1.00  0.00     0.035 C 
ENDBRANCH  25  26
ENDBRANCH  23  25
ENDBRANCH  21  23
ENDBRANCH  19  21
ENDBRANCH   2  19
TORSDOF 9
ENDMDL
