MODEL 1
REMARK VINA RESULT:      -7.8      0.000      0.000
REMARK  6 active torsions:
REMARK  status: ('A' for Active; 'I' for Inactive)
REMARK    1  A    between atoms: O_2  and  C_3 
REMARK    2  A    between atoms: C_3  and  C_4 
REMARK    3  A    between atoms: C_4  and  N_5 
REMARK       I    between atoms: N_5  and  C_6 
REMARK    4  A    between atoms: C_6  and  C_7 
REMARK    5  A    between atoms: C_12  and  C_13 
REMARK    6  A    between atoms: C_21  and  C_22 
ROOT
HETATM    1  C   UNL     1      40.186 -14.272   0.557  1.00  0.00     0.170 A 
HETATM    2  N   UNL     1      40.927 -15.306   1.028  1.00  0.00    -0.163 NA
HETATM    3  N   UNL     1      40.903 -15.137   2.360  1.00  0.00    -0.238 N 
HETATM    4  C   UNL     1      40.142 -14.080   2.774  1.00  0.00     0.145 A 
HETATM    5  N   UNL     1      39.986 -13.798   4.092  1.00  0.00    -0.365 N 
HETATM    6  C   UNL     1      40.824 -14.422   5.110  1.00  0.00     0.118 C 
HETATM    7  C   UNL     1      41.099 -15.884   4.700  1.00  0.00     0.066 C 
HETATM    8  C   UNL     1      41.601 -16.047   3.251  1.00  0.00     0.221 C 
HETATM    9  C   UNL     1      39.666 -13.491   1.626  1.00  0.00     0.115 A 
HETATM   10 CL   UNL     1      38.682 -12.112   1.532  1.00  0.00    -0.077 Cl
HETATM   11  H   UNL     1      39.521 -12.934   4.375  1.00  0.00     0.162 HD
ENDROOT
BRANCH   1  12
HETATM   12  C   UNL     1      40.018 -14.061  -0.889  1.00  0.00     0.273 C 
HETATM   13  N   UNL     1      40.919 -13.163  -1.420  1.00  0.00    -0.353 N 
HETATM   14  H   UNL     1      41.479 -12.651  -0.743  1.00  0.00     0.162 HD
HETATM   15  O   UNL     1      39.145 -14.602  -1.562  1.00  0.00    -0.266 OA
BRANCH  13  16
HETATM   16  C   UNL     1      40.797 -12.650  -2.770  1.00  0.00     0.149 C 
BRANCH  16  17
HETATM   17  C   UNL     1      40.030 -11.327  -2.822  1.00  0.00     0.186 C 
BRANCH  17  18
HETATM   18  O   UNL     1      38.644 -11.598  -3.064  1.00  0.00    -0.394 OA
HETATM   19  C   UNL     1      37.833 -11.167  -1.978  1.00  0.00     0.201 C 
ENDBRANCH  17  18
ENDBRANCH  16  17
ENDBRANCH  13  16
ENDBRANCH   1  12
BRANCH   8  20
HETATM   20  C   UNL     1      43.099 -15.887   3.104  1.00  0.00     0.409 C 
HETATM   21  F   UNL     1      43.791 -16.197   4.215  1.00  0.00    -0.169 F 
HETATM   22  F   UNL     1      43.556 -16.692   2.109  1.00  0.00    -0.169 F 
HETATM   23  F   UNL     1      43.439 -14.626   2.752  1.00  0.00    -0.169 F 
ENDBRANCH   8  20
BRANCH   6  24
HETATM   24  C   UNL     1      42.059 -13.601   5.455  1.00  0.00    -0.035 A 
HETATM   25  C   UNL     1      42.364 -12.381   4.825  1.00  0.00     0.011 A 
HETATM   26  C   UNL     1      43.508 -11.653   5.170  1.00  0.00     0.024 A 
HETATM   27  C   UNL     1      44.359 -12.132   6.160  1.00  0.00     0.034 A 
HETATM   28 CL   UNL     1      45.769 -11.241   6.581  1.00  0.00    -0.084 Cl
HETATM   29  C   UNL     1      44.071 -13.326   6.813  1.00  0.00     0.024 A 
HETATM   30  C   UNL     1      42.926 -14.051   6.468  1.00  0.00     0.011 A 
ENDBRANCH   6  24
TORSDOF 6
ENDMDL
MODEL 2
REMARK VINA RESULT:      -7.5      3.246      4.711
REMARK  6 active torsions:
REMARK  status: ('A' for Active; 'I' for Inactive)
REMARK    1  A    between atoms: O_2  and  C_3 
REMARK    2  A    between atoms: C_3  and  C_4 
REMARK    3  A    between atoms: C_4  and  N_5 
REMARK       I    between atoms: N_5  and  C_6 
REMARK    4  A    between atoms: C_6  and  C_7 
REMARK    5  A    between atoms: C_12  and  C_13 
REMARK    6  A    between atoms: C_21  and  C_22 
ROOT
HETATM    1  C   UNL     1      40.051 -12.478   3.760  1.00  0.00     0.170 A 
HETATM    2  N   UNL     1      39.889 -13.265   4.854  1.00  0.00    -0.163 NA
HETATM    3  N   UNL     1      41.088 -13.851   5.007  1.00  0.00    -0.238 N 
HETATM    4  C   UNL     1      42.029 -13.442   4.104  1.00  0.00     0.145 A 
HETATM    5  N   UNL     1      43.301 -13.913   4.148  1.00  0.00    -0.365 N 
HETATM    6  C   UNL     1      43.659 -15.063   4.971  1.00  0.00     0.118 C 
HETATM    7  C   UNL     1      42.851 -15.008   6.283  1.00  0.00     0.066 C 
HETATM    8  C   UNL     1      41.337 -14.797   6.081  1.00  0.00     0.221 C 
HETATM    9  C   UNL     1      41.386 -12.554   3.273  1.00  0.00     0.115 A 
HETATM   10 CL   UNL     1      42.061 -11.745   1.943  1.00  0.00    -0.077 Cl
HETATM   11  H   UNL     1      43.949 -13.694   3.391  1.00  0.00     0.162 HD
ENDROOT
BRANCH   1  12
HETATM   12  C   UNL     1      38.928 -11.701   3.217  1.00  0.00     0.273 C 
HETATM   13  N   UNL     1      38.350 -12.277   2.105  1.00  0.00    -0.353 N 
HETATM   14  H   UNL     1      38.852 -13.069   1.711  1.00  0.00     0.162 HD
HETATM   15  O   UNL     1      38.550 -10.628   3.680  1.00  0.00    -0.266 OA
BRANCH  13  16
HETATM   16  C   UNL     1      37.376 -11.580   1.289  1.00  0.00     0.149 C 
BRANCH  16  17
HETATM   17  C   UNL     1      37.883 -11.323  -0.132  1.00  0.00     0.186 C 
BRANCH  17  18
HETATM   18  O   UNL     1      38.968 -12.216  -0.410  1.00  0.00    -0.394 OA
HETATM   19  C   UNL     1      38.654 -13.097  -1.481  1.00  0.00     0.201 C 
ENDBRANCH  17  18
ENDBRANCH  16  17
ENDBRANCH  13  16
ENDBRANCH   1  12
BRANCH   8  20
HETATM   20  C   UNL     1      40.569 -16.079   5.843  1.00  0.00     0.409 C 
HETATM   21  F   UNL     1      40.203 -16.266   4.562  1.00  0.00    -0.169 F 
HETATM   22  F   UNL     1      41.328 -17.148   6.202  1.00  0.00    -0.169 F 
HETATM   23  F   UNL     1      39.448 -16.144   6.599  1.00  0.00    -0.169 F 
ENDBRANCH   8  20
BRANCH   6  24
HETATM   24  C   UNL     1      43.585 -16.384   4.217  1.00  0.00    -0.035 A 
HETATM   25  C   UNL     1      43.021 -16.500   2.933  1.00  0.00     0.011 A 
HETATM   26  C   UNL     1      42.972 -17.730   2.271  1.00  0.00     0.024 A 
HETATM   27  C   UNL     1      43.498 -18.865   2.880  1.00  0.00     0.034 A 
HETATM   28 CL   UNL     1      43.433 -20.381   2.070  1.00  0.00    -0.084 Cl
HETATM   29  C   UNL     1      44.079 -18.776   4.140  1.00  0.00     0.024 A 
HETATM   30  C   UNL     1      44.128 -17.543   4.800  1.00  0.00     0.011 A 
ENDBRANCH   6  24
TORSDOF 6
ENDMDL
MODEL 3
REMARK VINA RESULT:      -7.0      3.937      7.075
REMARK  6 active torsions:
REMARK  status: ('A' for Active; 'I' for Inactive)
REMARK    1  A    between atoms: O_2  and  C_3 
REMARK    2  A    between atoms: C_3  and  C_4 
REMARK    3  A    between atoms: C_4  and  N_5 
REMARK       I    between atoms: N_5  and  C_6 
REMARK    4  A    between atoms: C_6  and  C_7 
REMARK    5  A    between atoms: C_12  and  C_13 
REMARK    6  A    between atoms: C_21  and  C_22 
ROOT
HETATM    1  C   UNL     1      42.256 -15.276   5.641  1.00  0.00     0.170 A 
HETATM    2  N   UNL     1      42.812 -14.087   5.297  1.00  0.00    -0.163 NA
HETATM    3  N   UNL     1      41.821 -13.443   4.658  1.00  0.00    -0.238 N 
HETATM    4  C   UNL     1      40.641 -14.132   4.620  1.00  0.00     0.145 A 
HETATM    5  N   UNL     1      39.533 -13.603   4.042  1.00  0.00    -0.365 N 
HETATM    6  C   UNL     1      39.607 -12.411   3.204  1.00  0.00     0.118 C 
HETATM    7  C   UNL     1      40.656 -11.449   3.799  1.00  0.00     0.066 C 
HETATM    8  C   UNL     1      42.013 -12.112   4.110  1.00  0.00     0.221 C 
HETATM    9  C   UNL     1      40.891 -15.332   5.245  1.00  0.00     0.115 A 
HETATM   10 CL   UNL     1      39.788 -16.604   5.466  1.00  0.00    -0.077 Cl
HETATM   11  H   UNL     1      38.703 -14.182   3.911  1.00  0.00     0.162 HD
ENDROOT
BRANCH   1  12
HETATM   12  C   UNL     1      43.049 -16.313   6.318  1.00  0.00     0.273 C 
HETATM   13  N   UNL     1      43.145 -17.486   5.600  1.00  0.00    -0.353 N 
HETATM   14  H   UNL     1      42.545 -17.548   4.780  1.00  0.00     0.162 HD
HETATM   15  O   UNL     1      43.558 -16.170   7.427  1.00  0.00    -0.266 OA
BRANCH  13  16
HETATM   16  C   UNL     1      43.694 -18.699   6.169  1.00  0.00     0.149 C 
BRANCH  16  17
HETATM   17  C   UNL     1      44.053 -19.733   5.099  1.00  0.00     0.186 C 
BRANCH  17  18
HETATM   18  O   UNL     1      43.898 -19.141   3.804  1.00  0.00    -0.394 OA
HETATM   19  C   UNL     1      43.754 -20.131   2.793  1.00  0.00     0.201 C 
ENDBRANCH  17  18
ENDBRANCH  16  17
ENDBRANCH  13  16
ENDBRANCH   1  12
BRANCH   8  20
HETATM   20  C   UNL     1      42.954 -12.159   2.925  1.00  0.00     0.409 C 
HETATM   21  F   UNL     1      42.933 -13.328   2.259  1.00  0.00    -0.169 F 
HETATM   22  F   UNL     1      42.629 -11.186   2.035  1.00  0.00    -0.169 F 
HETATM   23  F   UNL     1      44.236 -11.924   3.289  1.00  0.00    -0.169 F 
ENDBRANCH   8  20
BRANCH   6  24
HETATM   24  C   UNL     1      39.780 -12.729   1.725  1.00  0.00    -0.035 A 
HETATM   25  C   UNL     1      39.793 -11.737   0.728  1.00  0.00     0.011 A 
HETATM   26  C   UNL     1      39.956 -12.067  -0.621  1.00  0.00     0.024 A 
HETATM   27  C   UNL     1      40.120 -13.397  -0.992  1.00  0.00     0.034 A 
HETATM   28 CL   UNL     1      40.315 -13.807  -2.651  1.00  0.00    -0.084 Cl
HETATM   29  C   UNL     1      40.132 -14.397  -0.025  1.00  0.00     0.024 A 
HETATM   30  C   UNL     1      39.970 -14.064   1.324  1.00  0.00     0.011 A 
ENDBRANCH   6  24
TORSDOF 6
ENDMDL
MODEL 4
REMARK VINA RESULT:      -6.9      4.005      5.701
REMARK  6 active torsions:
REMARK  status: ('A' for Active; 'I' for Inactive)
REMARK    1  A    between atoms: O_2  and  C_3 
REMARK    2  A    between atoms: C_3  and  C_4 
REMARK    3  A    between atoms: C_4  and  N_5 
REMARK       I    between atoms: N_5  and  C_6 
REMARK    4  A    between atoms: C_6  and  C_7 
REMARK    5  A    between atoms: C_12  and  C_13 
REMARK    6  A    between atoms: C_21  and  C_22 
ROOT
HETATM    1  C   UNL     1      40.320 -12.354   4.073  1.00  0.00     0.170 A 
HETATM    2  N   UNL     1      40.038 -13.199   5.097  1.00  0.00    -0.163 NA
HETATM    3  N   UNL     1      41.204 -13.825   5.326  1.00  0.00    -0.238 N 
HETATM    4  C   UNL     1      42.235 -13.390   4.541  1.00  0.00     0.145 A 
HETATM    5  N   UNL     1      43.487 -13.896   4.676  1.00  0.00    -0.365 N 
HETATM    6  C   UNL     1      43.741 -15.102   5.457  1.00  0.00     0.118 C 
HETATM    7  C   UNL     1      42.813 -15.101   6.688  1.00  0.00     0.066 C 
HETATM    8  C   UNL     1      41.330 -14.838   6.359  1.00  0.00     0.221 C 
HETATM    9  C   UNL     1      41.693 -12.437   3.709  1.00  0.00     0.115 A 
HETATM   10 CL   UNL     1      42.509 -11.571   2.499  1.00  0.00    -0.077 Cl
HETATM   11  H   UNL     1      44.209 -13.651   3.997  1.00  0.00     0.162 HD
ENDROOT
BRANCH   1  12
HETATM   12  C   UNL     1      39.270 -11.517   3.475  1.00  0.00     0.273 C 
HETATM   13  N   UNL     1      39.268 -10.221   3.947  1.00  0.00    -0.353 N 
HETATM   14  H   UNL     1      39.877 -10.043   4.743  1.00  0.00     0.162 HD
HETATM   15  O   UNL     1      38.451 -11.926   2.657  1.00  0.00    -0.266 OA
BRANCH  13  16
HETATM   16  C   UNL     1      38.195  -9.292   3.656  1.00  0.00     0.149 C 
BRANCH  16  17
HETATM   17  C   UNL     1      38.095  -8.172   4.694  1.00  0.00     0.186 C 
BRANCH  17  18
HETATM   18  O   UNL     1      38.234  -8.735   6.004  1.00  0.00    -0.394 OA
HETATM   19  C   UNL     1      39.119  -7.965   6.809  1.00  0.00     0.201 C 
ENDBRANCH  17  18
ENDBRANCH  16  17
ENDBRANCH  13  16
ENDBRANCH   1  12
BRANCH   8  20
HETATM   20  C   UNL     1      40.561 -16.084   5.974  1.00  0.00     0.409 C 
HETATM   21  F   UNL     1      40.306 -16.180   4.656  1.00  0.00    -0.169 F 
HETATM   22  F   UNL     1      41.264 -17.191   6.327  1.00  0.00    -0.169 F 
HETATM   23  F   UNL     1      39.377 -16.167   6.623  1.00  0.00    -0.169 F 
ENDBRANCH   8  20
BRANCH   6  24
HETATM   24  C   UNL     1      43.711 -16.374   4.620  1.00  0.00    -0.035 A 
HETATM   25  C   UNL     1      44.129 -17.623   5.115  1.00  0.00     0.011 A 
HETATM   26  C   UNL     1      44.085 -18.770   4.317  1.00  0.00     0.024 A 
HETATM   27  C   UNL     1      43.611 -18.687   3.012  1.00  0.00     0.034 A 
HETATM   28 CL   UNL     1      43.562 -20.096   2.027  1.00  0.00    -0.084 Cl
HETATM   29  C   UNL     1      43.173 -17.469   2.504  1.00  0.00     0.024 A 
HETATM   30  C   UNL     1      43.216 -16.323   3.304  1.00  0.00     0.011 A 
ENDBRANCH   6  24
TORSDOF 6
ENDMDL
MODEL 5
REMARK VINA RESULT:      -6.8      1.274      1.419
REMARK  6 active torsions:
REMARK  status: ('A' for Active; 'I' for Inactive)
REMARK    1  A    between atoms: O_2  and  C_3 
REMARK    2  A    between atoms: C_3  and  C_4 
REMARK    3  A    between atoms: C_4  and  N_5 
REMARK       I    between atoms: N_5  and  C_6 
REMARK    4  A    between atoms: C_6  and  C_7 
REMARK    5  A    between atoms: C_12  and  C_13 
REMARK    6  A    between atoms: C_21  and  C_22 
ROOT
HETATM    1  C   UNL     1      39.740 -13.103   0.504  1.00  0.00     0.170 A 
HETATM    2  N   UNL     1      40.550 -14.184   0.635  1.00  0.00    -0.163 NA
HETATM    3  N   UNL     1      40.623 -14.370   1.963  1.00  0.00    -0.238 N 
HETATM    4  C   UNL     1      39.860 -13.500   2.692  1.00  0.00     0.145 A 
HETATM    5  N   UNL     1      39.796 -13.581   4.045  1.00  0.00    -0.365 N 
HETATM    6  C   UNL     1      40.731 -14.404   4.804  1.00  0.00     0.118 C 
HETATM    7  C   UNL     1      41.023 -15.691   4.005  1.00  0.00     0.066 C 
HETATM    8  C   UNL     1      41.417 -15.443   2.535  1.00  0.00     0.221 C 
HETATM    9  C   UNL     1      39.277 -12.657   1.774  1.00  0.00     0.115 A 
HETATM   10 CL   UNL     1      38.242 -11.356   2.113  1.00  0.00    -0.077 Cl
HETATM   11  H   UNL     1      39.326 -12.847   4.575  1.00  0.00     0.162 HD
ENDROOT
BRANCH   1  12
HETATM   12  C   UNL     1      39.453 -12.531  -0.820  1.00  0.00     0.273 C 
HETATM   13  N   UNL     1      40.014 -11.285  -1.011  1.00  0.00    -0.353 N 
HETATM   14  H   UNL     1      40.419 -10.855  -0.183  1.00  0.00     0.162 HD
HETATM   15  O   UNL     1      38.760 -13.084  -1.669  1.00  0.00    -0.266 OA
BRANCH  13  16
HETATM   16  C   UNL     1      39.683 -10.455  -2.151  1.00  0.00     0.149 C 
BRANCH  16  17
HETATM   17  C   UNL     1      40.779 -10.468  -3.219  1.00  0.00     0.186 C 
BRANCH  17  18
HETATM   18  O   UNL     1      40.805  -9.197  -3.880  1.00  0.00    -0.394 OA
HETATM   19  C   UNL     1      39.567  -8.921  -4.524  1.00  0.00     0.201 C 
ENDBRANCH  17  18
ENDBRANCH  16  17
ENDBRANCH  13  16
ENDBRANCH   1  12
BRANCH   8  20
HETATM   20  C   UNL     1      42.893 -15.171   2.338  1.00  0.00     0.409 C 
HETATM   21  F   UNL     1      43.661 -15.563   3.370  1.00  0.00    -0.169 F 
HETATM   22  F   UNL     1      43.342 -15.822   1.234  1.00  0.00    -0.169 F 
HETATM   23  F   UNL     1      43.140 -13.858   2.125  1.00  0.00    -0.169 F 
ENDBRANCH   8  20
BRANCH   6  24
HETATM   24  C   UNL     1      41.960 -13.637   5.273  1.00  0.00    -0.035 A 
HETATM   25  C   UNL     1      42.308 -12.372   4.767  1.00  0.00     0.011 A 
HETATM   26  C   UNL     1      43.445 -11.697   5.223  1.00  0.00     0.024 A 
HETATM   27  C   UNL     1      44.246 -12.274   6.202  1.00  0.00     0.034 A 
HETATM   28 CL   UNL     1      45.647 -11.448   6.760  1.00  0.00    -0.084 Cl
HETATM   29  C   UNL     1      43.914 -13.516   6.735  1.00  0.00     0.024 A 
HETATM   30  C   UNL     1      42.776 -14.188   6.278  1.00  0.00     0.011 A 
ENDBRANCH   6  24
TORSDOF 6
ENDMDL
MODEL 6
REMARK VINA RESULT:      -6.7      3.881      6.037
REMARK  6 active torsions:
REMARK  status: ('A' for Active; 'I' for Inactive)
REMARK    1  A    between atoms: O_2  and  C_3 
REMARK    2  A    between atoms: C_3  and  C_4 
REMARK    3  A    between atoms: C_4  and  N_5 
REMARK       I    between atoms: N_5  and  C_6 
REMARK    4  A    between atoms: C_6  and  C_7 
REMARK    5  A    between atoms: C_12  and  C_13 
REMARK    6  A    between atoms: C_21  and  C_22 
ROOT
HETATM    1  C   UNL     1      42.098 -15.577   3.172  1.00  0.00     0.170 A 
HETATM    2  N   UNL     1      42.506 -14.987   4.324  1.00  0.00    -0.163 NA
HETATM    3  N   UNL     1      41.499 -14.152   4.630  1.00  0.00    -0.238 N 
HETATM    4  C   UNL     1      40.441 -14.213   3.766  1.00  0.00     0.145 A 
HETATM    5  N   UNL     1      39.330 -13.459   3.958  1.00  0.00    -0.365 N 
HETATM    6  C   UNL     1      39.310 -12.361   4.919  1.00  0.00     0.118 C 
HETATM    7  C   UNL     1      40.146 -12.764   6.151  1.00  0.00     0.066 C 
HETATM    8  C   UNL     1      41.548 -13.308   5.810  1.00  0.00     0.221 C 
HETATM    9  C   UNL     1      40.800 -15.126   2.801  1.00  0.00     0.115 A 
HETATM   10 CL   UNL     1      39.878 -15.585   1.453  1.00  0.00    -0.077 Cl
HETATM   11  H   UNL     1      38.609 -13.424   3.236  1.00  0.00     0.162 HD
ENDROOT
BRANCH   1  12
HETATM   12  C   UNL     1      42.964 -16.533   2.465  1.00  0.00     0.273 C 
HETATM   13  N   UNL     1      43.022 -17.770   3.071  1.00  0.00    -0.353 N 
HETATM   14  H   UNL     1      42.593 -17.829   3.992  1.00  0.00     0.162 HD
HETATM   15  O   UNL     1      43.601 -16.259   1.452  1.00  0.00    -0.266 OA
BRANCH  13  16
HETATM   16  C   UNL     1      43.974 -18.785   2.667  1.00  0.00     0.149 C 
BRANCH  16  17
HETATM   17  C   UNL     1      43.289 -20.058   2.163  1.00  0.00     0.186 C 
BRANCH  17  18
HETATM   18  O   UNL     1      43.898 -21.195   2.786  1.00  0.00    -0.394 OA
HETATM   19  C   UNL     1      43.941 -21.052   4.201  1.00  0.00     0.201 C 
ENDBRANCH  17  18
ENDBRANCH  16  17
ENDBRANCH  13  16
ENDBRANCH   1  12
BRANCH   8  20
HETATM   20  C   UNL     1      42.596 -12.228   5.645  1.00  0.00     0.409 C 
HETATM   21  F   UNL     1      42.322 -11.095   6.316  1.00  0.00    -0.169 F 
HETATM   22  F   UNL     1      43.798 -12.677   6.092  1.00  0.00    -0.169 F 
HETATM   23  F   UNL     1      42.779 -11.896   4.346  1.00  0.00    -0.169 F 
ENDBRANCH   8  20
BRANCH   6  24
HETATM   24  C   UNL     1      39.671 -11.017   4.300  1.00  0.00    -0.035 A 
HETATM   25  C   UNL     1      40.017 -10.870   2.944  1.00  0.00     0.011 A 
HETATM   26  C   UNL     1      40.341  -9.618   2.411  1.00  0.00     0.024 A 
HETATM   27  C   UNL     1      40.313  -8.491   3.225  1.00  0.00     0.034 A 
HETATM   28 CL   UNL     1      40.718  -6.952   2.572  1.00  0.00    -0.084 Cl
HETATM   29  C   UNL     1      39.956  -8.605   4.564  1.00  0.00     0.024 A 
HETATM   30  C   UNL     1      39.631  -9.857   5.095  1.00  0.00     0.011 A 
ENDBRANCH   6  24
TORSDOF 6
ENDMDL
MODEL 7
REMARK VINA RESULT:      -6.7     16.548     19.081
REMARK  6 active torsions:
REMARK  status: ('A' for Active; 'I' for Inactive)
REMARK    1  A    between atoms: O_2  and  C_3 
REMARK    2  A    between atoms: C_3  and  C_4 
REMARK    3  A    between atoms: C_4  and  N_5 
REMARK       I    between atoms: N_5  and  C_6 
REMARK    4  A    between atoms: C_6  and  C_7 
REMARK    5  A    between atoms: C_12  and  C_13 
REMARK    6  A    between atoms: C_21  and  C_22 
ROOT
HETATM    1  C   UNL     1      47.435 -30.595   2.427  1.00  0.00     0.170 A 
HETATM    2  N   UNL     1      48.273 -30.033   1.521  1.00  0.00    -0.163 NA
HETATM    3  N   UNL     1      47.456 -29.321   0.727  1.00  0.00    -0.238 N 
HETATM    4  C   UNL     1      46.143 -29.353   1.107  1.00  0.00     0.145 A 
HETATM    5  N   UNL     1      45.196 -28.656   0.430  1.00  0.00    -0.365 N 
HETATM    6  C   UNL     1      45.471 -28.067  -0.877  1.00  0.00     0.118 C 
HETATM    7  C   UNL     1      46.921 -27.539  -0.888  1.00  0.00     0.066 C 
HETATM    8  C   UNL     1      47.967 -28.561  -0.400  1.00  0.00     0.221 C 
HETATM    9  C   UNL     1      46.093 -30.179   2.206  1.00  0.00     0.115 A 
HETATM   10 CL   UNL     1      44.706 -30.608   3.084  1.00  0.00    -0.077 Cl
HETATM   11  H   UNL     1      44.209 -28.794   0.650  1.00  0.00     0.162 HD
ENDROOT
BRANCH   1  12
HETATM   12  C   UNL     1      47.943 -31.516   3.455  1.00  0.00     0.273 C 
HETATM   13  N   UNL     1      48.939 -30.970   4.236  1.00  0.00    -0.353 N 
HETATM   14  H   UNL     1      49.302 -30.073   3.920  1.00  0.00     0.162 HD
HETATM   15  O   UNL     1      47.548 -32.671   3.595  1.00  0.00    -0.266 OA
BRANCH  13  16
HETATM   16  C   UNL     1      49.723 -31.764   5.160  1.00  0.00     0.149 C 
BRANCH  16  17
HETATM   17  C   UNL     1      51.211 -31.776   4.801  1.00  0.00     0.186 C 
BRANCH  17  18
HETATM   18  O   UNL     1      51.904 -30.854   5.650  1.00  0.00    -0.394 OA
HETATM   19  C   UNL     1      52.638 -31.532   6.663  1.00  0.00     0.201 C 
ENDBRANCH  17  18
ENDBRANCH  16  17
ENDBRANCH  13  16
ENDBRANCH   1  12
BRANCH   8  20
HETATM   20  C   UNL     1      48.461 -29.493  -1.485  1.00  0.00     0.409 C 
HETATM   21  F   UNL     1      47.819 -30.674  -1.523  1.00  0.00    -0.169 F 
HETATM   22  F   UNL     1      48.304 -28.912  -2.703  1.00  0.00    -0.169 F 
HETATM   23  F   UNL     1      49.783 -29.754  -1.362  1.00  0.00    -0.169 F 
ENDBRANCH   8  20
BRANCH   6  24
HETATM   24  C   UNL     1      45.104 -28.983  -2.036  1.00  0.00    -0.035 A 
HETATM   25  C   UNL     1      44.579 -30.275  -1.851  1.00  0.00     0.011 A 
HETATM   26  C   UNL     1      44.252 -31.088  -2.941  1.00  0.00     0.024 A 
HETATM   27  C   UNL     1      44.435 -30.615  -4.235  1.00  0.00     0.034 A 
HETATM   28 CL   UNL     1      44.039 -31.615  -5.577  1.00  0.00    -0.084 Cl
HETATM   29  C   UNL     1      44.934 -29.333  -4.448  1.00  0.00     0.024 A 
HETATM   30  C   UNL     1      45.259 -28.522  -3.356  1.00  0.00     0.011 A 
ENDBRANCH   6  24
TORSDOF 6
ENDMDL
MODEL 8
REMARK VINA RESULT:      -6.6      4.534      7.116
REMARK  6 active torsions:
REMARK  status: ('A' for Active; 'I' for Inactive)
REMARK    1  A    between atoms: O_2  and  C_3 
REMARK    2  A    between atoms: C_3  and  C_4 
REMARK    3  A    between atoms: C_4  and  N_5 
REMARK       I    between atoms: N_5  and  C_6 
REMARK    4  A    between atoms: C_6  and  C_7 
REMARK    5  A    between atoms: C_12  and  C_13 
REMARK    6  A    between atoms: C_21  and  C_22 
ROOT
HETATM    1  C   UNL     1      43.076 -14.999   5.967  1.00  0.00     0.170 A 
HETATM    2  N   UNL     1      43.572 -13.770   5.676  1.00  0.00    -0.163 NA
HETATM    3  N   UNL     1      42.506 -12.960   5.785  1.00  0.00    -0.238 N 
HETATM    4  C   UNL     1      41.362 -13.595   6.183  1.00  0.00     0.145 A 
HETATM    5  N   UNL     1      40.206 -12.910   6.376  1.00  0.00    -0.365 N 
HETATM    6  C   UNL     1      40.050 -11.534   5.914  1.00  0.00     0.118 C 
HETATM    7  C   UNL     1      41.386 -10.789   6.108  1.00  0.00     0.066 C 
HETATM    8  C   UNL     1      42.610 -11.534   5.538  1.00  0.00     0.221 C 
HETATM    9  C   UNL     1      41.696 -14.924   6.304  1.00  0.00     0.115 A 
HETATM   10 CL   UNL     1      40.656 -16.190   6.746  1.00  0.00    -0.077 Cl
HETATM   11  H   UNL     1      39.338 -13.417   6.548  1.00  0.00     0.162 HD
ENDROOT
BRANCH   1  12
HETATM   12  C   UNL     1      43.930 -16.194   5.897  1.00  0.00     0.273 C 
HETATM   13  N   UNL     1      43.541 -17.090   4.924  1.00  0.00    -0.353 N 
HETATM   14  H   UNL     1      42.643 -16.898   4.484  1.00  0.00     0.162 HD
HETATM   15  O   UNL     1      44.882 -16.399   6.645  1.00  0.00    -0.266 OA
BRANCH  13  16
HETATM   16  C   UNL     1      44.106 -18.420   4.825  1.00  0.00     0.149 C 
BRANCH  16  17
HETATM   17  C   UNL     1      43.977 -19.005   3.417  1.00  0.00     0.186 C 
BRANCH  17  18
HETATM   18  O   UNL     1      43.870 -20.430   3.510  1.00  0.00    -0.394 OA
HETATM   19  C   UNL     1      44.043 -20.878   4.849  1.00  0.00     0.201 C 
ENDBRANCH  17  18
ENDBRANCH  16  17
ENDBRANCH  13  16
ENDBRANCH   1  12
BRANCH   8  20
HETATM   20  C   UNL     1      42.854 -11.268   4.067  1.00  0.00     0.409 C 
HETATM   21  F   UNL     1      42.291 -12.176   3.250  1.00  0.00    -0.169 F 
HETATM   22  F   UNL     1      42.349 -10.054   3.725  1.00  0.00    -0.169 F 
HETATM   23  F   UNL     1      44.174 -11.223   3.774  1.00  0.00    -0.169 F 
ENDBRANCH   8  20
BRANCH   6  24
HETATM   24  C   UNL     1      39.447 -11.437   4.519  1.00  0.00    -0.035 A 
HETATM   25  C   UNL     1      39.032 -10.219   3.950  1.00  0.00     0.011 A 
HETATM   26  C   UNL     1      38.485 -10.169   2.665  1.00  0.00     0.024 A 
HETATM   27  C   UNL     1      38.353 -11.337   1.923  1.00  0.00     0.034 A 
HETATM   28 CL   UNL     1      37.674 -11.279   0.344  1.00  0.00    -0.084 Cl
HETATM   29  C   UNL     1      38.774 -12.553   2.453  1.00  0.00     0.024 A 
HETATM   30  C   UNL     1      39.322 -12.601   3.738  1.00  0.00     0.011 A 
ENDBRANCH   6  24
TORSDOF 6
ENDMDL
MODEL 9
REMARK VINA RESULT:      -6.5      9.476     11.670
REMARK  6 active torsions:
REMARK  status: ('A' for Active; 'I' for Inactive)
REMARK    1  A    between atoms: O_2  and  C_3 
REMARK    2  A    between atoms: C_3  and  C_4 
REMARK    3  A    between atoms: C_4  and  N_5 
REMARK       I    between atoms: N_5  and  C_6 
REMARK    4  A    between atoms: C_6  and  C_7 
REMARK    5  A    between atoms: C_12  and  C_13 
REMARK    6  A    between atoms: C_21  and  C_22 
ROOT
HETATM    1  C   UNL     1      43.509  -8.908  10.011  1.00  0.00     0.170 A 
HETATM    2  N   UNL     1      43.822  -8.753  11.322  1.00  0.00    -0.163 NA
HETATM    3  N   UNL     1      42.629  -8.764  11.940  1.00  0.00    -0.238 N 
HETATM    4  C   UNL     1      41.569  -8.970  11.102  1.00  0.00     0.145 A 
HETATM    5  N   UNL     1      40.300  -9.045  11.575  1.00  0.00    -0.365 N 
HETATM    6  C   UNL     1      39.970  -8.642  12.939  1.00  0.00     0.118 C 
HETATM    7  C   UNL     1      41.128  -9.053  13.872  1.00  0.00     0.066 C 
HETATM    8  C   UNL     1      42.521  -8.611  13.379  1.00  0.00     0.221 C 
HETATM    9  C   UNL     1      42.106  -9.062   9.838  1.00  0.00     0.115 A 
HETATM   10 CL   UNL     1      41.248  -9.291   8.391  1.00  0.00    -0.077 Cl
HETATM   11  H   UNL     1      39.515  -9.071  10.923  1.00  0.00     0.162 HD
ENDROOT
BRANCH   1  12
HETATM   12  C   UNL     1      44.555  -8.887   8.978  1.00  0.00     0.273 C 
HETATM   13  N   UNL     1      44.943 -10.145   8.566  1.00  0.00    -0.353 N 
HETATM   14  H   UNL     1      44.581 -10.918   9.118  1.00  0.00     0.162 HD
HETATM   15  O   UNL     1      45.063  -7.859   8.538  1.00  0.00    -0.266 OA
BRANCH  13  16
HETATM   16  C   UNL     1      46.099 -10.360   7.720  1.00  0.00     0.149 C 
BRANCH  16  17
HETATM   17  C   UNL     1      45.778 -11.232   6.504  1.00  0.00     0.186 C 
BRANCH  17  18
HETATM   18  O   UNL     1      44.871 -12.269   6.898  1.00  0.00    -0.394 OA
HETATM   19  C   UNL     1      43.819 -12.426   5.954  1.00  0.00     0.201 C 
ENDBRANCH  17  18
ENDBRANCH  16  17
ENDBRANCH  13  16
ENDBRANCH   1  12
BRANCH   8  20
HETATM   20  C   UNL     1      42.894  -7.204  13.792  1.00  0.00     0.409 C 
HETATM   21  F   UNL     1      42.559  -6.265  12.888  1.00  0.00    -0.169 F 
HETATM   22  F   UNL     1      42.271  -6.880  14.955  1.00  0.00    -0.169 F 
HETATM   23  F   UNL     1      44.220  -7.082  14.029  1.00  0.00    -0.169 F 
ENDBRANCH   8  20
BRANCH   6  24
HETATM   24  C   UNL     1      39.536  -7.187  13.044  1.00  0.00    -0.035 A 
HETATM   25  C   UNL     1      39.419  -6.342  11.926  1.00  0.00     0.011 A 
HETATM   26  C   UNL     1      39.015  -5.010  12.062  1.00  0.00     0.024 A 
HETATM   27  C   UNL     1      38.711  -4.505  13.322  1.00  0.00     0.034 A 
HETATM   28 CL   UNL     1      38.220  -2.866  13.493  1.00  0.00    -0.084 Cl
HETATM   29  C   UNL     1      38.798  -5.324  14.443  1.00  0.00     0.024 A 
HETATM   30  C   UNL     1      39.201  -6.656  14.304  1.00  0.00     0.011 A 
ENDBRANCH   6  24
TORSDOF 6
ENDMDL
MODEL 10
REMARK VINA RESULT:      -6.4      5.688      8.222
REMARK  6 active torsions:
REMARK  status: ('A' for Active; 'I' for Inactive)
REMARK    1  A    between atoms: O_2  and  C_3 
REMARK    2  A    between atoms: C_3  and  C_4 
REMARK    3  A    between atoms: C_4  and  N_5 
REMARK       I    between atoms: N_5  and  C_6 
REMARK    4  A    between atoms: C_6  and  C_7 
REMARK    5  A    between atoms: C_12  and  C_13 
REMARK    6  A    between atoms: C_21  and  C_22 
ROOT
HETATM    1  C   UNL     1      40.651 -10.076   7.492  1.00  0.00     0.170 A 
HETATM    2  N   UNL     1      42.002 -10.116   7.369  1.00  0.00    -0.163 NA
HETATM    3  N   UNL     1      42.207 -10.975   6.357  1.00  0.00    -0.238 N 
HETATM    4  C   UNL     1      41.058 -11.448   5.786  1.00  0.00     0.145 A 
HETATM    5  N   UNL     1      41.094 -12.297   4.728  1.00  0.00    -0.365 N 
HETATM    6  C   UNL     1      42.331 -12.956   4.321  1.00  0.00     0.118 C 
HETATM    7  C   UNL     1      43.504 -11.974   4.516  1.00  0.00     0.066 C 
HETATM    8  C   UNL     1      43.546 -11.310   5.907  1.00  0.00     0.221 C 
HETATM    9  C   UNL     1      40.027 -10.889   6.505  1.00  0.00     0.115 A 
HETATM   10 CL   UNL     1      38.368 -11.145   6.258  1.00  0.00    -0.077 Cl
HETATM   11  H   UNL     1      40.233 -12.736   4.400  1.00  0.00     0.162 HD
ENDROOT
BRANCH   1  12
HETATM   12  C   UNL     1      40.013  -9.280   8.551  1.00  0.00     0.273 C 
HETATM   13  N   UNL     1      40.512  -9.543   9.810  1.00  0.00    -0.353 N 
HETATM   14  H   UNL     1      41.137 -10.343   9.875  1.00  0.00     0.162 HD
HETATM   15  O   UNL     1      39.104  -8.479   8.351  1.00  0.00    -0.266 OA
BRANCH  13  16
HETATM   16  C   UNL     1      39.886  -9.033  11.012  1.00  0.00     0.149 C 
BRANCH  16  17
HETATM   17  C   UNL     1      40.899  -8.760  12.126  1.00  0.00     0.186 C 
BRANCH  17  18
HETATM   18  O   UNL     1      40.453  -9.395  13.330  1.00  0.00    -0.394 OA
HETATM   19  C   UNL     1      39.674 -10.552  13.050  1.00  0.00     0.201 C 
ENDBRANCH  17  18
ENDBRANCH  16  17
ENDBRANCH  13  16
ENDBRANCH   1  12
BRANCH   8  20
HETATM   20  C   UNL     1      44.264 -12.134   6.954  1.00  0.00     0.409 C 
HETATM   21  F   UNL     1      43.441 -12.835   7.754  1.00  0.00    -0.169 F 
HETATM   22  F   UNL     1      45.093 -13.027   6.353  1.00  0.00    -0.169 F 
HETATM   23  F   UNL     1      45.048 -11.369   7.748  1.00  0.00    -0.169 F 
ENDBRANCH   8  20
BRANCH   6  24
HETATM   24  C   UNL     1      42.516 -14.326   4.959  1.00  0.00    -0.035 A 
HETATM   25  C   UNL     1      41.771 -14.757   6.071  1.00  0.00     0.011 A 
HETATM   26  C   UNL     1      41.969 -16.024   6.628  1.00  0.00     0.024 A 
HETATM   27  C   UNL     1      42.911 -16.884   6.074  1.00  0.00     0.034 A 
HETATM   28 CL   UNL     1      43.160 -18.441   6.763  1.00  0.00    -0.084 Cl
HETATM   29  C   UNL     1      43.648 -16.491   4.962  1.00  0.00     0.024 A 
HETATM   30  C   UNL     1      43.447 -15.224   4.405  1.00  0.00     0.011 A 
ENDBRANCH   6  24
TORSDOF 6
ENDMDL
