MODEL 1
REMARK VINA RESULT:      -7.8      0.000      0.000
REMARK  5 active torsions:
REMARK  status: ('A' for Active; 'I' for Inactive)
REMARK    1  A    between atoms: C_8  and  N_9 
REMARK       I    between atoms: N_9  and  C_10 
REMARK       I    between atoms: C_10  and  N_11 
REMARK    2  A    between atoms: N_11  and  C_12 
REMARK    3  A    between atoms: C_13  and  O_14 
REMARK    4  A    between atoms: O_14  and  C_15 
REMARK    5  A    between atoms: C_15  and  C_16 
ROOT
HETATM    1  N   UNL     1      41.211 -14.031   0.694  1.00  0.00    -0.305 N 
HETATM    2  C   UNL     1      41.268 -15.251   1.340  1.00  0.00     0.325 C 
HETATM    3  N   UNL     1      42.576 -15.551   1.677  1.00  0.00    -0.306 N 
HETATM    4  O   UNL     1      40.307 -15.966   1.588  1.00  0.00    -0.247 OA
HETATM    5  H   UNL     1      41.973 -13.395   0.878  1.00  0.00     0.171 HD
HETATM    6  H   UNL     1      43.298 -15.047   1.178  1.00  0.00     0.171 HD
ENDROOT
BRANCH   3   7
HETATM    7  C   UNL     1      43.042 -16.632   2.459  1.00  0.00     0.071 A 
HETATM    8  C   UNL     1      43.312 -16.374   3.816  1.00  0.00     0.096 A 
HETATM    9  C   UNL     1      43.729 -17.395   4.672  1.00  0.00     0.041 A 
HETATM   10  C   UNL     1      43.912 -18.682   4.167  1.00  0.00     0.026 A 
HETATM   11  C   UNL     1      43.664 -18.939   2.819  1.00  0.00     0.036 A 
HETATM   12 CL   UNL     1      43.885 -20.535   2.210  1.00  0.00    -0.084 Cl
HETATM   13  C   UNL     1      43.227 -17.925   1.964  1.00  0.00     0.056 A 
BRANCH   8  14
HETATM   14  O   UNL     1      43.100 -15.096   4.276  1.00  0.00    -0.340 OA
BRANCH  14  15
HETATM   15  C   UNL     1      42.400 -15.080   5.535  1.00  0.00     0.293 C 
BRANCH  15  16
HETATM   16  C   UNL     1      40.900 -15.062   5.293  1.00  0.00     0.408 C 
HETATM   17  F   UNL     1      40.445 -16.288   4.946  1.00  0.00    -0.169 F 
HETATM   18  F   UNL     1      40.222 -14.666   6.393  1.00  0.00    -0.169 F 
HETATM   19  F   UNL     1      40.587 -14.210   4.292  1.00  0.00    -0.169 F 
ENDBRANCH  15  16
ENDBRANCH  14  15
ENDBRANCH   8  14
ENDBRANCH   3   7
BRANCH   1  20
HETATM   20  C   UNL     1      40.103 -13.479   0.073  1.00  0.00     0.086 A 
HETATM   21  C   UNL     1      39.223 -12.650   0.744  1.00  0.00     0.052 A 
HETATM   22  C   UNL     1      39.171 -12.167   2.143  1.00  0.00     0.072 C 
HETATM   23  N   UNL     1      38.272 -12.297  -0.171  1.00  0.00    -0.280 N 
HETATM   24  H   UNL     1      37.460 -11.707  -0.034  1.00  0.00     0.189 HD
HETATM   25  N   UNL     1      38.478 -12.806  -1.388  1.00  0.00    -0.177 NA
HETATM   26  C   UNL     1      39.601 -13.530  -1.261  1.00  0.00     0.079 A 
HETATM   27  C   UNL     1      40.147 -14.196  -2.471  1.00  0.00     0.075 C 
ENDBRANCH   1  20
TORSDOF 5
ENDMDL
MODEL 2
REMARK VINA RESULT:      -7.6      1.786      2.583
REMARK  5 active torsions:
REMARK  status: ('A' for Active; 'I' for Inactive)
REMARK    1  A    between atoms: C_8  and  N_9 
REMARK       I    between atoms: N_9  and  C_10 
REMARK       I    between atoms: C_10  and  N_11 
REMARK    2  A    between atoms: N_11  and  C_12 
REMARK    3  A    between atoms: C_13  and  O_14 
REMARK    4  A    between atoms: O_14  and  C_15 
REMARK    5  A    between atoms: C_15  and  C_16 
ROOT
HETATM    1  N   UNL     1      41.370 -13.919   1.786  1.00  0.00    -0.305 N 
HETATM    2  C   UNL     1      42.426 -14.745   2.123  1.00  0.00     0.325 C 
HETATM    3  N   UNL     1      41.958 -15.883   2.756  1.00  0.00    -0.306 N 
HETATM    4  O   UNL     1      43.605 -14.516   1.893  1.00  0.00    -0.247 OA
HETATM    5  H   UNL     1      40.471 -14.366   1.689  1.00  0.00     0.171 HD
HETATM    6  H   UNL     1      41.024 -15.832   3.145  1.00  0.00     0.171 HD
ENDROOT
BRANCH   3   7
HETATM    7  C   UNL     1      42.694 -17.028   3.136  1.00  0.00     0.071 A 
HETATM    8  C   UNL     1      43.171 -17.076   4.459  1.00  0.00     0.096 A 
HETATM    9  C   UNL     1      43.866 -18.191   4.932  1.00  0.00     0.041 A 
HETATM   10  C   UNL     1      44.119 -19.258   4.070  1.00  0.00     0.026 A 
HETATM   11  C   UNL     1      43.665 -19.207   2.752  1.00  0.00     0.036 A 
HETATM   12 CL   UNL     1      43.976 -20.535   1.701  1.00  0.00    -0.084 Cl
HETATM   13  C   UNL     1      42.952 -18.102   2.282  1.00  0.00     0.056 A 
BRANCH   8  14
HETATM   14  O   UNL     1      42.883 -16.011   5.279  1.00  0.00    -0.340 OA
BRANCH  14  15
HETATM   15  C   UNL     1      41.985 -16.374   6.347  1.00  0.00     0.293 C 
BRANCH  15  16
HETATM   16  C   UNL     1      40.576 -15.911   6.017  1.00  0.00     0.408 C 
HETATM   17  F   UNL     1      39.806 -15.853   7.128  1.00  0.00    -0.169 F 
HETATM   18  F   UNL     1      40.574 -14.684   5.450  1.00  0.00    -0.169 F 
HETATM   19  F   UNL     1      39.982 -16.762   5.152  1.00  0.00    -0.169 F 
ENDBRANCH  15  16
ENDBRANCH  14  15
ENDBRANCH   8  14
ENDBRANCH   3   7
BRANCH   1  20
HETATM   20  C   UNL     1      41.460 -12.631   1.286  1.00  0.00     0.086 A 
HETATM   21  C   UNL     1      40.949 -12.287   0.049  1.00  0.00     0.052 A 
HETATM   22  C   UNL     1      40.260 -13.069  -1.004  1.00  0.00     0.072 C 
HETATM   23  N   UNL     1      41.211 -10.956  -0.106  1.00  0.00    -0.280 N 
HETATM   24  H   UNL     1      40.992 -10.361  -0.898  1.00  0.00     0.189 HD
HETATM   25  N   UNL     1      41.824 -10.400   0.942  1.00  0.00    -0.177 NA
HETATM   26  C   UNL     1      41.981 -11.411   1.810  1.00  0.00     0.079 A 
HETATM   27  C   UNL     1      42.593 -11.114   3.131  1.00  0.00     0.075 C 
ENDBRANCH   1  20
TORSDOF 5
ENDMDL
MODEL 3
REMARK VINA RESULT:      -7.4      0.629      1.920
REMARK  5 active torsions:
REMARK  status: ('A' for Active; 'I' for Inactive)
REMARK    1  A    between atoms: C_8  and  N_9 
REMARK       I    between atoms: N_9  and  C_10 
REMARK       I    between atoms: C_10  and  N_11 
REMARK    2  A    between atoms: N_11  and  C_12 
REMARK    3  A    between atoms: C_13  and  O_14 
REMARK    4  A    between atoms: O_14  and  C_15 
REMARK    5  A    between atoms: C_15  and  C_16 
ROOT
HETATM    1  N   UNL     1      41.072 -13.654   0.329  1.00  0.00    -0.305 N 
HETATM    2  C   UNL     1      41.107 -14.796   1.108  1.00  0.00     0.325 C 
HETATM    3  N   UNL     1      42.418 -15.176   1.336  1.00  0.00    -0.306 N 
HETATM    4  O   UNL     1      40.129 -15.386   1.544  1.00  0.00    -0.247 OA
HETATM    5  H   UNL     1      41.898 -13.076   0.352  1.00  0.00     0.171 HD
HETATM    6  H   UNL     1      43.114 -14.800   0.704  1.00  0.00     0.171 HD
ENDROOT
BRANCH   3   7
HETATM    7  C   UNL     1      42.886 -16.203   2.188  1.00  0.00     0.071 A 
HETATM    8  C   UNL     1      43.214 -15.841   3.508  1.00  0.00     0.096 A 
HETATM    9  C   UNL     1      43.637 -16.801   4.430  1.00  0.00     0.041 A 
HETATM   10  C   UNL     1      43.767 -18.129   4.027  1.00  0.00     0.026 A 
HETATM   11  C   UNL     1      43.462 -18.489   2.715  1.00  0.00     0.036 A 
HETATM   12 CL   UNL     1      43.617 -20.135   2.233  1.00  0.00    -0.084 Cl
HETATM   13  C   UNL     1      43.018 -17.536   1.795  1.00  0.00     0.056 A 
BRANCH   8  14
HETATM   14  O   UNL     1      43.053 -14.525   3.867  1.00  0.00    -0.340 OA
BRANCH  14  15
HETATM   15  C   UNL     1      42.480 -14.385   5.182  1.00  0.00     0.293 C 
BRANCH  15  16
HETATM   16  C   UNL     1      40.967 -14.280   5.078  1.00  0.00     0.408 C 
HETATM   17  F   UNL     1      40.601 -13.469   4.060  1.00  0.00    -0.169 F 
HETATM   18  F   UNL     1      40.397 -15.487   4.870  1.00  0.00    -0.169 F 
HETATM   19  F   UNL     1      40.444 -13.772   6.216  1.00  0.00    -0.169 F 
ENDBRANCH  15  16
ENDBRANCH  14  15
ENDBRANCH   8  14
ENDBRANCH   3   7
BRANCH   1  20
HETATM   20  C   UNL     1      39.945 -13.074  -0.230  1.00  0.00     0.086 A 
HETATM   21  C   UNL     1      39.594 -13.279  -1.551  1.00  0.00     0.052 A 
HETATM   22  C   UNL     1      40.224 -14.052  -2.647  1.00  0.00     0.072 C 
HETATM   23  N   UNL     1      38.445 -12.568  -1.747  1.00  0.00    -0.280 N 
HETATM   24  H   UNL     1      37.904 -12.472  -2.598  1.00  0.00     0.189 HD
HETATM   25  N   UNL     1      38.004 -11.942  -0.652  1.00  0.00    -0.177 NA
HETATM   26  C   UNL     1      38.909 -12.245   0.292  1.00  0.00     0.079 A 
HETATM   27  C   UNL     1      38.680 -11.742   1.670  1.00  0.00     0.075 C 
ENDBRANCH   1  20
TORSDOF 5
ENDMDL
MODEL 4
REMARK VINA RESULT:      -7.2      2.926      6.406
REMARK  5 active torsions:
REMARK  status: ('A' for Active; 'I' for Inactive)
REMARK    1  A    between atoms: C_8  and  N_9 
REMARK       I    between atoms: N_9  and  C_10 
REMARK       I    between atoms: C_10  and  N_11 
REMARK    2  A    between atoms: N_11  and  C_12 
REMARK    3  A    between atoms: C_13  and  O_14 
REMARK    4  A    between atoms: O_14  and  C_15 
REMARK    5  A    between atoms: C_15  and  C_16 
ROOT
HETATM    1  N   UNL     1      43.442 -17.250   2.362  1.00  0.00    -0.305 N 
HETATM    2  C   UNL     1      42.342 -16.412   2.351  1.00  0.00     0.325 C 
HETATM    3  N   UNL     1      42.516 -15.411   1.412  1.00  0.00    -0.306 N 
HETATM    4  O   UNL     1      41.352 -16.534   3.058  1.00  0.00    -0.247 OA
HETATM    5  H   UNL     1      43.992 -17.271   1.517  1.00  0.00     0.171 HD
HETATM    6  H   UNL     1      43.465 -15.239   1.104  1.00  0.00     0.171 HD
ENDROOT
BRANCH   3   7
HETATM    7  C   UNL     1      41.575 -14.440   0.997  1.00  0.00     0.071 A 
HETATM    8  C   UNL     1      41.627 -13.184   1.630  1.00  0.00     0.096 A 
HETATM    9  C   UNL     1      40.768 -12.152   1.248  1.00  0.00     0.041 A 
HETATM   10  C   UNL     1      39.823 -12.380   0.248  1.00  0.00     0.026 A 
HETATM   11  C   UNL     1      39.755 -13.629  -0.368  1.00  0.00     0.036 A 
HETATM   12 CL   UNL     1      38.590 -13.895  -1.609  1.00  0.00    -0.084 Cl
HETATM   13  C   UNL     1      40.627 -14.658  -0.004  1.00  0.00     0.056 A 
BRANCH   8  14
HETATM   14  O   UNL     1      42.586 -12.997   2.597  1.00  0.00    -0.340 OA
BRANCH  14  15
HETATM   15  C   UNL     1      42.060 -12.332   3.763  1.00  0.00     0.293 C 
BRANCH  15  16
HETATM   16  C   UNL     1      41.760 -13.352   4.849  1.00  0.00     0.408 C 
HETATM   17  F   UNL     1      41.727 -12.772   6.071  1.00  0.00    -0.169 F 
HETATM   18  F   UNL     1      40.570 -13.959   4.648  1.00  0.00    -0.169 F 
HETATM   19  F   UNL     1      42.709 -14.314   4.878  1.00  0.00    -0.169 F 
ENDBRANCH  15  16
ENDBRANCH  14  15
ENDBRANCH   8  14
ENDBRANCH   3   7
BRANCH   1  20
HETATM   20  C   UNL     1      43.696 -18.262   3.273  1.00  0.00     0.086 A 
HETATM   21  C   UNL     1      43.678 -19.596   2.910  1.00  0.00     0.052 A 
HETATM   22  C   UNL     1      43.400 -20.281   1.626  1.00  0.00     0.072 C 
HETATM   23  N   UNL     1      43.973 -20.295   4.045  1.00  0.00    -0.280 N 
HETATM   24  H   UNL     1      44.037 -21.300   4.164  1.00  0.00     0.189 HD
HETATM   25  N   UNL     1      44.211 -19.523   5.109  1.00  0.00    -0.177 NA
HETATM   26  C   UNL     1      44.051 -18.271   4.654  1.00  0.00     0.079 A 
HETATM   27  C   UNL     1      44.303 -17.147   5.591  1.00  0.00     0.075 C 
ENDBRANCH   1  20
TORSDOF 5
ENDMDL
MODEL 5
REMARK VINA RESULT:      -7.1      3.047      6.347
REMARK  5 active torsions:
REMARK  status: ('A' for Active; 'I' for Inactive)
REMARK    1  A    between atoms: C_8  and  N_9 
REMARK       I    between atoms: N_9  and  C_10 
REMARK       I    between atoms: C_10  and  N_11 
REMARK    2  A    between atoms: N_11  and  C_12 
REMARK    3  A    between atoms: C_13  and  O_14 
REMARK    4  A    between atoms: O_14  and  C_15 
REMARK    5  A    between atoms: C_15  and  C_16 
ROOT
HETATM    1  N   UNL     1      41.930 -16.401   3.271  1.00  0.00    -0.305 N 
HETATM    2  C   UNL     1      41.855 -15.809   2.024  1.00  0.00     0.325 C 
HETATM    3  N   UNL     1      40.597 -15.270   1.827  1.00  0.00    -0.306 N 
HETATM    4  O   UNL     1      42.766 -15.759   1.209  1.00  0.00    -0.247 OA
HETATM    5  H   UNL     1      41.278 -16.063   3.962  1.00  0.00     0.171 HD
HETATM    6  H   UNL     1      39.857 -15.616   2.425  1.00  0.00     0.171 HD
ENDROOT
BRANCH   3   7
HETATM    7  C   UNL     1      40.158 -14.468   0.749  1.00  0.00     0.071 A 
HETATM    8  C   UNL     1      40.196 -13.073   0.928  1.00  0.00     0.096 A 
HETATM    9  C   UNL     1      39.827 -12.206  -0.103  1.00  0.00     0.041 A 
HETATM   10  C   UNL     1      39.382 -12.733  -1.316  1.00  0.00     0.026 A 
HETATM   11  C   UNL     1      39.324 -14.115  -1.491  1.00  0.00     0.036 A 
HETATM   12 CL   UNL     1      38.782 -14.752  -2.997  1.00  0.00    -0.084 Cl
HETATM   13  C   UNL     1      39.712 -14.985  -0.470  1.00  0.00     0.056 A 
BRANCH   8  14
HETATM   14  O   UNL     1      40.659 -12.597   2.131  1.00  0.00    -0.340 OA
BRANCH  14  15
HETATM   15  C   UNL     1      41.916 -11.905   1.996  1.00  0.00     0.293 C 
BRANCH  15  16
HETATM   16  C   UNL     1      42.881 -12.369   3.074  1.00  0.00     0.408 C 
HETATM   17  F   UNL     1      43.492 -11.320   3.671  1.00  0.00    -0.169 F 
HETATM   18  F   UNL     1      42.251 -13.081   4.034  1.00  0.00    -0.169 F 
HETATM   19  F   UNL     1      43.844 -13.158   2.547  1.00  0.00    -0.169 F 
ENDBRANCH  15  16
ENDBRANCH  14  15
ENDBRANCH   8  14
ENDBRANCH   3   7
BRANCH   1  20
HETATM   20  C   UNL     1      42.972 -17.175   3.754  1.00  0.00     0.086 A 
HETATM   21  C   UNL     1      43.670 -16.834   4.897  1.00  0.00     0.052 A 
HETATM   22  C   UNL     1      43.566 -15.689   5.830  1.00  0.00     0.072 C 
HETATM   23  N   UNL     1      44.605 -17.814   5.069  1.00  0.00    -0.280 N 
HETATM   24  H   UNL     1      45.306 -17.892   5.797  1.00  0.00     0.189 HD
HETATM   25  N   UNL     1      44.552 -18.780   4.147  1.00  0.00    -0.177 NA
HETATM   26  C   UNL     1      43.552 -18.409   3.334  1.00  0.00     0.079 A 
HETATM   27  C   UNL     1      43.187 -19.312   2.213  1.00  0.00     0.075 C 
ENDBRANCH   1  20
TORSDOF 5
ENDMDL
MODEL 6
REMARK VINA RESULT:      -7.1      2.908      6.197
REMARK  5 active torsions:
REMARK  status: ('A' for Active; 'I' for Inactive)
REMARK    1  A    between atoms: C_8  and  N_9 
REMARK       I    between atoms: N_9  and  C_10 
REMARK       I    between atoms: C_10  and  N_11 
REMARK    2  A    between atoms: N_11  and  C_12 
REMARK    3  A    between atoms: C_13  and  O_14 
REMARK    4  A    between atoms: O_14  and  C_15 
REMARK    5  A    between atoms: C_15  and  C_16 
ROOT
HETATM    1  N   UNL     1      43.658 -17.117   2.706  1.00  0.00    -0.305 N 
HETATM    2  C   UNL     1      42.463 -16.466   2.468  1.00  0.00     0.325 C 
HETATM    3  N   UNL     1      42.698 -15.243   1.866  1.00  0.00    -0.306 N 
HETATM    4  O   UNL     1      41.353 -16.902   2.739  1.00  0.00    -0.247 OA
HETATM    5  H   UNL     1      44.436 -16.844   2.125  1.00  0.00     0.171 HD
HETATM    6  H   UNL     1      43.635 -14.867   1.955  1.00  0.00     0.171 HD
ENDROOT
BRANCH   3   7
HETATM    7  C   UNL     1      41.747 -14.338   1.341  1.00  0.00     0.071 A 
HETATM    8  C   UNL     1      41.722 -13.043   1.890  1.00  0.00     0.096 A 
HETATM    9  C   UNL     1      40.847 -12.071   1.398  1.00  0.00     0.041 A 
HETATM   10  C   UNL     1      39.964 -12.401   0.370  1.00  0.00     0.026 A 
HETATM   11  C   UNL     1      39.972 -13.689  -0.164  1.00  0.00     0.036 A 
HETATM   12 CL   UNL     1      38.883 -14.080  -1.439  1.00  0.00    -0.084 Cl
HETATM   13  C   UNL     1      40.860 -14.657   0.311  1.00  0.00     0.056 A 
BRANCH   8  14
HETATM   14  O   UNL     1      42.622 -12.756   2.889  1.00  0.00    -0.340 OA
BRANCH  14  15
HETATM   15  C   UNL     1      41.971 -12.455   4.139  1.00  0.00     0.293 C 
BRANCH  15  16
HETATM   16  C   UNL     1      42.092 -13.640   5.083  1.00  0.00     0.408 C 
HETATM   17  F   UNL     1      41.107 -14.542   4.866  1.00  0.00    -0.169 F 
HETATM   18  F   UNL     1      43.274 -14.276   4.936  1.00  0.00    -0.169 F 
HETATM   19  F   UNL     1      42.002 -13.237   6.370  1.00  0.00    -0.169 F 
ENDBRANCH  15  16
ENDBRANCH  14  15
ENDBRANCH   8  14
ENDBRANCH   3   7
BRANCH   1  20
HETATM   20  C   UNL     1      43.829 -18.285   3.431  1.00  0.00     0.086 A 
HETATM   21  C   UNL     1      44.075 -18.273   4.791  1.00  0.00     0.052 A 
HETATM   22  C   UNL     1      44.235 -17.174   5.772  1.00  0.00     0.072 C 
HETATM   23  N   UNL     1      44.181 -19.583   5.162  1.00  0.00    -0.280 N 
HETATM   24  H   UNL     1      44.371 -19.961   6.083  1.00  0.00     0.189 HD
HETATM   25  N   UNL     1      43.995 -20.446   4.159  1.00  0.00    -0.177 NA
HETATM   26  C   UNL     1      43.772 -19.668   3.089  1.00  0.00     0.079 A 
HETATM   27  C   UNL     1      43.466 -20.327   1.793  1.00  0.00     0.075 C 
ENDBRANCH   1  20
TORSDOF 5
ENDMDL
MODEL 7
REMARK VINA RESULT:      -6.8      2.774      6.230
REMARK  5 active torsions:
REMARK  status: ('A' for Active; 'I' for Inactive)
REMARK    1  A    between atoms: C_8  and  N_9 
REMARK       I    between atoms: N_9  and  C_10 
REMARK       I    between atoms: C_10  and  N_11 
REMARK    2  A    between atoms: N_11  and  C_12 
REMARK    3  A    between atoms: C_13  and  O_14 
REMARK    4  A    between atoms: O_14  and  C_15 
REMARK    5  A    between atoms: C_15  and  C_16 
ROOT
HETATM    1  N   UNL     1      42.701 -15.439   2.097  1.00  0.00    -0.305 N 
HETATM    2  C   UNL     1      41.428 -15.230   1.601  1.00  0.00     0.325 C 
HETATM    3  N   UNL     1      41.444 -14.218   0.659  1.00  0.00    -0.306 N 
HETATM    4  O   UNL     1      40.428 -15.851   1.935  1.00  0.00    -0.247 OA
HETATM    5  H   UNL     1      43.462 -15.148   1.503  1.00  0.00     0.171 HD
HETATM    6  H   UNL     1      42.243 -13.596   0.676  1.00  0.00     0.171 HD
ENDROOT
BRANCH   3   7
HETATM    7  C   UNL     1      40.384 -13.794  -0.175  1.00  0.00     0.071 A 
HETATM    8  C   UNL     1      39.858 -12.509   0.058  1.00  0.00     0.096 A 
HETATM    9  C   UNL     1      38.843 -11.992  -0.750  1.00  0.00     0.041 A 
HETATM   10  C   UNL     1      38.321 -12.773  -1.780  1.00  0.00     0.026 A 
HETATM   11  C   UNL     1      38.825 -14.054  -2.003  1.00  0.00     0.036 A 
HETATM   12 CL   UNL     1      38.178 -15.005  -3.285  1.00  0.00    -0.084 Cl
HETATM   13  C   UNL     1      39.855 -14.567  -1.211  1.00  0.00     0.056 A 
BRANCH   8  14
HETATM   14  O   UNL     1      40.415 -11.767   1.072  1.00  0.00    -0.340 OA
BRANCH  14  15
HETATM   15  C   UNL     1      39.433 -11.339   2.036  1.00  0.00     0.293 C 
BRANCH  15  16
HETATM   16  C   UNL     1      39.437 -12.279   3.230  1.00  0.00     0.408 C 
HETATM   17  F   UNL     1      38.673 -13.371   2.997  1.00  0.00    -0.169 F 
HETATM   18  F   UNL     1      40.685 -12.703   3.526  1.00  0.00    -0.169 F 
HETATM   19  F   UNL     1      38.944 -11.662   4.327  1.00  0.00    -0.169 F 
ENDBRANCH  15  16
ENDBRANCH  14  15
ENDBRANCH   8  14
ENDBRANCH   3   7
BRANCH   1  20
HETATM   20  C   UNL     1      43.046 -16.256   3.161  1.00  0.00     0.086 A 
HETATM   21  C   UNL     1      43.191 -15.765   4.445  1.00  0.00     0.052 A 
HETATM   22  C   UNL     1      43.067 -14.404   5.018  1.00  0.00     0.072 C 
HETATM   23  N   UNL     1      43.524 -16.839   5.220  1.00  0.00    -0.280 N 
HETATM   24  H   UNL     1      43.721 -16.859   6.214  1.00  0.00     0.189 HD
HETATM   25  N   UNL     1      43.579 -17.993   4.549  1.00  0.00    -0.177 NA
HETATM   26  C   UNL     1      43.282 -17.657   3.284  1.00  0.00     0.079 A 
HETATM   27  C   UNL     1      43.200 -18.740   2.271  1.00  0.00     0.075 C 
ENDBRANCH   1  20
TORSDOF 5
ENDMDL
MODEL 8
REMARK VINA RESULT:      -6.8      3.055      4.193
REMARK  5 active torsions:
REMARK  status: ('A' for Active; 'I' for Inactive)
REMARK    1  A    between atoms: C_8  and  N_9 
REMARK       I    between atoms: N_9  and  C_10 
REMARK       I    between atoms: C_10  and  N_11 
REMARK    2  A    between atoms: N_11  and  C_12 
REMARK    3  A    between atoms: C_13  and  O_14 
REMARK    4  A    between atoms: O_14  and  C_15 
REMARK    5  A    between atoms: C_15  and  C_16 
ROOT
HETATM    1  N   UNL     1      39.829 -14.438   1.211  1.00  0.00    -0.305 N 
HETATM    2  C   UNL     1      40.858 -14.378   2.132  1.00  0.00     0.325 C 
HETATM    3  N   UNL     1      40.795 -15.463   2.989  1.00  0.00    -0.306 N 
HETATM    4  O   UNL     1      41.710 -13.502   2.185  1.00  0.00    -0.247 OA
HETATM    5  H   UNL     1      39.443 -15.353   1.036  1.00  0.00     0.171 HD
HETATM    6  H   UNL     1      39.909 -15.949   3.038  1.00  0.00     0.171 HD
ENDROOT
BRANCH   3   7
HETATM    7  C   UNL     1      41.733 -15.841   3.976  1.00  0.00     0.071 A 
HETATM    8  C   UNL     1      42.502 -16.993   3.724  1.00  0.00     0.096 A 
HETATM    9  C   UNL     1      43.486 -17.410   4.623  1.00  0.00     0.041 A 
HETATM   10  C   UNL     1      43.684 -16.695   5.803  1.00  0.00     0.026 A 
HETATM   11  C   UNL     1      42.911 -15.564   6.067  1.00  0.00     0.036 A 
HETATM   12 CL   UNL     1      43.173 -14.684   7.524  1.00  0.00    -0.084 Cl
HETATM   13  C   UNL     1      41.941 -15.131   5.160  1.00  0.00     0.056 A 
BRANCH   8  14
HETATM   14  O   UNL     1      42.286 -17.657   2.540  1.00  0.00    -0.340 OA
BRANCH  14  15
HETATM   15  C   UNL     1      43.445 -18.400   2.114  1.00  0.00     0.293 C 
BRANCH  15  16
HETATM   16  C   UNL     1      43.120 -19.884   2.069  1.00  0.00     0.408 C 
HETATM   17  F   UNL     1      41.817 -20.092   1.769  1.00  0.00    -0.169 F 
HETATM   18  F   UNL     1      43.864 -20.530   1.145  1.00  0.00    -0.169 F 
HETATM   19  F   UNL     1      43.362 -20.463   3.266  1.00  0.00    -0.169 F 
ENDBRANCH  15  16
ENDBRANCH  14  15
ENDBRANCH   8  14
ENDBRANCH   3   7
BRANCH   1  20
HETATM   20  C   UNL     1      39.479 -13.453   0.303  1.00  0.00     0.086 A 
HETATM   21  C   UNL     1      39.244 -13.734  -1.030  1.00  0.00     0.052 A 
HETATM   22  C   UNL     1      39.303 -14.989  -1.815  1.00  0.00     0.072 C 
HETATM   23  N   UNL     1      38.922 -12.541  -1.612  1.00  0.00    -0.280 N 
HETATM   24  H   UNL     1      38.699 -12.357  -2.583  1.00  0.00     0.189 HD
HETATM   25  N   UNL     1      38.900 -11.513  -0.760  1.00  0.00    -0.177 NA
HETATM   26  C   UNL     1      39.234 -12.053   0.423  1.00  0.00     0.079 A 
HETATM   27  C   UNL     1      39.247 -11.172   1.618  1.00  0.00     0.075 C 
ENDBRANCH   1  20
TORSDOF 5
ENDMDL
MODEL 9
REMARK VINA RESULT:      -6.8      4.009      7.401
REMARK  5 active torsions:
REMARK  status: ('A' for Active; 'I' for Inactive)
REMARK    1  A    between atoms: C_8  and  N_9 
REMARK       I    between atoms: N_9  and  C_10 
REMARK       I    between atoms: C_10  and  N_11 
REMARK    2  A    between atoms: N_11  and  C_12 
REMARK    3  A    between atoms: C_13  and  O_14 
REMARK    4  A    between atoms: O_14  and  C_15 
REMARK    5  A    between atoms: C_15  and  C_16 
ROOT
HETATM    1  N   UNL     1      41.360 -16.047   4.333  1.00  0.00    -0.305 N 
HETATM    2  C   UNL     1      41.358 -14.771   3.803  1.00  0.00     0.325 C 
HETATM    3  N   UNL     1      40.088 -14.437   3.368  1.00  0.00    -0.306 N 
HETATM    4  O   UNL     1      42.331 -14.033   3.731  1.00  0.00    -0.247 OA
HETATM    5  H   UNL     1      40.473 -16.390   4.668  1.00  0.00     0.171 HD
HETATM    6  H   UNL     1      39.447 -15.206   3.211  1.00  0.00     0.171 HD
ENDROOT
BRANCH   3   7
HETATM    7  C   UNL     1      39.636 -13.185   2.893  1.00  0.00     0.071 A 
HETATM    8  C   UNL     1      39.517 -13.033   1.499  1.00  0.00     0.096 A 
HETATM    9  C   UNL     1      39.032 -11.846   0.945  1.00  0.00     0.041 A 
HETATM   10  C   UNL     1      38.692 -10.786   1.785  1.00  0.00     0.026 A 
HETATM   11  C   UNL     1      38.826 -10.926   3.166  1.00  0.00     0.036 A 
HETATM   12 CL   UNL     1      38.394  -9.612   4.193  1.00  0.00    -0.084 Cl
HETATM   13  C   UNL     1      39.291 -12.118   3.725  1.00  0.00     0.056 A 
BRANCH   8  14
HETATM   14  O   UNL     1      39.845 -14.109   0.709  1.00  0.00    -0.340 OA
BRANCH  14  15
HETATM   15  C   UNL     1      40.189 -13.714  -0.633  1.00  0.00     0.293 C 
BRANCH  15  16
HETATM   16  C   UNL     1      39.292 -14.431  -1.629  1.00  0.00     0.408 C 
HETATM   17  F   UNL     1      38.104 -13.797  -1.763  1.00  0.00    -0.169 F 
HETATM   18  F   UNL     1      39.862 -14.502  -2.852  1.00  0.00    -0.169 F 
HETATM   19  F   UNL     1      39.039 -15.694  -1.222  1.00  0.00    -0.169 F 
ENDBRANCH  15  16
ENDBRANCH  14  15
ENDBRANCH   8  14
ENDBRANCH   3   7
BRANCH   1  20
HETATM   20  C   UNL     1      42.473 -16.776   4.720  1.00  0.00     0.086 A 
HETATM   21  C   UNL     1      42.914 -16.802   6.029  1.00  0.00     0.052 A 
HETATM   22  C   UNL     1      42.429 -16.140   7.263  1.00  0.00     0.072 C 
HETATM   23  N   UNL     1      44.012 -17.613   6.038  1.00  0.00    -0.280 N 
HETATM   24  H   UNL     1      44.606 -17.857   6.822  1.00  0.00     0.189 HD
HETATM   25  N   UNL     1      44.303 -18.141   4.845  1.00  0.00    -0.177 NA
HETATM   26  C   UNL     1      43.366 -17.643   4.024  1.00  0.00     0.079 A 
HETATM   27  C   UNL     1      43.370 -18.086   2.606  1.00  0.00     0.075 C 
ENDBRANCH   1  20
TORSDOF 5
ENDMDL
MODEL 10
REMARK VINA RESULT:      -6.7      3.706      6.886
REMARK  5 active torsions:
REMARK  status: ('A' for Active; 'I' for Inactive)
REMARK    1  A    between atoms: C_8  and  N_9 
REMARK       I    between atoms: N_9  and  C_10 
REMARK       I    between atoms: C_10  and  N_11 
REMARK    2  A    between atoms: N_11  and  C_12 
REMARK    3  A    between atoms: C_13  and  O_14 
REMARK    4  A    between atoms: O_14  and  C_15 
REMARK    5  A    between atoms: C_15  and  C_16 
ROOT
HETATM    1  N   UNL     1      43.230 -15.495   3.910  1.00  0.00    -0.305 N 
HETATM    2  C   UNL     1      42.042 -14.896   4.287  1.00  0.00     0.325 C 
HETATM    3  N   UNL     1      42.101 -13.533   4.055  1.00  0.00    -0.306 N 
HETATM    4  O   UNL     1      41.073 -15.478   4.752  1.00  0.00    -0.247 OA
HETATM    5  H   UNL     1      43.779 -14.999   3.225  1.00  0.00     0.171 HD
HETATM    6  H   UNL     1      43.025 -13.132   3.949  1.00  0.00     0.171 HD
ENDROOT
BRANCH   3   7
HETATM    7  C   UNL     1      41.057 -12.588   4.177  1.00  0.00     0.071 A 
HETATM    8  C   UNL     1      40.409 -12.191   2.992  1.00  0.00     0.096 A 
HETATM    9  C   UNL     1      39.335 -11.299   3.026  1.00  0.00     0.041 A 
HETATM   10  C   UNL     1      38.921 -10.770   4.248  1.00  0.00     0.026 A 
HETATM   11  C   UNL     1      39.572 -11.146   5.422  1.00  0.00     0.036 A 
HETATM   12 CL   UNL     1      39.044 -10.493   6.926  1.00  0.00    -0.084 Cl
HETATM   13  C   UNL     1      40.633 -12.054   5.395  1.00  0.00     0.056 A 
BRANCH   8  14
HETATM   14  O   UNL     1      40.838 -12.752   1.813  1.00  0.00    -0.340 OA
BRANCH  14  15
HETATM   15  C   UNL     1      39.786 -13.469   1.137  1.00  0.00     0.293 C 
BRANCH  15  16
HETATM   16  C   UNL     1      40.178 -14.927   0.972  1.00  0.00     0.408 C 
HETATM   17  F   UNL     1      39.684 -15.440  -0.179  1.00  0.00    -0.169 F 
HETATM   18  F   UNL     1      41.520 -15.084   0.951  1.00  0.00    -0.169 F 
HETATM   19  F   UNL     1      39.695 -15.672   1.992  1.00  0.00    -0.169 F 
ENDBRANCH  15  16
ENDBRANCH  14  15
ENDBRANCH   8  14
ENDBRANCH   3   7
BRANCH   1  20
HETATM   20  C   UNL     1      43.597 -16.811   4.138  1.00  0.00     0.086 A 
HETATM   21  C   UNL     1      44.224 -17.205   5.305  1.00  0.00     0.052 A 
HETATM   22  C   UNL     1      44.664 -16.460   6.508  1.00  0.00     0.072 C 
HETATM   23  N   UNL     1      44.426 -18.550   5.184  1.00  0.00    -0.280 N 
HETATM   24  H   UNL     1      44.871 -19.179   5.842  1.00  0.00     0.189 HD
HETATM   25  N   UNL     1      43.955 -19.067   4.046  1.00  0.00    -0.177 NA
HETATM   26  C   UNL     1      43.437 -18.015   3.392  1.00  0.00     0.079 A 
HETATM   27  C   UNL     1      42.768 -18.259   2.089  1.00  0.00     0.075 C 
ENDBRANCH   1  20
TORSDOF 5
ENDMDL
