MODEL 1
REMARK VINA RESULT:      -9.2      0.000      0.000
REMARK  7 active torsions:
REMARK  status: ('A' for Active; 'I' for Inactive)
REMARK    1  A    between atoms: C_3  and  N_4 
REMARK       I    between atoms: N_4  and  C_5 
REMARK    2  A    between atoms: C_5  and  C_6 
REMARK    3  A    between atoms: C_6  and  N_7 
REMARK    4  A    between atoms: N_10  and  C_11 
REMARK    5  A    between atoms: C_11  and  C_12 
REMARK    6  A    between atoms: C_27  and  C_28 
REMARK       I    between atoms: C_28  and  N_29 
REMARK    7  A    between atoms: N_29  and  C_30 
ROOT
HETATM    1  N   UNL     1      42.157  -9.992   6.676  1.00  0.00    -0.290 N 
HETATM    2  C   UNL     1      42.180  -8.934   7.586  1.00  0.00     0.332 C 
HETATM    3  O   UNL     1      43.250  -8.518   8.043  1.00  0.00    -0.246 OA
HETATM    4  N   UNL     1      40.965  -8.357   7.916  1.00  0.00    -0.261 N 
HETATM    5  C   UNL     1      39.784  -8.587   7.232  1.00  0.00     0.264 C 
HETATM    6  O   UNL     1      38.726  -8.006   7.463  1.00  0.00    -0.267 OA
HETATM    7  C   UNL     1      39.830  -9.566   6.133  1.00  0.00     0.059 A 
HETATM    8  C   UNL     1      41.001 -10.287   5.902  1.00  0.00     0.056 A 
HETATM    9  C   UNL     1      38.701  -9.728   5.312  1.00  0.00     0.020 A 
HETATM   10  C   UNL     1      38.722 -10.625   4.244  1.00  0.00     0.018 A 
HETATM   11  C   UNL     1      39.864 -11.395   4.020  1.00  0.00     0.034 A 
HETATM   12  C   UNL     1      40.986 -11.229   4.860  1.00  0.00     0.048 A 
ENDROOT
BRANCH   1  13
HETATM   13  C   UNL     1      43.468 -10.570   6.381  1.00  0.00     0.237 C 
BRANCH  13  14
HETATM   14  C   UNL     1      43.650 -11.970   7.003  1.00  0.00     0.240 C 
HETATM   15  N   UNL     1      43.290 -12.977   6.122  1.00  0.00    -0.323 N 
HETATM   16  H   UNL     1      43.094 -12.711   5.162  1.00  0.00     0.169 HD
HETATM   17  O   UNL     1      44.023 -12.119   8.164  1.00  0.00    -0.271 OA
BRANCH  15  18
HETATM   18  C   UNL     1      43.254 -14.369   6.342  1.00  0.00     0.073 A 
HETATM   19  C   UNL     1      44.372 -15.201   6.370  1.00  0.00     0.033 A 
HETATM   20  C   UNL     1      44.216 -16.574   6.612  1.00  0.00     0.002 A 
HETATM   21  C   UNL     1      42.949 -17.121   6.828  1.00  0.00     0.003 A 
HETATM   22  C   UNL     1      41.828 -16.298   6.803  1.00  0.00     0.044 A 
HETATM   23  C   UNL     1      41.991 -14.938   6.559  1.00  0.00     0.143 A 
HETATM   24  F   UNL     1      40.903 -14.148   6.543  1.00  0.00    -0.204 F 
ENDBRANCH  15  18
ENDBRANCH  13  14
ENDBRANCH   1  13
BRANCH   4  25
HETATM   25  C   UNL     1      40.974  -7.303   8.925  1.00  0.00     0.175 C 
BRANCH  25  26
HETATM   26  C   UNL     1      40.904  -7.831  10.344  1.00  0.00    -0.037 A 
HETATM   27  C   UNL     1      41.919  -7.539  11.271  1.00  0.00     0.048 A 
HETATM   28  C   UNL     1      41.799  -8.052  12.546  1.00  0.00     0.105 A 
HETATM   29  C   UNL     1      40.733  -8.838  12.919  1.00  0.00     0.105 A 
HETATM   30  O   UNL     1      42.680  -7.862  13.566  1.00  0.00    -0.323 OA
HETATM   31  O   UNL     1      40.808  -9.241  14.215  1.00  0.00    -0.323 OA
HETATM   32  C   UNL     1      39.724  -9.155  12.037  1.00  0.00     0.040 A 
HETATM   33  C   UNL     1      42.029  -8.592  14.627  1.00  0.00     0.352 A 
HETATM   34  C   UNL     1      39.814  -8.644  10.739  1.00  0.00     0.012 A 
ENDBRANCH  25  26
ENDBRANCH   4  25
BRANCH  11  35
HETATM   35  C   UNL     1      39.988 -12.364   2.888  1.00  0.00     0.252 C 
HETATM   36  N   UNL     1      40.972 -13.329   2.968  1.00  0.00    -0.352 N 
HETATM   37  H   UNL     1      41.636 -13.318   3.728  1.00  0.00     0.163 HD
HETATM   38  O   UNL     1      39.229 -12.266   1.929  1.00  0.00    -0.268 OA
BRANCH  36  39
HETATM   39  C   UNL     1      41.195 -14.280   1.880  1.00  0.00     0.084 C 
HETATM   40  C   UNL     1      42.693 -14.563   1.699  1.00  0.00     0.025 C 
HETATM   41  C   UNL     1      43.270 -15.455   2.800  1.00  0.00     0.002 C 
HETATM   42  C   UNL     1      42.474 -16.746   2.953  1.00  0.00     0.000 C 
HETATM   43  C   UNL     1      40.994 -16.463   3.189  1.00  0.00     0.002 C 
HETATM   44  C   UNL     1      40.408 -15.584   2.086  1.00  0.00     0.025 C 
ENDBRANCH  36  39
ENDBRANCH  11  35
TORSDOF 7
ENDMDL
MODEL 2
REMARK VINA RESULT:      -9.1      2.828      8.956
REMARK  7 active torsions:
REMARK  status: ('A' for Active; 'I' for Inactive)
REMARK    1  A    between atoms: C_3  and  N_4 
REMARK       I    between atoms: N_4  and  C_5 
REMARK    2  A    between atoms: C_5  and  C_6 
REMARK    3  A    between atoms: C_6  and  N_7 
REMARK    4  A    between atoms: N_10  and  C_11 
REMARK    5  A    between atoms: C_11  and  C_12 
REMARK    6  A    between atoms: C_27  and  C_28 
REMARK       I    between atoms: C_28  and  N_29 
REMARK    7  A    between atoms: N_29  and  C_30 
ROOT
HETATM    1  N   UNL     1      41.044 -12.418   4.889  1.00  0.00    -0.290 N 
HETATM    2  C   UNL     1      40.091 -12.280   3.879  1.00  0.00     0.332 C 
HETATM    3  O   UNL     1      39.423 -13.250   3.505  1.00  0.00    -0.246 OA
HETATM    4  N   UNL     1      39.906 -11.011   3.354  1.00  0.00    -0.261 N 
HETATM    5  C   UNL     1      40.411  -9.854   3.920  1.00  0.00     0.264 C 
HETATM    6  O   UNL     1      40.170  -8.721   3.510  1.00  0.00    -0.267 OA
HETATM    7  C   UNL     1      41.256 -10.011   5.116  1.00  0.00     0.059 A 
HETATM    8  C   UNL     1      41.598 -11.289   5.554  1.00  0.00     0.056 A 
HETATM    9  C   UNL     1      41.671  -8.865   5.816  1.00  0.00     0.020 A 
HETATM   10  C   UNL     1      42.446  -8.981   6.970  1.00  0.00     0.018 A 
HETATM   11  C   UNL     1      42.845 -10.246   7.403  1.00  0.00     0.034 A 
HETATM   12  C   UNL     1      42.429 -11.386   6.683  1.00  0.00     0.048 A 
ENDROOT
BRANCH   1  13
HETATM   13  C   UNL     1      41.207 -13.783   5.390  1.00  0.00     0.237 C 
BRANCH  13  14
HETATM   14  C   UNL     1      42.215 -14.602   4.559  1.00  0.00     0.240 C 
HETATM   15  N   UNL     1      41.992 -15.964   4.673  1.00  0.00    -0.323 N 
HETATM   16  H   UNL     1      41.145 -16.262   5.148  1.00  0.00     0.169 HD
HETATM   17  O   UNL     1      43.123 -14.064   3.930  1.00  0.00    -0.271 OA
BRANCH  15  18
HETATM   18  C   UNL     1      42.736 -17.028   4.124  1.00  0.00     0.073 A 
HETATM   19  C   UNL     1      43.787 -17.681   4.764  1.00  0.00     0.033 A 
HETATM   20  C   UNL     1      44.448 -18.739   4.123  1.00  0.00     0.002 A 
HETATM   21  C   UNL     1      44.063 -19.152   2.844  1.00  0.00     0.003 A 
HETATM   22  C   UNL     1      43.013 -18.507   2.199  1.00  0.00     0.044 A 
HETATM   23  C   UNL     1      42.365 -17.455   2.840  1.00  0.00     0.143 A 
HETATM   24  F   UNL     1      41.348 -16.841   2.211  1.00  0.00    -0.204 F 
ENDBRANCH  15  18
ENDBRANCH  13  14
ENDBRANCH   1  13
BRANCH   4  25
HETATM   25  C   UNL     1      38.968 -10.875   2.245  1.00  0.00     0.175 C 
BRANCH  25  26
HETATM   26  C   UNL     1      39.574 -11.219   0.899  1.00  0.00    -0.037 A 
HETATM   27  C   UNL     1      39.120 -12.329   0.168  1.00  0.00     0.048 A 
HETATM   28  C   UNL     1      39.716 -12.591  -1.049  1.00  0.00     0.105 A 
HETATM   29  C   UNL     1      40.733 -11.810  -1.546  1.00  0.00     0.105 A 
HETATM   30  O   UNL     1      39.395 -13.614  -1.887  1.00  0.00    -0.323 OA
HETATM   31  O   UNL     1      41.180 -12.241  -2.755  1.00  0.00    -0.323 OA
HETATM   32  C   UNL     1      41.213 -10.720  -0.854  1.00  0.00     0.040 A 
HETATM   33  C   UNL     1      40.305 -13.366  -2.979  1.00  0.00     0.352 A 
HETATM   34  C   UNL     1      40.625 -10.425   0.378  1.00  0.00     0.012 A 
ENDBRANCH  25  26
ENDBRANCH   4  25
BRANCH  11  35
HETATM   35  C   UNL     1      43.656 -10.469   8.639  1.00  0.00     0.252 C 
HETATM   36  N   UNL     1      43.103 -10.103   9.850  1.00  0.00    -0.352 N 
HETATM   37  H   UNL     1      42.216  -9.623   9.881  1.00  0.00     0.163 HD
HETATM   38  O   UNL     1      44.780 -10.952   8.539  1.00  0.00    -0.268 OA
BRANCH  36  39
HETATM   39  C   UNL     1      43.851 -10.238  11.099  1.00  0.00     0.084 C 
HETATM   40  C   UNL     1      44.370  -8.873  11.576  1.00  0.00     0.025 C 
HETATM   41  C   UNL     1      43.267  -7.985  12.155  1.00  0.00     0.002 C 
HETATM   42  C   UNL     1      42.487  -8.699  13.252  1.00  0.00     0.000 C 
HETATM   43  C   UNL     1      41.924 -10.029  12.761  1.00  0.00     0.002 C 
HETATM   44  C   UNL     1      43.022 -10.926  12.194  1.00  0.00     0.025 C 
ENDBRANCH  36  39
ENDBRANCH  11  35
TORSDOF 7
ENDMDL
MODEL 3
REMARK VINA RESULT:      -9.0      4.215      8.445
REMARK  7 active torsions:
REMARK  status: ('A' for Active; 'I' for Inactive)
REMARK    1  A    between atoms: C_3  and  N_4 
REMARK       I    between atoms: N_4  and  C_5 
REMARK    2  A    between atoms: C_5  and  C_6 
REMARK    3  A    between atoms: C_6  and  N_7 
REMARK    4  A    between atoms: N_10  and  C_11 
REMARK    5  A    between atoms: C_11  and  C_12 
REMARK    6  A    between atoms: C_27  and  C_28 
REMARK       I    between atoms: C_28  and  N_29 
REMARK    7  A    between atoms: N_29  and  C_30 
ROOT
HETATM    1  N   UNL     1      40.667 -12.171   1.700  1.00  0.00    -0.290 N 
HETATM    2  C   UNL     1      40.244 -13.244   2.485  1.00  0.00     0.332 C 
HETATM    3  O   UNL     1      40.012 -13.092   3.689  1.00  0.00    -0.246 OA
HETATM    4  N   UNL     1      40.064 -14.461   1.848  1.00  0.00    -0.261 N 
HETATM    5  C   UNL     1      40.034 -14.622   0.474  1.00  0.00     0.264 C 
HETATM    6  O   UNL     1      39.782 -15.684  -0.093  1.00  0.00    -0.267 OA
HETATM    7  C   UNL     1      40.284 -13.423  -0.344  1.00  0.00     0.059 A 
HETATM    8  C   UNL     1      40.642 -12.228   0.278  1.00  0.00     0.056 A 
HETATM    9  C   UNL     1      40.118 -13.498  -1.737  1.00  0.00     0.020 A 
HETATM   10  C   UNL     1      40.317 -12.373  -2.537  1.00  0.00     0.018 A 
HETATM   11  C   UNL     1      40.724 -11.176  -1.946  1.00  0.00     0.034 A 
HETATM   12  C   UNL     1      40.896 -11.120  -0.546  1.00  0.00     0.048 A 
ENDROOT
BRANCH   1  13
HETATM   13  C   UNL     1      40.856 -10.918   2.431  1.00  0.00     0.237 C 
BRANCH  13  14
HETATM   14  C   UNL     1      42.096 -10.950   3.349  1.00  0.00     0.240 C 
HETATM   15  N   UNL     1      41.747 -11.039   4.686  1.00  0.00    -0.323 N 
HETATM   16  H   UNL     1      40.770 -11.211   4.904  1.00  0.00     0.169 HD
HETATM   17  O   UNL     1      43.236 -10.854   2.899  1.00  0.00    -0.271 OA
BRANCH  15  18
HETATM   18  C   UNL     1      42.586 -11.026   5.818  1.00  0.00     0.073 A 
HETATM   19  C   UNL     1      42.762  -9.936   6.668  1.00  0.00     0.033 A 
HETATM   20  C   UNL     1      43.615 -10.042   7.776  1.00  0.00     0.002 A 
HETATM   21  C   UNL     1      44.294 -11.235   8.042  1.00  0.00     0.003 A 
HETATM   22  C   UNL     1      44.123 -12.328   7.200  1.00  0.00     0.044 A 
HETATM   23  C   UNL     1      43.278 -12.213   6.101  1.00  0.00     0.143 A 
HETATM   24  F   UNL     1      43.114 -13.277   5.296  1.00  0.00    -0.204 F 
ENDBRANCH  15  18
ENDBRANCH  13  14
ENDBRANCH   1  13
BRANCH   4  25
HETATM   25  C   UNL     1      39.699 -15.605   2.677  1.00  0.00     0.175 C 
BRANCH  25  26
HETATM   26  C   UNL     1      40.873 -16.202   3.427  1.00  0.00    -0.037 A 
HETATM   27  C   UNL     1      40.939 -16.139   4.829  1.00  0.00     0.048 A 
HETATM   28  C   UNL     1      42.035 -16.698   5.453  1.00  0.00     0.105 A 
HETATM   29  C   UNL     1      43.052 -17.294   4.743  1.00  0.00     0.105 A 
HETATM   30  O   UNL     1      42.254 -16.734   6.795  1.00  0.00    -0.323 OA
HETATM   31  O   UNL     1      44.036 -17.778   5.547  1.00  0.00    -0.323 OA
HETATM   32  C   UNL     1      43.030 -17.366   3.368  1.00  0.00     0.040 A 
HETATM   33  C   UNL     1      43.507 -17.447   6.847  1.00  0.00     0.352 A 
HETATM   34  C   UNL     1      41.928 -16.815   2.708  1.00  0.00     0.012 A 
ENDBRANCH  25  26
ENDBRANCH   4  25
BRANCH  11  35
HETATM   35  C   UNL     1      40.939  -9.914  -2.718  1.00  0.00     0.252 C 
HETATM   36  N   UNL     1      41.156  -8.750  -2.007  1.00  0.00    -0.352 N 
HETATM   37  H   UNL     1      41.084  -8.747  -1.001  1.00  0.00     0.163 HD
HETATM   38  O   UNL     1      40.904  -9.948  -3.944  1.00  0.00    -0.268 OA
BRANCH  36  39
HETATM   39  C   UNL     1      41.321  -7.465  -2.684  1.00  0.00     0.084 C 
HETATM   40  C   UNL     1      40.740  -6.322  -1.839  1.00  0.00     0.025 C 
HETATM   41  C   UNL     1      41.612  -5.971  -0.632  1.00  0.00     0.002 C 
HETATM   42  C   UNL     1      43.051  -5.684  -1.042  1.00  0.00     0.000 C 
HETATM   43  C   UNL     1      43.647  -6.843  -1.834  1.00  0.00     0.002 C 
HETATM   44  C   UNL     1      42.788  -7.191  -3.049  1.00  0.00     0.025 C 
ENDBRANCH  36  39
ENDBRANCH  11  35
TORSDOF 7
ENDMDL
MODEL 4
REMARK VINA RESULT:      -9.0      2.995      4.910
REMARK  7 active torsions:
REMARK  status: ('A' for Active; 'I' for Inactive)
REMARK    1  A    between atoms: C_3  and  N_4 
REMARK       I    between atoms: N_4  and  C_5 
REMARK    2  A    between atoms: C_5  and  C_6 
REMARK    3  A    between atoms: C_6  and  N_7 
REMARK    4  A    between atoms: N_10  and  C_11 
REMARK    5  A    between atoms: C_11  and  C_12 
REMARK    6  A    between atoms: C_27  and  C_28 
REMARK       I    between atoms: C_28  and  N_29 
REMARK    7  A    between atoms: N_29  and  C_30 
ROOT
HETATM    1  N   UNL     1      42.087 -13.626   5.993  1.00  0.00    -0.290 N 
HETATM    2  C   UNL     1      43.115 -13.307   6.881  1.00  0.00     0.332 C 
HETATM    3  O   UNL     1      43.263 -13.945   7.929  1.00  0.00    -0.246 OA
HETATM    4  N   UNL     1      43.971 -12.281   6.516  1.00  0.00    -0.261 N 
HETATM    5  C   UNL     1      44.027 -11.730   5.249  1.00  0.00     0.264 C 
HETATM    6  O   UNL     1      44.849 -10.885   4.897  1.00  0.00    -0.267 OA
HETATM    7  C   UNL     1      43.058 -12.231   4.260  1.00  0.00     0.059 A 
HETATM    8  C   UNL     1      42.074 -13.135   4.657  1.00  0.00     0.056 A 
HETATM    9  C   UNL     1      43.169 -11.816   2.922  1.00  0.00     0.020 A 
HETATM   10  C   UNL     1      42.285 -12.296   1.955  1.00  0.00     0.018 A 
HETATM   11  C   UNL     1      41.260 -13.163   2.334  1.00  0.00     0.034 A 
HETATM   12  C   UNL     1      41.156 -13.563   3.684  1.00  0.00     0.048 A 
ENDROOT
BRANCH   1  13
HETATM   13  C   UNL     1      41.207 -14.704   6.441  1.00  0.00     0.237 C 
BRANCH  13  14
HETATM   14  C   UNL     1      41.374 -15.990   5.606  1.00  0.00     0.240 C 
HETATM   15  N   UNL     1      42.660 -16.498   5.691  1.00  0.00    -0.323 N 
HETATM   16  H   UNL     1      43.285 -16.077   6.372  1.00  0.00     0.169 HD
HETATM   17  O   UNL     1      40.458 -16.441   4.922  1.00  0.00    -0.271 OA
BRANCH  15  18
HETATM   18  C   UNL     1      43.214 -17.610   5.025  1.00  0.00     0.073 A 
HETATM   19  C   UNL     1      43.480 -17.670   3.658  1.00  0.00     0.033 A 
HETATM   20  C   UNL     1      44.048 -18.828   3.106  1.00  0.00     0.002 A 
HETATM   21  C   UNL     1      44.353 -19.927   3.913  1.00  0.00     0.003 A 
HETATM   22  C   UNL     1      44.092 -19.876   5.278  1.00  0.00     0.044 A 
HETATM   23  C   UNL     1      43.525 -18.725   5.817  1.00  0.00     0.143 A 
HETATM   24  F   UNL     1      43.282 -18.681   7.138  1.00  0.00    -0.204 F 
ENDBRANCH  15  18
ENDBRANCH  13  14
ENDBRANCH   1  13
BRANCH   4  25
HETATM   25  C   UNL     1      44.998 -11.890   7.476  1.00  0.00     0.175 C 
BRANCH  25  26
HETATM   26  C   UNL     1      44.558 -10.779   8.408  1.00  0.00    -0.037 A 
HETATM   27  C   UNL     1      43.351 -10.094   8.193  1.00  0.00     0.048 A 
HETATM   28  C   UNL     1      43.009  -9.090   9.075  1.00  0.00     0.105 A 
HETATM   29  C   UNL     1      43.816  -8.743  10.134  1.00  0.00     0.105 A 
HETATM   30  O   UNL     1      41.878  -8.335   9.021  1.00  0.00    -0.323 OA
HETATM   31  O   UNL     1      43.297  -7.730  10.877  1.00  0.00    -0.323 OA
HETATM   32  C   UNL     1      45.012  -9.383  10.372  1.00  0.00     0.040 A 
HETATM   33  C   UNL     1      42.054  -7.499  10.184  1.00  0.00     0.352 A 
HETATM   34  C   UNL     1      45.382 -10.410   9.500  1.00  0.00     0.012 A 
ENDBRANCH  25  26
ENDBRANCH   4  25
BRANCH  11  35
HETATM   35  C   UNL     1      40.282 -13.746   1.365  1.00  0.00     0.252 C 
HETATM   36  N   UNL     1      40.164 -13.148   0.126  1.00  0.00    -0.352 N 
HETATM   37  H   UNL     1      40.663 -12.295  -0.078  1.00  0.00     0.163 HD
HETATM   38  O   UNL     1      39.612 -14.718   1.702  1.00  0.00    -0.268 OA
BRANCH  36  39
HETATM   39  C   UNL     1      39.193 -13.623  -0.858  1.00  0.00     0.084 C 
HETATM   40  C   UNL     1      38.103 -12.569  -1.103  1.00  0.00     0.025 C 
HETATM   41  C   UNL     1      38.595 -11.384  -1.935  1.00  0.00     0.002 C 
HETATM   42  C   UNL     1      39.232 -11.840  -3.242  1.00  0.00     0.000 C 
HETATM   43  C   UNL     1      40.353 -12.844  -2.995  1.00  0.00     0.002 C 
HETATM   44  C   UNL     1      39.865 -14.038  -2.176  1.00  0.00     0.025 C 
ENDBRANCH  36  39
ENDBRANCH  11  35
TORSDOF 7
ENDMDL
MODEL 5
REMARK VINA RESULT:      -8.8      3.518      9.370
REMARK  7 active torsions:
REMARK  status: ('A' for Active; 'I' for Inactive)
REMARK    1  A    between atoms: C_3  and  N_4 
REMARK       I    between atoms: N_4  and  C_5 
REMARK    2  A    between atoms: C_5  and  C_6 
REMARK    3  A    between atoms: C_6  and  N_7 
REMARK    4  A    between atoms: N_10  and  C_11 
REMARK    5  A    between atoms: C_11  and  C_12 
REMARK    6  A    between atoms: C_27  and  C_28 
REMARK       I    between atoms: C_28  and  N_29 
REMARK    7  A    between atoms: N_29  and  C_30 
ROOT
HETATM    1  N   UNL     1      42.269 -13.467   2.503  1.00  0.00    -0.290 N 
HETATM    2  C   UNL     1      41.346 -13.691   1.481  1.00  0.00     0.332 C 
HETATM    3  O   UNL     1      41.480 -14.647   0.709  1.00  0.00    -0.246 OA
HETATM    4  N   UNL     1      40.269 -12.824   1.400  1.00  0.00    -0.261 N 
HETATM    5  C   UNL     1      39.919 -11.924   2.391  1.00  0.00     0.264 C 
HETATM    6  O   UNL     1      38.911 -11.220   2.363  1.00  0.00    -0.267 OA
HETATM    7  C   UNL     1      40.804 -11.850   3.566  1.00  0.00     0.059 A 
HETATM    8  C   UNL     1      41.988 -12.586   3.584  1.00  0.00     0.056 A 
HETATM    9  C   UNL     1      40.417 -11.064   4.665  1.00  0.00     0.020 A 
HETATM   10  C   UNL     1      41.218 -10.997   5.806  1.00  0.00     0.018 A 
HETATM   11  C   UNL     1      42.432 -11.684   5.831  1.00  0.00     0.034 A 
HETATM   12  C   UNL     1      42.811 -12.460   4.715  1.00  0.00     0.048 A 
ENDROOT
BRANCH   1  13
HETATM   13  C   UNL     1      43.392 -14.403   2.526  1.00  0.00     0.237 C 
BRANCH  13  14
HETATM   14  C   UNL     1      43.018 -15.762   3.152  1.00  0.00     0.240 C 
HETATM   15  N   UNL     1      43.841 -16.782   2.705  1.00  0.00    -0.323 N 
HETATM   16  H   UNL     1      44.653 -16.520   2.154  1.00  0.00     0.169 HD
HETATM   17  O   UNL     1      42.060 -15.881   3.913  1.00  0.00    -0.271 OA
BRANCH  15  18
HETATM   18  C   UNL     1      43.774 -18.160   2.993  1.00  0.00     0.073 A 
HETATM   19  C   UNL     1      43.251 -19.129   2.139  1.00  0.00     0.033 A 
HETATM   20  C   UNL     1      43.249 -20.477   2.528  1.00  0.00     0.002 A 
HETATM   21  C   UNL     1      43.768 -20.863   3.766  1.00  0.00     0.003 A 
HETATM   22  C   UNL     1      44.292 -19.903   4.625  1.00  0.00     0.044 A 
HETATM   23  C   UNL     1      44.288 -18.567   4.233  1.00  0.00     0.143 A 
HETATM   24  F   UNL     1      44.802 -17.647   5.066  1.00  0.00    -0.204 F 
ENDBRANCH  15  18
ENDBRANCH  13  14
ENDBRANCH   1  13
BRANCH   4  25
HETATM   25  C   UNL     1      39.344 -13.004   0.286  1.00  0.00     0.175 C 
BRANCH  25  26
HETATM   26  C   UNL     1      39.687 -12.158  -0.923  1.00  0.00    -0.037 A 
HETATM   27  C   UNL     1      39.192 -10.849  -1.051  1.00  0.00     0.048 A 
HETATM   28  C   UNL     1      39.538 -10.132  -2.177  1.00  0.00     0.105 A 
HETATM   29  C   UNL     1      40.333 -10.665  -3.165  1.00  0.00     0.105 A 
HETATM   30  O   UNL     1      39.156  -8.855  -2.455  1.00  0.00    -0.323 OA
HETATM   31  O   UNL     1      40.550  -9.794  -4.186  1.00  0.00    -0.323 OA
HETATM   32  C   UNL     1      40.829 -11.946  -3.082  1.00  0.00     0.040 A 
HETATM   33  C   UNL     1      39.827  -8.639  -3.713  1.00  0.00     0.352 A 
HETATM   34  C   UNL     1      40.502 -12.696  -1.949  1.00  0.00     0.012 A 
ENDBRANCH  25  26
ENDBRANCH   4  25
BRANCH  11  35
HETATM   35  C   UNL     1      43.344 -11.689   7.016  1.00  0.00     0.252 C 
HETATM   36  N   UNL     1      43.547 -10.495   7.680  1.00  0.00    -0.352 N 
HETATM   37  H   UNL     1      43.158  -9.638   7.319  1.00  0.00     0.163 HD
HETATM   38  O   UNL     1      43.888 -12.737   7.350  1.00  0.00    -0.268 OA
BRANCH  36  39
HETATM   39  C   UNL     1      44.466 -10.403   8.814  1.00  0.00     0.084 C 
HETATM   40  C   UNL     1      45.165  -9.036   8.843  1.00  0.00     0.025 C 
HETATM   41  C   UNL     1      44.243  -7.904   9.301  1.00  0.00     0.002 C 
HETATM   42  C   UNL     1      43.585  -8.222  10.639  1.00  0.00     0.000 C 
HETATM   43  C   UNL     1      42.844  -9.554  10.594  1.00  0.00     0.002 C 
HETATM   44  C   UNL     1      43.762 -10.691  10.150  1.00  0.00     0.025 C 
ENDBRANCH  36  39
ENDBRANCH  11  35
TORSDOF 7
ENDMDL
MODEL 6
REMARK VINA RESULT:      -8.4      3.045      9.584
REMARK  7 active torsions:
REMARK  status: ('A' for Active; 'I' for Inactive)
REMARK    1  A    between atoms: C_3  and  N_4 
REMARK       I    between atoms: N_4  and  C_5 
REMARK    2  A    between atoms: C_5  and  C_6 
REMARK    3  A    between atoms: C_6  and  N_7 
REMARK    4  A    between atoms: N_10  and  C_11 
REMARK    5  A    between atoms: C_11  and  C_12 
REMARK    6  A    between atoms: C_27  and  C_28 
REMARK       I    between atoms: C_28  and  N_29 
REMARK    7  A    between atoms: N_29  and  C_30 
ROOT
HETATM    1  N   UNL     1      40.238 -10.893   5.371  1.00  0.00    -0.290 N 
HETATM    2  C   UNL     1      39.481 -11.197   4.239  1.00  0.00     0.332 C 
HETATM    3  O   UNL     1      38.615 -10.416   3.831  1.00  0.00    -0.246 OA
HETATM    4  N   UNL     1      39.771 -12.383   3.584  1.00  0.00    -0.261 N 
HETATM    5  C   UNL     1      40.899 -13.147   3.823  1.00  0.00     0.264 C 
HETATM    6  O   UNL     1      41.206 -14.148   3.179  1.00  0.00    -0.267 OA
HETATM    7  C   UNL     1      41.799 -12.691   4.896  1.00  0.00     0.059 A 
HETATM    8  C   UNL     1      41.433 -11.600   5.684  1.00  0.00     0.056 A 
HETATM    9  C   UNL     1      43.030 -13.342   5.081  1.00  0.00     0.020 A 
HETATM   10  C   UNL     1      43.918 -12.915   6.068  1.00  0.00     0.018 A 
HETATM   11  C   UNL     1      43.556 -11.858   6.904  1.00  0.00     0.034 A 
HETATM   12  C   UNL     1      42.311 -11.220   6.712  1.00  0.00     0.048 A 
ENDROOT
BRANCH   1  13
HETATM   13  C   UNL     1      39.874  -9.639   6.029  1.00  0.00     0.237 C 
BRANCH  13  14
HETATM   14  C   UNL     1      39.305  -9.857   7.447  1.00  0.00     0.240 C 
HETATM   15  N   UNL     1      39.835  -8.960   8.359  1.00  0.00    -0.323 N 
HETATM   16  H   UNL     1      40.400  -8.199   7.994  1.00  0.00     0.169 HD
HETATM   17  O   UNL     1      38.518 -10.767   7.694  1.00  0.00    -0.271 OA
BRANCH  15  18
HETATM   18  C   UNL     1      39.615  -8.885   9.750  1.00  0.00     0.073 A 
HETATM   19  C   UNL     1      39.651  -9.970  10.623  1.00  0.00     0.033 A 
HETATM   20  C   UNL     1      39.431  -9.773  11.994  1.00  0.00     0.002 A 
HETATM   21  C   UNL     1      39.175  -8.496  12.499  1.00  0.00     0.003 A 
HETATM   22  C   UNL     1      39.138  -7.407  11.635  1.00  0.00     0.044 A 
HETATM   23  C   UNL     1      39.355  -7.611  10.276  1.00  0.00     0.143 A 
HETATM   24  F   UNL     1      39.324  -6.552   9.449  1.00  0.00    -0.204 F 
ENDBRANCH  15  18
ENDBRANCH  13  14
ENDBRANCH   1  13
BRANCH   4  25
HETATM   25  C   UNL     1      38.931 -12.744   2.448  1.00  0.00     0.175 C 
BRANCH  25  26
HETATM   26  C   UNL     1      39.577 -12.455   1.107  1.00  0.00    -0.037 A 
HETATM   27  C   UNL     1      39.600 -13.428   0.094  1.00  0.00     0.048 A 
HETATM   28  C   UNL     1      40.206 -13.104  -1.102  1.00  0.00     0.105 A 
HETATM   29  C   UNL     1      40.788 -11.875  -1.315  1.00  0.00     0.105 A 
HETATM   30  O   UNL     1      40.310 -13.919  -2.187  1.00  0.00    -0.323 OA
HETATM   31  O   UNL     1      41.330 -11.763  -2.557  1.00  0.00    -0.323 OA
HETATM   32  C   UNL     1      40.795 -10.900  -0.344  1.00  0.00     0.040 A 
HETATM   33  C   UNL     1      40.995 -13.050  -3.114  1.00  0.00     0.352 A 
HETATM   34  C   UNL     1      40.182 -11.195   0.876  1.00  0.00     0.012 A 
ENDBRANCH  25  26
ENDBRANCH   4  25
BRANCH  11  35
HETATM   35  C   UNL     1      44.450 -11.317   7.973  1.00  0.00     0.252 C 
HETATM   36  N   UNL     1      43.863 -10.856   9.134  1.00  0.00    -0.352 N 
HETATM   37  H   UNL     1      42.858 -10.809   9.214  1.00  0.00     0.163 HD
HETATM   38  O   UNL     1      45.662 -11.287   7.783  1.00  0.00    -0.268 OA
BRANCH  36  39
HETATM   39  C   UNL     1      44.660 -10.261  10.206  1.00  0.00     0.084 C 
HETATM   40  C   UNL     1      44.570  -8.729  10.170  1.00  0.00     0.025 C 
HETATM   41  C   UNL     1      43.226  -8.198  10.670  1.00  0.00     0.002 C 
HETATM   42  C   UNL     1      42.884  -8.744  12.051  1.00  0.00     0.000 C 
HETATM   43  C   UNL     1      42.919 -10.268  12.073  1.00  0.00     0.002 C 
HETATM   44  C   UNL     1      44.264 -10.805  11.587  1.00  0.00     0.025 C 
ENDBRANCH  36  39
ENDBRANCH  11  35
TORSDOF 7
ENDMDL
MODEL 7
REMARK VINA RESULT:      -8.4      3.147      4.951
REMARK  7 active torsions:
REMARK  status: ('A' for Active; 'I' for Inactive)
REMARK    1  A    between atoms: C_3  and  N_4 
REMARK       I    between atoms: N_4  and  C_5 
REMARK    2  A    between atoms: C_5  and  C_6 
REMARK    3  A    between atoms: C_6  and  N_7 
REMARK    4  A    between atoms: N_10  and  C_11 
REMARK    5  A    between atoms: C_11  and  C_12 
REMARK    6  A    between atoms: C_27  and  C_28 
REMARK       I    between atoms: C_28  and  N_29 
REMARK    7  A    between atoms: N_29  and  C_30 
ROOT
HETATM    1  N   UNL     1      39.834 -11.694   3.973  1.00  0.00    -0.290 N 
HETATM    2  C   UNL     1      40.192 -11.544   5.314  1.00  0.00     0.332 C 
HETATM    3  O   UNL     1      40.356 -12.533   6.037  1.00  0.00    -0.246 OA
HETATM    4  N   UNL     1      40.390 -10.253   5.775  1.00  0.00    -0.261 N 
HETATM    5  C   UNL     1      40.499  -9.143   4.957  1.00  0.00     0.264 C 
HETATM    6  O   UNL     1      40.768  -8.012   5.356  1.00  0.00    -0.267 OA
HETATM    7  C   UNL     1      40.318  -9.360   3.511  1.00  0.00     0.059 A 
HETATM    8  C   UNL     1      39.942 -10.620   3.046  1.00  0.00     0.056 A 
HETATM    9  C   UNL     1      40.564  -8.299   2.624  1.00  0.00     0.020 A 
HETATM   10  C   UNL     1      40.431  -8.481   1.247  1.00  0.00     0.018 A 
HETATM   11  C   UNL     1      40.008  -9.717   0.757  1.00  0.00     0.034 A 
HETATM   12  C   UNL     1      39.754 -10.770   1.662  1.00  0.00     0.048 A 
ENDROOT
BRANCH   1  13
HETATM   13  C   UNL     1      39.621 -13.077   3.550  1.00  0.00     0.237 C 
BRANCH  13  14
HETATM   14  C   UNL     1      40.944 -13.841   3.335  1.00  0.00     0.240 C 
HETATM   15  N   UNL     1      40.934 -15.077   3.959  1.00  0.00    -0.323 N 
HETATM   16  H   UNL     1      40.053 -15.397   4.350  1.00  0.00     0.169 HD
HETATM   17  O   UNL     1      41.884 -13.344   2.718  1.00  0.00    -0.271 OA
BRANCH  15  18
HETATM   18  C   UNL     1      41.971 -16.028   4.047  1.00  0.00     0.073 A 
HETATM   19  C   UNL     1      42.846 -16.157   5.124  1.00  0.00     0.033 A 
HETATM   20  C   UNL     1      43.834 -17.152   5.108  1.00  0.00     0.002 A 
HETATM   21  C   UNL     1      43.953 -18.022   4.021  1.00  0.00     0.003 A 
HETATM   22  C   UNL     1      43.084 -17.901   2.942  1.00  0.00     0.044 A 
HETATM   23  C   UNL     1      42.108 -16.908   2.964  1.00  0.00     0.143 A 
HETATM   24  F   UNL     1      41.268 -16.802   1.920  1.00  0.00    -0.204 F 
ENDBRANCH  15  18
ENDBRANCH  13  14
ENDBRANCH   1  13
BRANCH   4  25
HETATM   25  C   UNL     1      40.688 -10.086   7.194  1.00  0.00     0.175 C 
BRANCH  25  26
HETATM   26  C   UNL     1      42.157  -9.842   7.475  1.00  0.00    -0.037 A 
HETATM   27  C   UNL     1      43.134 -10.755   7.046  1.00  0.00     0.048 A 
HETATM   28  C   UNL     1      44.454 -10.477   7.336  1.00  0.00     0.105 A 
HETATM   29  C   UNL     1      44.825  -9.351   8.034  1.00  0.00     0.105 A 
HETATM   30  O   UNL     1      45.523 -11.244   6.989  1.00  0.00    -0.323 OA
HETATM   31  O   UNL     1      46.170  -9.268   8.215  1.00  0.00    -0.323 OA
HETATM   32  C   UNL     1      43.897  -8.438   8.481  1.00  0.00     0.040 A 
HETATM   33  C   UNL     1      46.607 -10.455   7.522  1.00  0.00     0.352 A 
HETATM   34  C   UNL     1      42.552  -8.688   8.196  1.00  0.00     0.012 A 
ENDBRANCH  25  26
ENDBRANCH   4  25
BRANCH  11  35
HETATM   35  C   UNL     1      39.859 -10.011  -0.701  1.00  0.00     0.252 C 
HETATM   36  N   UNL     1      39.788 -11.334  -1.090  1.00  0.00    -0.352 N 
HETATM   37  H   UNL     1      39.920 -12.072  -0.414  1.00  0.00     0.163 HD
HETATM   38  O   UNL     1      39.819  -9.080  -1.500  1.00  0.00    -0.268 OA
BRANCH  36  39
HETATM   39  C   UNL     1      39.696 -11.709  -2.500  1.00  0.00     0.084 C 
HETATM   40  C   UNL     1      40.666 -12.855  -2.826  1.00  0.00     0.025 C 
HETATM   41  C   UNL     1      40.199 -14.205  -2.280  1.00  0.00     0.002 C 
HETATM   42  C   UNL     1      38.779 -14.532  -2.727  1.00  0.00     0.000 C 
HETATM   43  C   UNL     1      37.806 -13.419  -2.354  1.00  0.00     0.002 C 
HETATM   44  C   UNL     1      38.259 -12.070  -2.907  1.00  0.00     0.025 C 
ENDBRANCH  36  39
ENDBRANCH  11  35
TORSDOF 7
ENDMDL
MODEL 8
REMARK VINA RESULT:      -8.3      2.766      8.882
REMARK  7 active torsions:
REMARK  status: ('A' for Active; 'I' for Inactive)
REMARK    1  A    between atoms: C_3  and  N_4 
REMARK       I    between atoms: N_4  and  C_5 
REMARK    2  A    between atoms: C_5  and  C_6 
REMARK    3  A    between atoms: C_6  and  N_7 
REMARK    4  A    between atoms: N_10  and  C_11 
REMARK    5  A    between atoms: C_11  and  C_12 
REMARK    6  A    between atoms: C_27  and  C_28 
REMARK       I    between atoms: C_28  and  N_29 
REMARK    7  A    between atoms: N_29  and  C_30 
ROOT
HETATM    1  N   UNL     1      42.869 -12.261   6.198  1.00  0.00    -0.290 N 
HETATM    2  C   UNL     1      43.190 -13.589   6.478  1.00  0.00     0.332 C 
HETATM    3  O   UNL     1      44.325 -13.898   6.857  1.00  0.00    -0.246 OA
HETATM    4  N   UNL     1      42.176 -14.525   6.350  1.00  0.00    -0.261 N 
HETATM    5  C   UNL     1      40.837 -14.207   6.209  1.00  0.00     0.264 C 
HETATM    6  O   UNL     1      39.927 -15.033   6.189  1.00  0.00    -0.267 OA
HETATM    7  C   UNL     1      40.498 -12.776   6.119  1.00  0.00     0.059 A 
HETATM    8  C   UNL     1      41.519 -11.829   6.068  1.00  0.00     0.056 A 
HETATM    9  C   UNL     1      39.146 -12.392   6.126  1.00  0.00     0.020 A 
HETATM   10  C   UNL     1      38.792 -11.043   6.073  1.00  0.00     0.018 A 
HETATM   11  C   UNL     1      39.793 -10.076   5.971  1.00  0.00     0.034 A 
HETATM   12  C   UNL     1      41.145 -10.479   5.955  1.00  0.00     0.048 A 
ENDROOT
BRANCH   1  13
HETATM   13  C   UNL     1      43.983 -11.323   6.334  1.00  0.00     0.237 C 
BRANCH  13  14
HETATM   14  C   UNL     1      44.231 -10.907   7.799  1.00  0.00     0.240 C 
HETATM   15  N   UNL     1      43.167 -10.192   8.320  1.00  0.00    -0.323 N 
HETATM   16  H   UNL     1      42.318 -10.143   7.764  1.00  0.00     0.169 HD
HETATM   17  O   UNL     1      45.288 -11.161   8.372  1.00  0.00    -0.271 OA
BRANCH  15  18
HETATM   18  C   UNL     1      43.047  -9.589   9.589  1.00  0.00     0.073 A 
HETATM   19  C   UNL     1      44.112  -9.302  10.440  1.00  0.00     0.033 A 
HETATM   20  C   UNL     1      43.874  -8.687  11.677  1.00  0.00     0.002 A 
HETATM   21  C   UNL     1      42.575  -8.354  12.071  1.00  0.00     0.003 A 
HETATM   22  C   UNL     1      41.505  -8.636  11.227  1.00  0.00     0.044 A 
HETATM   23  C   UNL     1      41.750  -9.250  10.003  1.00  0.00     0.143 A 
HETATM   24  F   UNL     1      40.711  -9.514   9.191  1.00  0.00    -0.204 F 
ENDBRANCH  15  18
ENDBRANCH  13  14
ENDBRANCH   1  13
BRANCH   4  25
HETATM   25  C   UNL     1      42.525 -15.925   6.564  1.00  0.00     0.175 C 
BRANCH  25  26
HETATM   26  C   UNL     1      42.745 -16.694   5.276  1.00  0.00    -0.037 A 
HETATM   27  C   UNL     1      43.374 -17.950   5.286  1.00  0.00     0.048 A 
HETATM   28  C   UNL     1      43.549 -18.597   4.080  1.00  0.00     0.105 A 
HETATM   29  C   UNL     1      43.138 -18.042   2.889  1.00  0.00     0.105 A 
HETATM   30  O   UNL     1      44.126 -19.817   3.908  1.00  0.00    -0.323 OA
HETATM   31  O   UNL     1      43.406 -18.841   1.822  1.00  0.00    -0.323 OA
HETATM   32  C   UNL     1      42.528 -16.810   2.838  1.00  0.00     0.040 A 
HETATM   33  C   UNL     1      44.003 -19.977   2.480  1.00  0.00     0.352 A 
HETATM   34  C   UNL     1      42.330 -16.133   4.044  1.00  0.00     0.012 A 
ENDBRANCH  25  26
ENDBRANCH   4  25
BRANCH  11  35
HETATM   35  C   UNL     1      39.511  -8.609   5.932  1.00  0.00     0.252 C 
HETATM   36  N   UNL     1      40.270  -7.783   6.736  1.00  0.00    -0.352 N 
HETATM   37  H   UNL     1      40.932  -8.175   7.389  1.00  0.00     0.163 HD
HETATM   38  O   UNL     1      38.615  -8.189   5.205  1.00  0.00    -0.268 OA
BRANCH  36  39
HETATM   39  C   UNL     1      40.022  -6.343   6.797  1.00  0.00     0.084 C 
HETATM   40  C   UNL     1      38.929  -6.019   7.826  1.00  0.00     0.025 C 
HETATM   41  C   UNL     1      39.411  -6.152   9.272  1.00  0.00     0.002 C 
HETATM   42  C   UNL     1      40.671  -5.332   9.522  1.00  0.00     0.000 C 
HETATM   43  C   UNL     1      41.777  -5.693   8.535  1.00  0.00     0.002 C 
HETATM   44  C   UNL     1      41.306  -5.550   7.089  1.00  0.00     0.025 C 
ENDBRANCH  36  39
ENDBRANCH  11  35
TORSDOF 7
ENDMDL
MODEL 9
REMARK VINA RESULT:      -8.3     19.332     22.503
REMARK  7 active torsions:
REMARK  status: ('A' for Active; 'I' for Inactive)
REMARK    1  A    between atoms: C_3  and  N_4 
REMARK       I    between atoms: N_4  and  C_5 
REMARK    2  A    between atoms: C_5  and  C_6 
REMARK    3  A    between atoms: C_6  and  N_7 
REMARK    4  A    between atoms: N_10  and  C_11 
REMARK    5  A    between atoms: C_11  and  C_12 
REMARK    6  A    between atoms: C_27  and  C_28 
REMARK       I    between atoms: C_28  and  N_29 
REMARK    7  A    between atoms: N_29  and  C_30 
ROOT
HETATM    1  N   UNL     1      47.238 -29.457   1.900  1.00  0.00    -0.290 N 
HETATM    2  C   UNL     1      47.017 -28.749   0.718  1.00  0.00     0.332 C 
HETATM    3  O   UNL     1      46.062 -27.971   0.618  1.00  0.00    -0.246 OA
HETATM    4  N   UNL     1      47.931 -28.930  -0.308  1.00  0.00    -0.261 N 
HETATM    5  C   UNL     1      49.155 -29.556  -0.157  1.00  0.00     0.264 C 
HETATM    6  O   UNL     1      50.005 -29.635  -1.042  1.00  0.00    -0.267 OA
HETATM    7  C   UNL     1      49.455 -30.123   1.168  1.00  0.00     0.059 A 
HETATM    8  C   UNL     1      48.477 -30.107   2.161  1.00  0.00     0.056 A 
HETATM    9  C   UNL     1      50.739 -30.637   1.418  1.00  0.00     0.020 A 
HETATM   10  C   UNL     1      51.064 -31.153   2.672  1.00  0.00     0.018 A 
HETATM   11  C   UNL     1      50.090 -31.195   3.670  1.00  0.00     0.034 A 
HETATM   12  C   UNL     1      48.802 -30.685   3.400  1.00  0.00     0.048 A 
ENDROOT
BRANCH   1  13
HETATM   13  C   UNL     1      46.232 -29.239   2.938  1.00  0.00     0.237 C 
BRANCH  13  14
HETATM   14  C   UNL     1      45.155 -30.343   2.960  1.00  0.00     0.240 C 
HETATM   15  N   UNL     1      43.879 -29.822   2.825  1.00  0.00    -0.323 N 
HETATM   16  H   UNL     1      43.797 -28.837   2.592  1.00  0.00     0.169 HD
HETATM   17  O   UNL     1      45.444 -31.525   3.131  1.00  0.00    -0.271 OA
BRANCH  15  18
HETATM   18  C   UNL     1      42.642 -30.498   2.864  1.00  0.00     0.073 A 
HETATM   19  C   UNL     1      41.879 -30.698   4.012  1.00  0.00     0.033 A 
HETATM   20  C   UNL     1      40.653 -31.376   3.929  1.00  0.00     0.002 A 
HETATM   21  C   UNL     1      40.185 -31.854   2.702  1.00  0.00     0.003 A 
HETATM   22  C   UNL     1      40.940 -31.658   1.551  1.00  0.00     0.044 A 
HETATM   23  C   UNL     1      42.156 -30.988   1.643  1.00  0.00     0.143 A 
HETATM   24  F   UNL     1      42.877 -30.797   0.524  1.00  0.00    -0.204 F 
ENDBRANCH  15  18
ENDBRANCH  13  14
ENDBRANCH   1  13
BRANCH   4  25
HETATM   25  C   UNL     1      47.662 -28.254  -1.573  1.00  0.00     0.175 C 
BRANCH  25  26
HETATM   26  C   UNL     1      46.681 -28.999  -2.456  1.00  0.00    -0.037 A 
HETATM   27  C   UNL     1      46.872 -30.358  -2.757  1.00  0.00     0.048 A 
HETATM   28  C   UNL     1      45.946 -30.978  -3.570  1.00  0.00     0.105 A 
HETATM   29  C   UNL     1      44.866 -30.304  -4.091  1.00  0.00     0.105 A 
HETATM   30  O   UNL     1      45.972 -32.284  -3.953  1.00  0.00    -0.323 OA
HETATM   31  O   UNL     1      44.080 -31.097  -4.866  1.00  0.00    -0.323 OA
HETATM   32  C   UNL     1      44.650 -28.970  -3.828  1.00  0.00     0.040 A 
HETATM   33  C   UNL     1      44.770 -32.358  -4.747  1.00  0.00     0.352 A 
HETATM   34  C   UNL     1      45.567 -28.316  -3.001  1.00  0.00     0.012 A 
ENDBRANCH  25  26
ENDBRANCH   4  25
BRANCH  11  35
HETATM   35  C   UNL     1      50.352 -31.709   5.049  1.00  0.00     0.252 C 
HETATM   36  N   UNL     1      51.656 -31.701   5.505  1.00  0.00    -0.352 N 
HETATM   37  H   UNL     1      52.410 -31.437   4.888  1.00  0.00     0.163 HD
HETATM   38  O   UNL     1      49.415 -32.129   5.721  1.00  0.00    -0.268 OA
BRANCH  36  39
HETATM   39  C   UNL     1      52.005 -32.236   6.819  1.00  0.00     0.084 C 
HETATM   40  C   UNL     1      52.202 -33.758   6.757  1.00  0.00     0.025 C 
HETATM   41  C   UNL     1      53.510 -34.163   6.076  1.00  0.00     0.002 C 
HETATM   42  C   UNL     1      54.712 -33.471   6.710  1.00  0.00     0.000 C 
HETATM   43  C   UNL     1      54.541 -31.956   6.722  1.00  0.00     0.002 C 
HETATM   44  C   UNL     1      53.243 -31.544   7.412  1.00  0.00     0.025 C 
ENDBRANCH  36  39
ENDBRANCH  11  35
TORSDOF 7
ENDMDL
MODEL 10
REMARK VINA RESULT:      -8.0      5.819      9.781
REMARK  7 active torsions:
REMARK  status: ('A' for Active; 'I' for Inactive)
REMARK    1  A    between atoms: C_3  and  N_4 
REMARK       I    between atoms: N_4  and  C_5 
REMARK    2  A    between atoms: C_5  and  C_6 
REMARK    3  A    between atoms: C_6  and  N_7 
REMARK    4  A    between atoms: N_10  and  C_11 
REMARK    5  A    between atoms: C_11  and  C_12 
REMARK    6  A    between atoms: C_27  and  C_28 
REMARK       I    between atoms: C_28  and  N_29 
REMARK    7  A    between atoms: N_29  and  C_30 
ROOT
HETATM    1  N   UNL     1      41.161 -11.931   1.297  1.00  0.00    -0.290 N 
HETATM    2  C   UNL     1      40.732 -13.008   2.075  1.00  0.00     0.332 C 
HETATM    3  O   UNL     1      40.701 -12.922   3.308  1.00  0.00    -0.246 OA
HETATM    4  N   UNL     1      40.313 -14.145   1.405  1.00  0.00    -0.261 N 
HETATM    5  C   UNL     1      40.059 -14.197   0.046  1.00  0.00     0.264 C 
HETATM    6  O   UNL     1      39.598 -15.178  -0.535  1.00  0.00    -0.267 OA
HETATM    7  C   UNL     1      40.328 -12.975  -0.730  1.00  0.00     0.059 A 
HETATM    8  C   UNL     1      40.917 -11.877  -0.103  1.00  0.00     0.056 A 
HETATM    9  C   UNL     1      39.949 -12.925  -2.082  1.00  0.00     0.020 A 
HETATM   10  C   UNL     1      40.162 -11.771  -2.837  1.00  0.00     0.018 A 
HETATM   11  C   UNL     1      40.795 -10.675  -2.248  1.00  0.00     0.034 A 
HETATM   12  C   UNL     1      41.179 -10.745  -0.892  1.00  0.00     0.048 A 
ENDROOT
BRANCH   1  13
HETATM   13  C   UNL     1      41.608 -10.767   2.061  1.00  0.00     0.237 C 
BRANCH  13  14
HETATM   14  C   UNL     1      40.496  -9.712   2.238  1.00  0.00     0.240 C 
HETATM   15  N   UNL     1      40.928  -8.443   1.892  1.00  0.00    -0.323 N 
HETATM   16  H   UNL     1      41.836  -8.364   1.443  1.00  0.00     0.169 HD
HETATM   17  O   UNL     1      39.390 -10.008   2.686  1.00  0.00    -0.271 OA
BRANCH  15  18
HETATM   18  C   UNL     1      40.232  -7.220   1.979  1.00  0.00     0.073 A 
HETATM   19  C   UNL     1      39.162  -6.852   1.166  1.00  0.00     0.033 A 
HETATM   20  C   UNL     1      38.535  -5.612   1.353  1.00  0.00     0.002 A 
HETATM   21  C   UNL     1      38.970  -4.736   2.351  1.00  0.00     0.003 A 
HETATM   22  C   UNL     1      40.036  -5.096   3.168  1.00  0.00     0.044 A 
HETATM   23  C   UNL     1      40.655  -6.327   2.973  1.00  0.00     0.143 A 
HETATM   24  F   UNL     1      41.681  -6.669   3.772  1.00  0.00    -0.204 F 
ENDBRANCH  15  18
ENDBRANCH  13  14
ENDBRANCH   1  13
BRANCH   4  25
HETATM   25  C   UNL     1      39.939 -15.301   2.213  1.00  0.00     0.175 C 
BRANCH  25  26
HETATM   26  C   UNL     1      41.128 -16.031   2.804  1.00  0.00    -0.037 A 
HETATM   27  C   UNL     1      41.235 -16.230   4.190  1.00  0.00     0.048 A 
HETATM   28  C   UNL     1      42.344 -16.899   4.666  1.00  0.00     0.105 A 
HETATM   29  C   UNL     1      43.335 -17.356   3.827  1.00  0.00     0.105 A 
HETATM   30  O   UNL     1      42.601 -17.185   5.971  1.00  0.00    -0.323 OA
HETATM   31  O   UNL     1      44.337 -17.984   4.497  1.00  0.00    -0.323 OA
HETATM   32  C   UNL     1      43.272 -17.171   2.465  1.00  0.00     0.040 A 
HETATM   33  C   UNL     1      43.849 -17.900   5.852  1.00  0.00     0.352 A 
HETATM   34  C   UNL     1      42.157 -16.503   1.952  1.00  0.00     0.012 A 
ENDBRANCH  25  26
ENDBRANCH   4  25
BRANCH  11  35
HETATM   35  C   UNL     1      41.045  -9.390  -2.970  1.00  0.00     0.252 C 
HETATM   36  N   UNL     1      41.379  -8.281  -2.219  1.00  0.00    -0.352 N 
HETATM   37  H   UNL     1      41.368  -8.326  -1.211  1.00  0.00     0.163 HD
HETATM   38  O   UNL     1      40.933  -9.357  -4.192  1.00  0.00    -0.268 OA
BRANCH  36  39
HETATM   39  C   UNL     1      41.586  -6.975  -2.842  1.00  0.00     0.084 C 
HETATM   40  C   UNL     1      41.048  -5.850  -1.946  1.00  0.00     0.025 C 
HETATM   41  C   UNL     1      41.936  -5.580  -0.729  1.00  0.00     0.002 C 
HETATM   42  C   UNL     1      43.383  -5.326  -1.134  1.00  0.00     0.000 C 
HETATM   43  C   UNL     1      43.935  -6.470  -1.978  1.00  0.00     0.002 C 
HETATM   44  C   UNL     1      43.061  -6.736  -3.202  1.00  0.00     0.025 C 
ENDBRANCH  36  39
ENDBRANCH  11  35
TORSDOF 7
ENDMDL
