MODEL 1
REMARK VINA RESULT:      -9.4      0.000      0.000
REMARK  7 active torsions:
REMARK  status: ('A' for Active; 'I' for Inactive)
REMARK    1  A    between atoms: C_4  and  N_5 
REMARK    2  A    between atoms: C_6  and  S_7 
REMARK    3  A    between atoms: S_7  and  C_8 
REMARK    4  A    between atoms: C_8  and  C_9 
REMARK       I    between atoms: C_9  and  N_10 
REMARK    5  A    between atoms: C_12  and  C_13 
REMARK    6  A    between atoms: C_13  and  N_14 
REMARK       I    between atoms: N_14  and  C_15 
REMARK       I    between atoms: C_15  and  N_16 
REMARK    7  A    between atoms: N_16  and  C_17 
ROOT
HETATM    1  C   UNL     1      43.526 -11.867   5.643  1.00  0.00     0.229 C 
HETATM    2  N   UNL     1      42.914 -13.099   5.925  1.00  0.00    -0.351 N 
HETATM    3  C   UNL     1      41.468 -13.246   6.074  1.00  0.00     0.132 C 
HETATM    4  C   UNL     1      40.948 -14.686   5.966  1.00  0.00     0.021 C 
HETATM    5  C   UNL     1      41.807 -15.657   6.785  1.00  0.00     0.009 C 
HETATM    6  C   UNL     1      43.290 -15.488   6.492  1.00  0.00     0.020 C 
HETATM    7  C   UNL     1      43.725 -14.043   6.697  1.00  0.00     0.126 C 
HETATM    8  O   UNL     1      44.724 -11.689   5.903  1.00  0.00    -0.273 OA
ENDROOT
BRANCH   1   9
HETATM    9  C   UNL     1      42.802 -10.816   4.810  1.00  0.00     0.185 C 
BRANCH   9  10
HETATM   10  S   UNL     1      42.522 -11.116   3.055  1.00  0.00    -0.082 SA
BRANCH  10  11
HETATM   11  C   UNL     1      40.976 -10.406   2.731  1.00  0.00     0.173 A 
HETATM   12  N   UNL     1      40.145 -10.770   1.673  1.00  0.00    -0.300 N 
HETATM   13  C   UNL     1      39.159  -9.797   1.648  1.00  0.00     0.118 A 
HETATM   14  C   UNL     1      39.402  -8.968   2.715  1.00  0.00     0.137 A 
HETATM   15  N   UNL     1      40.532  -9.349   3.373  1.00  0.00    -0.235 NA
BRANCH  12  16
HETATM   16  C   UNL     1      40.205 -11.884   0.779  1.00  0.00     0.042 A 
HETATM   17  C   UNL     1      40.493 -11.714  -0.582  1.00  0.00     0.037 A 
HETATM   18  C   UNL     1      40.553 -12.814  -1.450  1.00  0.00    -0.059 A 
HETATM   19  C   UNL     1      40.882 -12.626  -2.904  1.00  0.00     0.048 C 
HETATM   20  C   UNL     1      40.338 -14.098  -0.942  1.00  0.00     0.013 A 
HETATM   21  C   UNL     1      40.063 -14.293   0.417  1.00  0.00    -0.059 A 
HETATM   22  C   UNL     1      40.010 -13.184   1.273  1.00  0.00     0.037 A 
HETATM   23  C   UNL     1      39.835 -15.683   0.936  1.00  0.00     0.048 C 
ENDBRANCH  12  16
ENDBRANCH  10  11
ENDBRANCH   9  10
ENDBRANCH   1   9
BRANCH   4  24
HETATM   24  C   UNL     1      40.822 -15.081   4.483  1.00  0.00     0.130 C 
BRANCH  24  25
HETATM   25  N   UNL     1      41.777 -16.090   4.059  1.00  0.00    -0.342 N 
HETATM   26  C   UNL     1      42.782 -15.789   3.188  1.00  0.00     0.320 C 
HETATM   27  N   UNL     1      43.694 -16.764   2.920  1.00  0.00    -0.309 N 
HETATM   28  O   UNL     1      42.929 -14.677   2.685  1.00  0.00    -0.247 OA
HETATM   29  H   UNL     1      44.485 -16.379   2.416  1.00  0.00     0.170 HD
HETATM   30  H   UNL     1      42.072 -16.729   4.784  1.00  0.00     0.164 HD
BRANCH  27  31
HETATM   31  C   UNL     1      43.734 -18.144   3.189  1.00  0.00     0.039 A 
HETATM   32  C   UNL     1      44.120 -18.703   4.407  1.00  0.00     0.071 A 
HETATM   33  C   UNL     1      44.142 -20.088   4.557  1.00  0.00     0.118 A 
HETATM   34  F   UNL     1      44.529 -20.614   5.727  1.00  0.00    -0.206 F 
HETATM   35  C   UNL     1      43.766 -20.935   3.523  1.00  0.00     0.042 A 
HETATM   36  C   UNL     1      43.341 -20.387   2.317  1.00  0.00     0.005 A 
HETATM   37  C   UNL     1      43.317 -18.999   2.157  1.00  0.00     0.030 A 
ENDBRANCH  27  31
ENDBRANCH  24  25
ENDBRANCH   4  24
TORSDOF 7
ENDMDL
MODEL 2
REMARK VINA RESULT:      -9.4      4.630      8.583
REMARK  7 active torsions:
REMARK  status: ('A' for Active; 'I' for Inactive)
REMARK    1  A    between atoms: C_4  and  N_5 
REMARK    2  A    between atoms: C_6  and  S_7 
REMARK    3  A    between atoms: S_7  and  C_8 
REMARK    4  A    between atoms: C_8  and  C_9 
REMARK       I    between atoms: C_9  and  N_10 
REMARK    5  A    between atoms: C_12  and  C_13 
REMARK    6  A    between atoms: C_13  and  N_14 
REMARK       I    between atoms: N_14  and  C_15 
REMARK       I    between atoms: C_15  and  N_16 
REMARK    7  A    between atoms: N_16  and  C_17 
ROOT
HETATM    1  C   UNL     1      42.477 -11.261   3.348  1.00  0.00     0.229 C 
HETATM    2  N   UNL     1      42.039 -10.503   4.446  1.00  0.00    -0.351 N 
HETATM    3  C   UNL     1      41.646 -11.107   5.716  1.00  0.00     0.132 C 
HETATM    4  C   UNL     1      41.599 -10.140   6.907  1.00  0.00     0.021 C 
HETATM    5  C   UNL     1      40.889  -8.831   6.541  1.00  0.00     0.009 C 
HETATM    6  C   UNL     1      41.431  -8.233   5.251  1.00  0.00     0.020 C 
HETATM    7  C   UNL     1      41.369  -9.244   4.114  1.00  0.00     0.126 C 
HETATM    8  O   UNL     1      42.427 -10.792   2.202  1.00  0.00    -0.273 OA
ENDROOT
BRANCH   1   9
HETATM    9  C   UNL     1      43.226 -12.571   3.562  1.00  0.00     0.185 C 
BRANCH   9  10
HETATM   10  S   UNL     1      43.418 -13.718   2.185  1.00  0.00    -0.082 SA
BRANCH  10  11
HETATM   11  C   UNL     1      41.857 -14.441   1.996  1.00  0.00     0.173 A 
HETATM   12  N   UNL     1      41.574 -15.784   2.236  1.00  0.00    -0.300 N 
HETATM   13  C   UNL     1      40.299 -15.972   1.727  1.00  0.00     0.118 A 
HETATM   14  C   UNL     1      39.868 -14.744   1.291  1.00  0.00     0.137 A 
HETATM   15  N   UNL     1      40.842 -13.806   1.455  1.00  0.00    -0.235 NA
BRANCH  12  16
HETATM   16  C   UNL     1      42.348 -16.802   2.874  1.00  0.00     0.042 A 
HETATM   17  C   UNL     1      42.762 -16.678   4.208  1.00  0.00     0.037 A 
HETATM   18  C   UNL     1      43.519 -17.684   4.826  1.00  0.00    -0.059 A 
HETATM   19  C   UNL     1      43.942 -17.553   6.261  1.00  0.00     0.048 C 
HETATM   20  C   UNL     1      43.847 -18.834   4.102  1.00  0.00     0.013 A 
HETATM   21  C   UNL     1      43.432 -18.986   2.774  1.00  0.00    -0.059 A 
HETATM   22  C   UNL     1      42.673 -17.973   2.170  1.00  0.00     0.037 A 
HETATM   23  C   UNL     1      43.800 -20.230   2.019  1.00  0.00     0.048 C 
ENDBRANCH  12  16
ENDBRANCH  10  11
ENDBRANCH   9  10
ENDBRANCH   1   9
BRANCH   4  24
HETATM   24  C   UNL     1      43.020  -9.932   7.462  1.00  0.00     0.130 C 
BRANCH  24  25
HETATM   25  N   UNL     1      43.080  -9.844   8.911  1.00  0.00    -0.342 N 
HETATM   26  C   UNL     1      44.061 -10.474   9.617  1.00  0.00     0.320 C 
HETATM   27  N   UNL     1      44.105 -10.258  10.961  1.00  0.00    -0.309 N 
HETATM   28  O   UNL     1      44.927 -11.171   9.094  1.00  0.00    -0.247 OA
HETATM   29  H   UNL     1      44.969 -10.619  11.348  1.00  0.00     0.170 HD
HETATM   30  H   UNL     1      42.849  -8.937   9.292  1.00  0.00     0.164 HD
BRANCH  27  31
HETATM   31  C   UNL     1      43.209  -9.668  11.870  1.00  0.00     0.039 A 
HETATM   32  C   UNL     1      42.074 -10.295  12.384  1.00  0.00     0.071 A 
HETATM   33  C   UNL     1      41.241  -9.607  13.264  1.00  0.00     0.118 A 
HETATM   34  F   UNL     1      40.145 -10.215  13.739  1.00  0.00    -0.206 F 
HETATM   35  C   UNL     1      41.524  -8.308  13.663  1.00  0.00     0.042 A 
HETATM   36  C   UNL     1      42.674  -7.687  13.188  1.00  0.00     0.005 A 
HETATM   37  C   UNL     1      43.516  -8.369  12.303  1.00  0.00     0.030 A 
ENDBRANCH  27  31
ENDBRANCH  24  25
ENDBRANCH   4  24
TORSDOF 7
ENDMDL
MODEL 3
REMARK VINA RESULT:      -9.2      4.021      7.342
REMARK  7 active torsions:
REMARK  status: ('A' for Active; 'I' for Inactive)
REMARK    1  A    between atoms: C_4  and  N_5 
REMARK    2  A    between atoms: C_6  and  S_7 
REMARK    3  A    between atoms: S_7  and  C_8 
REMARK    4  A    between atoms: C_8  and  C_9 
REMARK       I    between atoms: C_9  and  N_10 
REMARK    5  A    between atoms: C_12  and  C_13 
REMARK    6  A    between atoms: C_13  and  N_14 
REMARK       I    between atoms: N_14  and  C_15 
REMARK       I    between atoms: C_15  and  N_16 
REMARK    7  A    between atoms: N_16  and  C_17 
ROOT
HETATM    1  C   UNL     1      41.262 -10.664   4.518  1.00  0.00     0.229 C 
HETATM    2  N   UNL     1      40.868 -11.832   3.843  1.00  0.00    -0.351 N 
HETATM    3  C   UNL     1      41.826 -12.804   3.324  1.00  0.00     0.132 C 
HETATM    4  C   UNL     1      41.237 -14.183   2.997  1.00  0.00     0.021 C 
HETATM    5  C   UNL     1      39.919 -14.063   2.222  1.00  0.00     0.009 C 
HETATM    6  C   UNL     1      38.953 -13.097   2.892  1.00  0.00     0.020 C 
HETATM    7  C   UNL     1      39.605 -11.737   3.108  1.00  0.00     0.126 C 
HETATM    8  O   UNL     1      40.493  -9.696   4.597  1.00  0.00    -0.273 OA
ENDROOT
BRANCH   1   9
HETATM    9  C   UNL     1      42.535 -10.647   5.355  1.00  0.00     0.185 C 
BRANCH   9  10
HETATM   10  S   UNL     1      42.449 -10.171   7.091  1.00  0.00    -0.082 SA
BRANCH  10  11
HETATM   11  C   UNL     1      44.099 -10.115   7.613  1.00  0.00     0.173 A 
HETATM   12  N   UNL     1      44.589  -9.254   8.593  1.00  0.00    -0.300 N 
HETATM   13  C   UNL     1      45.967  -9.371   8.509  1.00  0.00     0.118 A 
HETATM   14  C   UNL     1      46.219 -10.330   7.559  1.00  0.00     0.137 A 
HETATM   15  N   UNL     1      45.057 -10.777   7.007  1.00  0.00    -0.235 NA
BRANCH  12  16
HETATM   16  C   UNL     1      43.904  -8.420   9.531  1.00  0.00     0.042 A 
HETATM   17  C   UNL     1      43.410  -7.161   9.165  1.00  0.00     0.037 A 
HETATM   18  C   UNL     1      42.737  -6.352  10.092  1.00  0.00    -0.059 A 
HETATM   19  C   UNL     1      42.192  -5.011   9.687  1.00  0.00     0.048 C 
HETATM   20  C   UNL     1      42.542  -6.821  11.394  1.00  0.00     0.013 A 
HETATM   21  C   UNL     1      43.014  -8.082  11.778  1.00  0.00    -0.059 A 
HETATM   22  C   UNL     1      43.683  -8.881  10.839  1.00  0.00     0.037 A 
HETATM   23  C   UNL     1      42.793  -8.561  13.183  1.00  0.00     0.048 C 
ENDBRANCH  12  16
ENDBRANCH  10  11
ENDBRANCH   9  10
ENDBRANCH   1   9
BRANCH   4  24
HETATM   24  C   UNL     1      41.116 -15.014   4.288  1.00  0.00     0.130 C 
BRANCH  24  25
HETATM   25  N   UNL     1      42.051 -16.122   4.366  1.00  0.00    -0.342 N 
HETATM   26  C   UNL     1      43.265 -15.981   4.971  1.00  0.00     0.320 C 
HETATM   27  N   UNL     1      44.040 -17.094   5.091  1.00  0.00    -0.309 N 
HETATM   28  O   UNL     1      43.659 -14.922   5.454  1.00  0.00    -0.247 OA
HETATM   29  H   UNL     1      44.822 -16.915   5.709  1.00  0.00     0.170 HD
HETATM   30  H   UNL     1      41.630 -17.022   4.548  1.00  0.00     0.164 HD
BRANCH  27  31
HETATM   31  C   UNL     1      43.967 -18.382   4.530  1.00  0.00     0.039 A 
HETATM   32  C   UNL     1      43.912 -18.648   3.161  1.00  0.00     0.071 A 
HETATM   33  C   UNL     1      43.818 -19.965   2.715  1.00  0.00     0.118 A 
HETATM   34  F   UNL     1      43.751 -20.207   1.399  1.00  0.00    -0.206 F 
HETATM   35  C   UNL     1      43.799 -21.031   3.604  1.00  0.00     0.042 A 
HETATM   36  C   UNL     1      43.894 -20.780   4.969  1.00  0.00     0.005 A 
HETATM   37  C   UNL     1      43.987 -19.461   5.426  1.00  0.00     0.030 A 
ENDBRANCH  27  31
ENDBRANCH  24  25
ENDBRANCH   4  24
TORSDOF 7
ENDMDL
MODEL 4
REMARK VINA RESULT:      -9.2      4.708      8.027
REMARK  7 active torsions:
REMARK  status: ('A' for Active; 'I' for Inactive)
REMARK    1  A    between atoms: C_4  and  N_5 
REMARK    2  A    between atoms: C_6  and  S_7 
REMARK    3  A    between atoms: S_7  and  C_8 
REMARK    4  A    between atoms: C_8  and  C_9 
REMARK       I    between atoms: C_9  and  N_10 
REMARK    5  A    between atoms: C_12  and  C_13 
REMARK    6  A    between atoms: C_13  and  N_14 
REMARK       I    between atoms: N_14  and  C_15 
REMARK       I    between atoms: C_15  and  N_16 
REMARK    7  A    between atoms: N_16  and  C_17 
ROOT
HETATM    1  C   UNL     1      41.394  -9.799   5.842  1.00  0.00     0.229 C 
HETATM    2  N   UNL     1      41.939 -10.930   5.212  1.00  0.00    -0.351 N 
HETATM    3  C   UNL     1      42.999 -11.734   5.813  1.00  0.00     0.132 C 
HETATM    4  C   UNL     1      43.180 -13.130   5.202  1.00  0.00     0.021 C 
HETATM    5  C   UNL     1      43.165 -13.080   3.670  1.00  0.00     0.009 C 
HETATM    6  C   UNL     1      41.973 -12.298   3.139  1.00  0.00     0.020 C 
HETATM    7  C   UNL     1      41.922 -10.903   3.748  1.00  0.00     0.126 C 
HETATM    8  O   UNL     1      40.805  -8.934   5.179  1.00  0.00    -0.273 OA
ENDROOT
BRANCH   1   9
HETATM    9  C   UNL     1      41.314  -9.725   7.363  1.00  0.00     0.185 C 
BRANCH   9  10
HETATM   10  S   UNL     1      42.267  -8.472   8.240  1.00  0.00    -0.082 SA
BRANCH  10  11
HETATM   11  C   UNL     1      43.655  -9.318   8.839  1.00  0.00     0.173 A 
HETATM   12  N   UNL     1      43.955  -9.486  10.189  1.00  0.00    -0.300 N 
HETATM   13  C   UNL     1      45.248  -9.986  10.203  1.00  0.00     0.118 A 
HETATM   14  C   UNL     1      45.613 -10.157   8.891  1.00  0.00     0.137 A 
HETATM   15  N   UNL     1      44.623  -9.735   8.056  1.00  0.00    -0.235 NA
BRANCH  12  16
HETATM   16  C   UNL     1      43.168  -9.248  11.359  1.00  0.00     0.042 A 
HETATM   17  C   UNL     1      43.534  -8.277  12.301  1.00  0.00     0.037 A 
HETATM   18  C   UNL     1      42.753  -8.049  13.443  1.00  0.00    -0.059 A 
HETATM   19  C   UNL     1      43.141  -6.993  14.438  1.00  0.00     0.048 C 
HETATM   20  C   UNL     1      41.583  -8.792  13.630  1.00  0.00     0.013 A 
HETATM   21  C   UNL     1      41.191  -9.756  12.695  1.00  0.00    -0.059 A 
HETATM   22  C   UNL     1      41.980  -9.971  11.556  1.00  0.00     0.037 A 
HETATM   23  C   UNL     1      39.931 -10.540  12.922  1.00  0.00     0.048 C 
ENDBRANCH  12  16
ENDBRANCH  10  11
ENDBRANCH   9  10
ENDBRANCH   1   9
BRANCH   4  24
HETATM   24  C   UNL     1      42.133 -14.093   5.794  1.00  0.00     0.130 C 
BRANCH  24  25
HETATM   25  N   UNL     1      42.591 -15.468   5.899  1.00  0.00    -0.342 N 
HETATM   26  C   UNL     1      42.893 -16.022   7.107  1.00  0.00     0.320 C 
HETATM   27  N   UNL     1      43.217 -17.345   7.129  1.00  0.00    -0.309 N 
HETATM   28  O   UNL     1      42.833 -15.403   8.167  1.00  0.00    -0.247 OA
HETATM   29  H   UNL     1      43.240 -17.687   8.082  1.00  0.00     0.170 HD
HETATM   30  H   UNL     1      42.128 -16.118   5.279  1.00  0.00     0.164 HD
BRANCH  27  31
HETATM   31  C   UNL     1      43.524 -18.275   6.120  1.00  0.00     0.039 A 
HETATM   32  C   UNL     1      43.879 -17.940   4.813  1.00  0.00     0.071 A 
HETATM   33  C   UNL     1      44.143 -18.947   3.887  1.00  0.00     0.118 A 
HETATM   34  F   UNL     1      44.467 -18.613   2.631  1.00  0.00    -0.206 F 
HETATM   35  C   UNL     1      44.082 -20.289   4.239  1.00  0.00     0.042 A 
HETATM   36  C   UNL     1      43.770 -20.634   5.550  1.00  0.00     0.005 A 
HETATM   37  C   UNL     1      43.502 -19.630   6.486  1.00  0.00     0.030 A 
ENDBRANCH  27  31
ENDBRANCH  24  25
ENDBRANCH   4  24
TORSDOF 7
ENDMDL
MODEL 5
REMARK VINA RESULT:      -9.1      3.379      7.566
REMARK  7 active torsions:
REMARK  status: ('A' for Active; 'I' for Inactive)
REMARK    1  A    between atoms: C_4  and  N_5 
REMARK    2  A    between atoms: C_6  and  S_7 
REMARK    3  A    between atoms: S_7  and  C_8 
REMARK    4  A    between atoms: C_8  and  C_9 
REMARK       I    between atoms: C_9  and  N_10 
REMARK    5  A    between atoms: C_12  and  C_13 
REMARK    6  A    between atoms: C_13  and  N_14 
REMARK       I    between atoms: N_14  and  C_15 
REMARK       I    between atoms: C_15  and  N_16 
REMARK    7  A    between atoms: N_16  and  C_17 
ROOT
HETATM    1  C   UNL     1      43.195 -16.014   6.224  1.00  0.00     0.229 C 
HETATM    2  N   UNL     1      43.173 -16.683   4.989  1.00  0.00    -0.351 N 
HETATM    3  C   UNL     1      42.071 -16.550   4.039  1.00  0.00     0.132 C 
HETATM    4  C   UNL     1      42.393 -17.001   2.607  1.00  0.00     0.021 C 
HETATM    5  C   UNL     1      43.131 -18.345   2.592  1.00  0.00     0.009 C 
HETATM    6  C   UNL     1      44.316 -18.352   3.547  1.00  0.00     0.020 C 
HETATM    7  C   UNL     1      43.883 -17.963   4.954  1.00  0.00     0.126 C 
HETATM    8  O   UNL     1      43.908 -16.427   7.148  1.00  0.00    -0.273 OA
ENDROOT
BRANCH   1   9
HETATM    9  C   UNL     1      42.528 -14.652   6.377  1.00  0.00     0.185 C 
BRANCH   9  10
HETATM   10  S   UNL     1      43.521 -13.156   6.217  1.00  0.00    -0.082 SA
BRANCH  10  11
HETATM   11  C   UNL     1      42.367 -11.866   6.181  1.00  0.00     0.173 A 
HETATM   12  N   UNL     1      42.400 -10.753   7.018  1.00  0.00    -0.300 N 
HETATM   13  C   UNL     1      41.180 -10.126   6.820  1.00  0.00     0.118 A 
HETATM   14  C   UNL     1      40.531 -10.838   5.841  1.00  0.00     0.137 A 
HETATM   15  N   UNL     1      41.271 -11.915   5.459  1.00  0.00    -0.235 NA
BRANCH  12  16
HETATM   16  C   UNL     1      43.421 -10.274   7.897  1.00  0.00     0.042 A 
HETATM   17  C   UNL     1      43.124  -9.842   9.197  1.00  0.00     0.037 A 
HETATM   18  C   UNL     1      44.133  -9.378  10.052  1.00  0.00    -0.059 A 
HETATM   19  C   UNL     1      43.809  -8.935  11.451  1.00  0.00     0.048 C 
HETATM   20  C   UNL     1      45.457  -9.365   9.603  1.00  0.00     0.013 A 
HETATM   21  C   UNL     1      45.779  -9.806   8.314  1.00  0.00    -0.059 A 
HETATM   22  C   UNL     1      44.759 -10.270   7.471  1.00  0.00     0.037 A 
HETATM   23  C   UNL     1      47.209  -9.779   7.857  1.00  0.00     0.048 C 
ENDBRANCH  12  16
ENDBRANCH  10  11
ENDBRANCH   9  10
ENDBRANCH   1   9
BRANCH   4  24
HETATM   24  C   UNL     1      43.147 -15.879   1.868  1.00  0.00     0.130 C 
BRANCH  24  25
HETATM   25  N   UNL     1      42.295 -15.046   1.037  1.00  0.00    -0.342 N 
HETATM   26  C   UNL     1      41.923 -13.797   1.435  1.00  0.00     0.320 C 
HETATM   27  N   UNL     1      41.209 -13.043   0.553  1.00  0.00    -0.309 N 
HETATM   28  O   UNL     1      42.246 -13.309   2.515  1.00  0.00    -0.247 OA
HETATM   29  H   UNL     1      41.149 -12.085   0.876  1.00  0.00     0.170 HD
HETATM   30  H   UNL     1      42.489 -15.096   0.046  1.00  0.00     0.164 HD
BRANCH  27  31
HETATM   31  C   UNL     1      40.558 -13.339  -0.658  1.00  0.00     0.039 A 
HETATM   32  C   UNL     1      39.786 -14.478  -0.885  1.00  0.00     0.071 A 
HETATM   33  C   UNL     1      39.203 -14.682  -2.134  1.00  0.00     0.118 A 
HETATM   34  F   UNL     1      38.475 -15.788  -2.344  1.00  0.00    -0.206 F 
HETATM   35  C   UNL     1      39.354 -13.763  -3.163  1.00  0.00     0.042 A 
HETATM   36  C   UNL     1      40.089 -12.604  -2.935  1.00  0.00     0.005 A 
HETATM   37  C   UNL     1      40.679 -12.391  -1.685  1.00  0.00     0.030 A 
ENDBRANCH  27  31
ENDBRANCH  24  25
ENDBRANCH   4  24
TORSDOF 7
ENDMDL
MODEL 6
REMARK VINA RESULT:      -9.1      3.797      6.996
REMARK  7 active torsions:
REMARK  status: ('A' for Active; 'I' for Inactive)
REMARK    1  A    between atoms: C_4  and  N_5 
REMARK    2  A    between atoms: C_6  and  S_7 
REMARK    3  A    between atoms: S_7  and  C_8 
REMARK    4  A    between atoms: C_8  and  C_9 
REMARK       I    between atoms: C_9  and  N_10 
REMARK    5  A    between atoms: C_12  and  C_13 
REMARK    6  A    between atoms: C_13  and  N_14 
REMARK       I    between atoms: N_14  and  C_15 
REMARK       I    between atoms: C_15  and  N_16 
REMARK    7  A    between atoms: N_16  and  C_17 
ROOT
HETATM    1  C   UNL     1      43.017 -13.195   6.787  1.00  0.00     0.229 C 
HETATM    2  N   UNL     1      42.131 -14.200   6.365  1.00  0.00    -0.351 N 
HETATM    3  C   UNL     1      40.804 -13.908   5.830  1.00  0.00     0.132 C 
HETATM    4  C   UNL     1      40.152 -15.059   5.050  1.00  0.00     0.021 C 
HETATM    5  C   UNL     1      40.296 -16.393   5.791  1.00  0.00     0.009 C 
HETATM    6  C   UNL     1      41.731 -16.648   6.227  1.00  0.00     0.020 C 
HETATM    7  C   UNL     1      42.263 -15.485   7.054  1.00  0.00     0.126 C 
HETATM    8  O   UNL     1      43.937 -13.460   7.573  1.00  0.00    -0.273 OA
ENDROOT
BRANCH   1   9
HETATM    9  C   UNL     1      43.008 -11.826   6.117  1.00  0.00     0.185 C 
BRANCH   9  10
HETATM   10  S   UNL     1      42.896 -10.342   7.134  1.00  0.00    -0.082 SA
BRANCH  10  11
HETATM   11  C   UNL     1      44.521 -10.043   7.653  1.00  0.00     0.173 A 
HETATM   12  N   UNL     1      44.883  -9.101   8.613  1.00  0.00    -0.300 N 
HETATM   13  C   UNL     1      46.264  -9.025   8.530  1.00  0.00     0.118 A 
HETATM   14  C   UNL     1      46.650  -9.959   7.601  1.00  0.00     0.137 A 
HETATM   15  N   UNL     1      45.564 -10.578   7.060  1.00  0.00    -0.235 NA
BRANCH  12  16
HETATM   16  C   UNL     1      44.086  -8.351   9.534  1.00  0.00     0.042 A 
HETATM   17  C   UNL     1      43.517  -7.121   9.175  1.00  0.00     0.037 A 
HETATM   18  C   UNL     1      42.734  -6.396  10.084  1.00  0.00    -0.059 A 
HETATM   19  C   UNL     1      42.111  -5.088   9.686  1.00  0.00     0.048 C 
HETATM   20  C   UNL     1      42.506  -6.920  11.360  1.00  0.00     0.013 A 
HETATM   21  C   UNL     1      43.051  -8.153  11.734  1.00  0.00    -0.059 A 
HETATM   22  C   UNL     1      43.830  -8.869  10.813  1.00  0.00     0.037 A 
HETATM   23  C   UNL     1      42.791  -8.692  13.111  1.00  0.00     0.048 C 
ENDBRANCH  12  16
ENDBRANCH  10  11
ENDBRANCH   9  10
ENDBRANCH   1   9
BRANCH   4  24
HETATM   24  C   UNL     1      40.708 -15.092   3.614  1.00  0.00     0.130 C 
BRANCH  24  25
HETATM   25  N   UNL     1      41.720 -16.111   3.398  1.00  0.00    -0.342 N 
HETATM   26  C   UNL     1      42.826 -15.860   2.642  1.00  0.00     0.320 C 
HETATM   27  N   UNL     1      43.775 -16.835   2.572  1.00  0.00    -0.309 N 
HETATM   28  O   UNL     1      43.027 -14.788   2.076  1.00  0.00    -0.247 OA
HETATM   29  H   UNL     1      44.620 -16.475   2.145  1.00  0.00     0.170 HD
HETATM   30  H   UNL     1      41.923 -16.687   4.203  1.00  0.00     0.164 HD
BRANCH  27  31
HETATM   31  C   UNL     1      43.790 -18.189   2.952  1.00  0.00     0.039 A 
HETATM   32  C   UNL     1      44.185 -18.655   4.206  1.00  0.00     0.071 A 
HETATM   33  C   UNL     1      44.183 -20.024   4.468  1.00  0.00     0.118 A 
HETATM   34  F   UNL     1      44.578 -20.461   5.672  1.00  0.00    -0.206 F 
HETATM   35  C   UNL     1      43.773 -20.944   3.512  1.00  0.00     0.042 A 
HETATM   36  C   UNL     1      43.339 -20.487   2.273  1.00  0.00     0.005 A 
HETATM   37  C   UNL     1      43.340 -19.116   2.000  1.00  0.00     0.030 A 
ENDBRANCH  27  31
ENDBRANCH  24  25
ENDBRANCH   4  24
TORSDOF 7
ENDMDL
MODEL 7
REMARK VINA RESULT:      -8.9      3.689      6.606
REMARK  7 active torsions:
REMARK  status: ('A' for Active; 'I' for Inactive)
REMARK    1  A    between atoms: C_4  and  N_5 
REMARK    2  A    between atoms: C_6  and  S_7 
REMARK    3  A    between atoms: S_7  and  C_8 
REMARK    4  A    between atoms: C_8  and  C_9 
REMARK       I    between atoms: C_9  and  N_10 
REMARK    5  A    between atoms: C_12  and  C_13 
REMARK    6  A    between atoms: C_13  and  N_14 
REMARK       I    between atoms: N_14  and  C_15 
REMARK       I    between atoms: C_15  and  N_16 
REMARK    7  A    between atoms: N_16  and  C_17 
ROOT
HETATM    1  C   UNL     1      43.373 -12.763   6.670  1.00  0.00     0.229 C 
HETATM    2  N   UNL     1      42.530 -13.880   6.543  1.00  0.00    -0.351 N 
HETATM    3  C   UNL     1      41.101 -13.763   6.267  1.00  0.00     0.132 C 
HETATM    4  C   UNL     1      40.431 -15.047   5.758  1.00  0.00     0.021 C 
HETATM    5  C   UNL     1      40.856 -16.268   6.582  1.00  0.00     0.009 C 
HETATM    6  C   UNL     1      42.368 -16.351   6.736  1.00  0.00     0.020 C 
HETATM    7  C   UNL     1      42.928 -15.059   7.315  1.00  0.00     0.126 C 
HETATM    8  O   UNL     1      44.451 -12.857   7.271  1.00  0.00    -0.273 OA
ENDROOT
BRANCH   1   9
HETATM    9  C   UNL     1      43.091 -11.489   5.883  1.00  0.00     0.185 C 
BRANCH   9  10
HETATM   10  S   UNL     1      42.895  -9.929   6.765  1.00  0.00    -0.082 SA
BRANCH  10  11
HETATM   11  C   UNL     1      41.213  -9.864   7.171  1.00  0.00     0.173 A 
HETATM   12  N   UNL     1      40.713  -9.435   8.399  1.00  0.00    -0.300 N 
HETATM   13  C   UNL     1      39.371  -9.781   8.374  1.00  0.00     0.118 A 
HETATM   14  C   UNL     1      39.130 -10.315   7.132  1.00  0.00     0.137 A 
HETATM   15  N   UNL     1      40.277 -10.368   6.400  1.00  0.00    -0.235 NA
BRANCH  12  16
HETATM   16  C   UNL     1      41.355  -8.764   9.486  1.00  0.00     0.042 A 
HETATM   17  C   UNL     1      41.661  -9.432  10.680  1.00  0.00     0.037 A 
HETATM   18  C   UNL     1      42.293  -8.766  11.739  1.00  0.00    -0.059 A 
HETATM   19  C   UNL     1      42.636  -9.494  13.007  1.00  0.00     0.048 C 
HETATM   20  C   UNL     1      42.638  -7.420  11.590  1.00  0.00     0.013 A 
HETATM   21  C   UNL     1      42.356  -6.736  10.402  1.00  0.00    -0.059 A 
HETATM   22  C   UNL     1      41.725  -7.417   9.350  1.00  0.00     0.037 A 
HETATM   23  C   UNL     1      42.735  -5.289  10.270  1.00  0.00     0.048 C 
ENDBRANCH  12  16
ENDBRANCH  10  11
ENDBRANCH   9  10
ENDBRANCH   1   9
BRANCH   4  24
HETATM   24  C   UNL     1      40.695 -15.205   4.249  1.00  0.00     0.130 C 
BRANCH  24  25
HETATM   25  N   UNL     1      41.710 -16.193   3.928  1.00  0.00    -0.342 N 
HETATM   26  C   UNL     1      42.821 -15.858   3.214  1.00  0.00     0.320 C 
HETATM   27  N   UNL     1      43.772 -16.819   3.043  1.00  0.00    -0.309 N 
HETATM   28  O   UNL     1      43.025 -14.730   2.771  1.00  0.00    -0.247 OA
HETATM   29  H   UNL     1      44.620 -16.413   2.665  1.00  0.00     0.170 HD
HETATM   30  H   UNL     1      41.908 -16.854   4.667  1.00  0.00     0.164 HD
BRANCH  27  31
HETATM   31  C   UNL     1      43.788 -18.206   3.271  1.00  0.00     0.039 A 
HETATM   32  C   UNL     1      44.164 -18.808   4.472  1.00  0.00     0.071 A 
HETATM   33  C   UNL     1      44.163 -20.197   4.581  1.00  0.00     0.118 A 
HETATM   34  F   UNL     1      44.541 -20.764   5.735  1.00  0.00    -0.206 F 
HETATM   35  C   UNL     1      43.774 -21.006   3.523  1.00  0.00     0.042 A 
HETATM   36  C   UNL     1      43.359 -20.416   2.334  1.00  0.00     0.005 A 
HETATM   37  C   UNL     1      43.358 -19.023   2.214  1.00  0.00     0.030 A 
ENDBRANCH  27  31
ENDBRANCH  24  25
ENDBRANCH   4  24
TORSDOF 7
ENDMDL
MODEL 8
REMARK VINA RESULT:      -8.8      3.239      7.402
REMARK  7 active torsions:
REMARK  status: ('A' for Active; 'I' for Inactive)
REMARK    1  A    between atoms: C_4  and  N_5 
REMARK    2  A    between atoms: C_6  and  S_7 
REMARK    3  A    between atoms: S_7  and  C_8 
REMARK    4  A    between atoms: C_8  and  C_9 
REMARK       I    between atoms: C_9  and  N_10 
REMARK    5  A    between atoms: C_12  and  C_13 
REMARK    6  A    between atoms: C_13  and  N_14 
REMARK       I    between atoms: N_14  and  C_15 
REMARK       I    between atoms: C_15  and  N_16 
REMARK    7  A    between atoms: N_16  and  C_17 
ROOT
HETATM    1  C   UNL     1      41.842 -10.477   2.309  1.00  0.00     0.229 C 
HETATM    2  N   UNL     1      40.817  -9.719   2.898  1.00  0.00    -0.351 N 
HETATM    3  C   UNL     1      40.155 -10.116   4.138  1.00  0.00     0.132 C 
HETATM    4  C   UNL     1      39.376  -8.998   4.844  1.00  0.00     0.021 C 
HETATM    5  C   UNL     1      38.521  -8.197   3.855  1.00  0.00     0.009 C 
HETATM    6  C   UNL     1      39.324  -7.750   2.642  1.00  0.00     0.020 C 
HETATM    7  C   UNL     1      39.998  -8.938   1.969  1.00  0.00     0.126 C 
HETATM    8  O   UNL     1      42.107 -10.345   1.106  1.00  0.00    -0.273 OA
ENDROOT
BRANCH   1   9
HETATM    9  C   UNL     1      42.791 -11.298   3.173  1.00  0.00     0.185 C 
BRANCH   9  10
HETATM   10  S   UNL     1      43.177 -12.994   2.700  1.00  0.00    -0.082 SA
BRANCH  10  11
HETATM   11  C   UNL     1      41.652 -13.814   2.726  1.00  0.00     0.173 A 
HETATM   12  N   UNL     1      41.489 -15.173   2.986  1.00  0.00    -0.300 N 
HETATM   13  C   UNL     1      40.169 -15.439   2.660  1.00  0.00     0.118 A 
HETATM   14  C   UNL     1      39.605 -14.238   2.306  1.00  0.00     0.137 A 
HETATM   15  N   UNL     1      40.533 -13.242   2.343  1.00  0.00    -0.235 NA
BRANCH  12  16
HETATM   16  C   UNL     1      42.408 -16.144   3.493  1.00  0.00     0.042 A 
HETATM   17  C   UNL     1      42.666 -17.337   2.804  1.00  0.00     0.037 A 
HETATM   18  C   UNL     1      43.572 -18.281   3.308  1.00  0.00    -0.059 A 
HETATM   19  C   UNL     1      43.858 -19.548   2.554  1.00  0.00     0.048 C 
HETATM   20  C   UNL     1      44.238 -18.015   4.508  1.00  0.00     0.013 A 
HETATM   21  C   UNL     1      44.008 -16.824   5.206  1.00  0.00    -0.059 A 
HETATM   22  C   UNL     1      43.101 -15.888   4.687  1.00  0.00     0.037 A 
HETATM   23  C   UNL     1      44.735 -16.565   6.493  1.00  0.00     0.048 C 
ENDBRANCH  12  16
ENDBRANCH  10  11
ENDBRANCH   9  10
ENDBRANCH   1   9
BRANCH   4  24
HETATM   24  C   UNL     1      40.348  -8.126   5.660  1.00  0.00     0.130 C 
BRANCH  24  25
HETATM   25  N   UNL     1      41.374  -8.881   6.357  1.00  0.00    -0.342 N 
HETATM   26  C   UNL     1      41.160  -9.374   7.610  1.00  0.00     0.320 C 
HETATM   27  N   UNL     1      42.134 -10.157   8.153  1.00  0.00    -0.309 N 
HETATM   28  O   UNL     1      40.120  -9.190   8.239  1.00  0.00    -0.247 OA
HETATM   29  H   UNL     1      41.795 -10.611   8.992  1.00  0.00     0.170 HD
HETATM   30  H   UNL     1      41.903  -9.517   5.776  1.00  0.00     0.164 HD
BRANCH  27  31
HETATM   31  C   UNL     1      43.465 -10.427   7.787  1.00  0.00     0.039 A 
HETATM   32  C   UNL     1      44.558  -9.630   8.125  1.00  0.00     0.071 A 
HETATM   33  C   UNL     1      45.834  -9.982   7.690  1.00  0.00     0.118 A 
HETATM   34  F   UNL     1      46.874  -9.200   8.009  1.00  0.00    -0.206 F 
HETATM   35  C   UNL     1      46.052 -11.129   6.938  1.00  0.00     0.042 A 
HETATM   36  C   UNL     1      44.975 -11.953   6.629  1.00  0.00     0.005 A 
HETATM   37  C   UNL     1      43.690 -11.607   7.060  1.00  0.00     0.030 A 
ENDBRANCH  27  31
ENDBRANCH  24  25
ENDBRANCH   4  24
TORSDOF 7
ENDMDL
MODEL 9
REMARK VINA RESULT:      -8.7      5.722      9.193
REMARK  7 active torsions:
REMARK  status: ('A' for Active; 'I' for Inactive)
REMARK    1  A    between atoms: C_4  and  N_5 
REMARK    2  A    between atoms: C_6  and  S_7 
REMARK    3  A    between atoms: S_7  and  C_8 
REMARK    4  A    between atoms: C_8  and  C_9 
REMARK       I    between atoms: C_9  and  N_10 
REMARK    5  A    between atoms: C_12  and  C_13 
REMARK    6  A    between atoms: C_13  and  N_14 
REMARK       I    between atoms: N_14  and  C_15 
REMARK       I    between atoms: C_15  and  N_16 
REMARK    7  A    between atoms: N_16  and  C_17 
ROOT
HETATM    1  C   UNL     1      43.525 -11.773   5.908  1.00  0.00     0.229 C 
HETATM    2  N   UNL     1      43.373 -10.897   6.996  1.00  0.00    -0.351 N 
HETATM    3  C   UNL     1      42.824  -9.551   6.854  1.00  0.00     0.132 C 
HETATM    4  C   UNL     1      42.350  -8.904   8.163  1.00  0.00     0.021 C 
HETATM    5  C   UNL     1      43.374  -9.094   9.288  1.00  0.00     0.009 C 
HETATM    6  C   UNL     1      43.815 -10.545   9.415  1.00  0.00     0.020 C 
HETATM    7  C   UNL     1      44.335 -11.074   8.085  1.00  0.00     0.126 C 
HETATM    8  O   UNL     1      44.324 -12.718   5.971  1.00  0.00    -0.273 OA
ENDROOT
BRANCH   1   9
HETATM    9  C   UNL     1      42.559 -11.719   4.730  1.00  0.00     0.185 C 
BRANCH   9  10
HETATM   10  S   UNL     1      42.947 -12.627   3.223  1.00  0.00    -0.082 SA
BRANCH  10  11
HETATM   11  C   UNL     1      41.514 -13.538   2.879  1.00  0.00     0.173 A 
HETATM   12  N   UNL     1      41.434 -14.928   2.918  1.00  0.00    -0.300 N 
HETATM   13  C   UNL     1      40.209 -15.226   2.342  1.00  0.00     0.118 A 
HETATM   14  C   UNL     1      39.604 -14.025   2.069  1.00  0.00     0.137 A 
HETATM   15  N   UNL     1      40.423 -12.988   2.398  1.00  0.00    -0.235 NA
BRANCH  12  16
HETATM   16  C   UNL     1      42.344 -15.903   3.433  1.00  0.00     0.042 A 
HETATM   17  C   UNL     1      43.007 -15.711   4.653  1.00  0.00     0.037 A 
HETATM   18  C   UNL     1      43.895 -16.674   5.152  1.00  0.00    -0.059 A 
HETATM   19  C   UNL     1      44.586 -16.471   6.470  1.00  0.00     0.048 C 
HETATM   20  C   UNL     1      44.106 -17.850   4.425  1.00  0.00     0.013 A 
HETATM   21  C   UNL     1      43.444 -18.070   3.212  1.00  0.00    -0.059 A 
HETATM   22  C   UNL     1      42.556 -17.098   2.728  1.00  0.00     0.037 A 
HETATM   23  C   UNL     1      43.690 -19.340   2.451  1.00  0.00     0.048 C 
ENDBRANCH  12  16
ENDBRANCH  10  11
ENDBRANCH   9  10
ENDBRANCH   1   9
BRANCH   4  24
HETATM   24  C   UNL     1      40.945  -9.424   8.518  1.00  0.00     0.130 C 
BRANCH  24  25
HETATM   25  N   UNL     1      40.604  -9.286   9.923  1.00  0.00    -0.342 N 
HETATM   26  C   UNL     1      39.494  -9.883  10.443  1.00  0.00     0.320 C 
HETATM   27  N   UNL     1      39.301  -9.788  11.788  1.00  0.00    -0.309 N 
HETATM   28  O   UNL     1      38.703 -10.539   9.769  1.00  0.00    -0.247 OA
HETATM   29  H   UNL     1      38.561 -10.414  12.083  1.00  0.00     0.170 HD
HETATM   30  H   UNL     1      41.391  -9.312  10.556  1.00  0.00     0.164 HD
BRANCH  27  31
HETATM   31  C   UNL     1      39.902  -9.009  12.793  1.00  0.00     0.039 A 
HETATM   32  C   UNL     1      39.447  -7.755  13.202  1.00  0.00     0.071 A 
HETATM   33  C   UNL     1      40.134  -7.059  14.195  1.00  0.00     0.118 A 
HETATM   34  F   UNL     1      39.696  -5.850  14.569  1.00  0.00    -0.206 F 
HETATM   35  C   UNL     1      41.258  -7.594  14.808  1.00  0.00     0.042 A 
HETATM   36  C   UNL     1      41.697  -8.860  14.437  1.00  0.00     0.005 A 
HETATM   37  C   UNL     1      41.015  -9.566  13.440  1.00  0.00     0.030 A 
ENDBRANCH  27  31
ENDBRANCH  24  25
ENDBRANCH   4  24
TORSDOF 7
ENDMDL
MODEL 10
REMARK VINA RESULT:      -8.7      5.123      8.566
REMARK  7 active torsions:
REMARK  status: ('A' for Active; 'I' for Inactive)
REMARK    1  A    between atoms: C_4  and  N_5 
REMARK    2  A    between atoms: C_6  and  S_7 
REMARK    3  A    between atoms: S_7  and  C_8 
REMARK    4  A    between atoms: C_8  and  C_9 
REMARK       I    between atoms: C_9  and  N_10 
REMARK    5  A    between atoms: C_12  and  C_13 
REMARK    6  A    between atoms: C_13  and  N_14 
REMARK       I    between atoms: N_14  and  C_15 
REMARK       I    between atoms: C_15  and  N_16 
REMARK    7  A    between atoms: N_16  and  C_17 
ROOT
HETATM    1  C   UNL     1      40.474  -7.928   7.194  1.00  0.00     0.229 C 
HETATM    2  N   UNL     1      40.771  -8.896   6.220  1.00  0.00    -0.351 N 
HETATM    3  C   UNL     1      42.060  -9.581   6.156  1.00  0.00     0.132 C 
HETATM    4  C   UNL     1      42.068 -10.867   5.319  1.00  0.00     0.021 C 
HETATM    5  C   UNL     1      41.346 -10.674   3.980  1.00  0.00     0.009 C 
HETATM    6  C   UNL     1      39.976 -10.037   4.162  1.00  0.00     0.020 C 
HETATM    7  C   UNL     1      40.081  -8.731   4.939  1.00  0.00     0.126 C 
HETATM    8  O   UNL     1      39.568  -7.105   7.004  1.00  0.00    -0.273 OA
ENDROOT
BRANCH   1   9
HETATM    9  C   UNL     1      41.095  -8.013   8.583  1.00  0.00     0.185 C 
BRANCH   9  10
HETATM   10  S   UNL     1      42.633  -7.136   8.922  1.00  0.00    -0.082 SA
BRANCH  10  11
HETATM   11  C   UNL     1      43.776  -8.383   9.290  1.00  0.00     0.173 A 
HETATM   12  N   UNL     1      43.918  -8.981  10.541  1.00  0.00    -0.300 N 
HETATM   13  C   UNL     1      45.087  -9.720  10.448  1.00  0.00     0.118 A 
HETATM   14  C   UNL     1      45.529  -9.590   9.155  1.00  0.00     0.137 A 
HETATM   15  N   UNL     1      44.715  -8.755   8.450  1.00  0.00    -0.235 NA
BRANCH  12  16
HETATM   16  C   UNL     1      43.088  -8.922  11.704  1.00  0.00     0.042 A 
HETATM   17  C   UNL     1      43.366  -8.038  12.756  1.00  0.00     0.037 A 
HETATM   18  C   UNL     1      42.544  -7.986  13.890  1.00  0.00    -0.059 A 
HETATM   19  C   UNL     1      42.836  -7.021  15.005  1.00  0.00     0.048 C 
HETATM   20  C   UNL     1      41.422  -8.817  13.961  1.00  0.00     0.013 A 
HETATM   21  C   UNL     1      41.118  -9.697  12.916  1.00  0.00    -0.059 A 
HETATM   22  C   UNL     1      41.947  -9.736  11.786  1.00  0.00     0.037 A 
HETATM   23  C   UNL     1      39.908 -10.580  13.018  1.00  0.00     0.048 C 
ENDBRANCH  12  16
ENDBRANCH  10  11
ENDBRANCH   9  10
ENDBRANCH   1   9
BRANCH   4  24
HETATM   24  C   UNL     1      41.506 -12.033   6.155  1.00  0.00     0.130 C 
BRANCH  24  25
HETATM   25  N   UNL     1      41.486 -13.304   5.454  1.00  0.00    -0.342 N 
HETATM   26  C   UNL     1      40.514 -14.229   5.695  1.00  0.00     0.320 C 
HETATM   27  N   UNL     1      40.509 -15.352   4.924  1.00  0.00    -0.309 N 
HETATM   28  O   UNL     1      39.624 -14.071   6.528  1.00  0.00    -0.247 OA
HETATM   29  H   UNL     1      39.650 -15.871   5.062  1.00  0.00     0.170 HD
HETATM   30  H   UNL     1      41.741 -13.256   4.478  1.00  0.00     0.164 HD
BRANCH  27  31
HETATM   31  C   UNL     1      41.439 -15.904   4.025  1.00  0.00     0.039 A 
HETATM   32  C   UNL     1      42.459 -16.786   4.381  1.00  0.00     0.071 A 
HETATM   33  C   UNL     1      43.340 -17.256   3.409  1.00  0.00     0.118 A 
HETATM   34  F   UNL     1      44.325 -18.091   3.766  1.00  0.00    -0.206 F 
HETATM   35  C   UNL     1      43.215 -16.883   2.077  1.00  0.00     0.042 A 
HETATM   36  C   UNL     1      42.177 -16.036   1.704  1.00  0.00     0.005 A 
HETATM   37  C   UNL     1      41.289 -15.558   2.673  1.00  0.00     0.030 A 
ENDBRANCH  27  31
ENDBRANCH  24  25
ENDBRANCH   4  24
TORSDOF 7
ENDMDL
