MODEL 1
REMARK VINA RESULT:      -7.8      0.000      0.000
REMARK  7 active torsions:
REMARK  status: ('A' for Active; 'I' for Inactive)
REMARK    1  A    between atoms: O_2  and  C_3 
REMARK    2  A    between atoms: C_6  and  C_7 
REMARK    3  A    between atoms: C_7  and  N_8 
REMARK    4  A    between atoms: N_8  and  C_11 
REMARK    5  A    between atoms: C_11  and  C_12 
REMARK    6  A    between atoms: C_11  and  C_20 
REMARK       I    between atoms: C_12  and  N_13 
REMARK    7  A    between atoms: N_13  and  C_14 
ROOT
HETATM    1  C   UNL     1      42.709 -14.935   5.781  1.00  0.00     0.310 C 
ENDROOT
BRANCH   1   2
HETATM    2  N   UNL     1      43.931 -15.801   6.026  1.00  0.00    -0.054 N 
HETATM    3  H   UNL     1      44.652 -15.287   6.539  1.00  0.00     0.278 HD
HETATM    4  H   UNL     1      44.313 -16.013   5.091  1.00  0.00     0.278 HD
BRANCH   2   5
HETATM    5  C   UNL     1      43.706 -17.123   6.677  1.00  0.00     0.272 C 
BRANCH   5   6
HETATM    6  C   UNL     1      43.763 -18.232   5.664  1.00  0.00    -0.033 A 
HETATM    7  C   UNL     1      43.714 -19.573   6.070  1.00  0.00     0.011 A 
HETATM    8  C   UNL     1      43.783 -20.605   5.128  1.00  0.00     0.037 A 
HETATM    9  C   UNL     1      43.913 -20.311   3.772  1.00  0.00     0.068 A 
HETATM   10  C   UNL     1      43.978 -18.977   3.367  1.00  0.00     0.037 A 
HETATM   11  C   UNL     1      43.901 -17.941   4.301  1.00  0.00     0.011 A 
BRANCH   9  12
HETATM   12  O   UNL     1      43.992 -21.221   2.756  1.00  0.00    -0.356 OA
HETATM   13  C   UNL     1      43.684 -20.758   1.446  1.00  0.00     0.210 C 
ENDBRANCH   9  12
ENDBRANCH   5   6
ENDBRANCH   2   5
ENDBRANCH   1   2
BRANCH   1  14
HETATM   14  C   UNL     1      42.960 -13.498   6.290  1.00  0.00     0.259 C 
HETATM   15  N   UNL     1      44.236 -13.229   6.726  1.00  0.00    -0.304 N 
HETATM   16  H   UNL     1      44.980 -13.917   6.720  1.00  0.00     0.171 HD
HETATM   17  O   UNL     1      42.016 -12.707   6.218  1.00  0.00    -0.270 OA
BRANCH  15  18
HETATM   18  C   UNL     1      44.561 -12.022   7.284  1.00  0.00     0.172 A 
HETATM   19  S   UNL     1      45.878 -11.235   6.538  1.00  0.00    -0.062 SA
HETATM   20  C   UNL     1      45.724  -9.958   7.676  1.00  0.00     0.072 A 
HETATM   21  C   UNL     1      44.680 -10.231   8.536  1.00  0.00     0.126 A 
HETATM   22  N   UNL     1      44.019 -11.424   8.309  1.00  0.00    -0.236 NA
ENDBRANCH  15  18
ENDBRANCH   1  14
BRANCH   1  23
HETATM   23  C   UNL     1      42.180 -15.066   4.368  1.00  0.00    -0.019 A 
HETATM   24  C   UNL     1      42.916 -14.513   3.304  1.00  0.00     0.010 A 
HETATM   25  C   UNL     1      42.440 -14.593   1.995  1.00  0.00     0.001 A 
HETATM   26  C   UNL     1      41.224 -15.216   1.730  1.00  0.00     0.000 A 
HETATM   27  C   UNL     1      40.479 -15.760   2.773  1.00  0.00     0.001 A 
HETATM   28  C   UNL     1      40.949 -15.683   4.085  1.00  0.00     0.010 A 
ENDBRANCH   1  23
TORSDOF 7
ENDMDL
MODEL 2
REMARK VINA RESULT:      -7.3      3.601      7.232
REMARK  7 active torsions:
REMARK  status: ('A' for Active; 'I' for Inactive)
REMARK    1  A    between atoms: O_2  and  C_3 
REMARK    2  A    between atoms: C_6  and  C_7 
REMARK    3  A    between atoms: C_7  and  N_8 
REMARK    4  A    between atoms: N_8  and  C_11 
REMARK    5  A    between atoms: C_11  and  C_12 
REMARK    6  A    between atoms: C_11  and  C_20 
REMARK       I    between atoms: C_12  and  N_13 
REMARK    7  A    between atoms: N_13  and  C_14 
ROOT
HETATM    1  C   UNL     1      40.935 -15.984   3.064  1.00  0.00     0.310 C 
ENDROOT
BRANCH   1   2
HETATM    2  N   UNL     1      40.536 -15.209   4.306  1.00  0.00    -0.054 N 
HETATM    3  H   UNL     1      41.024 -15.560   5.135  1.00  0.00     0.278 HD
HETATM    4  H   UNL     1      39.531 -15.398   4.440  1.00  0.00     0.278 HD
BRANCH   2   5
HETATM    5  C   UNL     1      40.662 -13.724   4.249  1.00  0.00     0.272 C 
BRANCH   5   6
HETATM    6  C   UNL     1      41.911 -13.269   4.950  1.00  0.00    -0.033 A 
HETATM    7  C   UNL     1      42.265 -13.802   6.198  1.00  0.00     0.011 A 
HETATM    8  C   UNL     1      43.419 -13.367   6.857  1.00  0.00     0.037 A 
HETATM    9  C   UNL     1      44.228 -12.387   6.284  1.00  0.00     0.068 A 
HETATM   10  C   UNL     1      43.870 -11.843   5.049  1.00  0.00     0.037 A 
HETATM   11  C   UNL     1      42.724 -12.279   4.381  1.00  0.00     0.011 A 
BRANCH   9  12
HETATM   12  O   UNL     1      45.376 -11.876   6.822  1.00  0.00    -0.356 OA
HETATM   13  C   UNL     1      45.232 -10.914   7.861  1.00  0.00     0.210 C 
ENDBRANCH   9  12
ENDBRANCH   5   6
ENDBRANCH   2   5
ENDBRANCH   1   2
BRANCH   1  14
HETATM   14  C   UNL     1      41.018 -15.038   1.845  1.00  0.00     0.259 C 
HETATM   15  N   UNL     1      39.828 -14.769   1.211  1.00  0.00    -0.304 N 
HETATM   16  H   UNL     1      38.941 -15.157   1.511  1.00  0.00     0.171 HD
HETATM   17  O   UNL     1      42.127 -14.569   1.575  1.00  0.00    -0.270 OA
BRANCH  15  18
HETATM   18  C   UNL     1      39.781 -14.020   0.067  1.00  0.00     0.172 A 
HETATM   19  S   UNL     1      39.599 -12.345   0.331  1.00  0.00    -0.062 SA
HETATM   20  C   UNL     1      39.590 -12.104  -1.369  1.00  0.00     0.072 A 
HETATM   21  C   UNL     1      39.727 -13.321  -2.007  1.00  0.00     0.126 A 
HETATM   22  N   UNL     1      39.829 -14.420  -1.174  1.00  0.00    -0.236 NA
ENDBRANCH  15  18
ENDBRANCH   1  14
BRANCH   1  23
HETATM   23  C   UNL     1      42.132 -16.882   3.302  1.00  0.00    -0.019 A 
HETATM   24  C   UNL     1      42.446 -17.875   2.357  1.00  0.00     0.010 A 
HETATM   25  C   UNL     1      43.525 -18.735   2.562  1.00  0.00     0.001 A 
HETATM   26  C   UNL     1      44.299 -18.622   3.713  1.00  0.00     0.000 A 
HETATM   27  C   UNL     1      43.997 -17.650   4.663  1.00  0.00     0.001 A 
HETATM   28  C   UNL     1      42.918 -16.787   4.463  1.00  0.00     0.010 A 
ENDBRANCH   1  23
TORSDOF 7
ENDMDL
MODEL 3
REMARK VINA RESULT:      -7.3      1.811      3.640
REMARK  7 active torsions:
REMARK  status: ('A' for Active; 'I' for Inactive)
REMARK    1  A    between atoms: O_2  and  C_3 
REMARK    2  A    between atoms: C_6  and  C_7 
REMARK    3  A    between atoms: C_7  and  N_8 
REMARK    4  A    between atoms: N_8  and  C_11 
REMARK    5  A    between atoms: C_11  and  C_12 
REMARK    6  A    between atoms: C_11  and  C_20 
REMARK       I    between atoms: C_12  and  N_13 
REMARK    7  A    between atoms: N_13  and  C_14 
ROOT
HETATM    1  C   UNL     1      43.153 -12.948   5.338  1.00  0.00     0.310 C 
ENDROOT
BRANCH   1   2
HETATM    2  N   UNL     1      41.962 -12.633   4.451  1.00  0.00    -0.054 N 
HETATM    3  H   UNL     1      41.650 -11.667   4.578  1.00  0.00     0.278 HD
HETATM    4  H   UNL     1      41.201 -13.247   4.780  1.00  0.00     0.278 HD
BRANCH   2   5
HETATM    5  C   UNL     1      42.108 -12.918   2.995  1.00  0.00     0.272 C 
BRANCH   5   6
HETATM    6  C   UNL     1      42.226 -14.397   2.751  1.00  0.00    -0.033 A 
HETATM    7  C   UNL     1      41.214 -15.272   3.168  1.00  0.00     0.011 A 
HETATM    8  C   UNL     1      41.332 -16.650   2.955  1.00  0.00     0.037 A 
HETATM    9  C   UNL     1      42.465 -17.171   2.334  1.00  0.00     0.068 A 
HETATM   10  C   UNL     1      43.482 -16.303   1.932  1.00  0.00     0.037 A 
HETATM   11  C   UNL     1      43.368 -14.925   2.133  1.00  0.00     0.011 A 
BRANCH   9  12
HETATM   12  O   UNL     1      42.703 -18.490   2.069  1.00  0.00    -0.356 OA
HETATM   13  C   UNL     1      43.728 -19.128   2.823  1.00  0.00     0.210 C 
ENDBRANCH   9  12
ENDBRANCH   5   6
ENDBRANCH   2   5
ENDBRANCH   1   2
BRANCH   1  14
HETATM   14  C   UNL     1      43.376 -11.809   6.359  1.00  0.00     0.259 C 
HETATM   15  N   UNL     1      44.446 -11.965   7.208  1.00  0.00    -0.304 N 
HETATM   16  H   UNL     1      45.063 -12.768   7.180  1.00  0.00     0.171 HD
HETATM   17  O   UNL     1      42.611 -10.843   6.295  1.00  0.00    -0.270 OA
BRANCH  15  18
HETATM   18  C   UNL     1      44.696 -11.072   8.215  1.00  0.00     0.172 A 
HETATM   19  S   UNL     1      45.899  -9.919   7.849  1.00  0.00    -0.062 SA
HETATM   20  C   UNL     1      45.697  -9.251   9.418  1.00  0.00     0.072 A 
HETATM   21  C   UNL     1      44.728  -9.958  10.099  1.00  0.00     0.126 A 
HETATM   22  N   UNL     1      44.161 -11.011   9.403  1.00  0.00    -0.236 NA
ENDBRANCH  15  18
ENDBRANCH   1  14
BRANCH   1  23
HETATM   23  C   UNL     1      43.102 -14.354   5.899  1.00  0.00    -0.019 A 
HETATM   24  C   UNL     1      41.971 -14.764   6.627  1.00  0.00     0.010 A 
HETATM   25  C   UNL     1      41.907 -16.044   7.179  1.00  0.00     0.001 A 
HETATM   26  C   UNL     1      42.972 -16.927   7.021  1.00  0.00     0.000 A 
HETATM   27  C   UNL     1      44.103 -16.533   6.312  1.00  0.00     0.001 A 
HETATM   28  C   UNL     1      44.172 -15.254   5.757  1.00  0.00     0.010 A 
ENDBRANCH   1  23
TORSDOF 7
ENDMDL
MODEL 4
REMARK VINA RESULT:      -7.3      4.361      6.822
REMARK  7 active torsions:
REMARK  status: ('A' for Active; 'I' for Inactive)
REMARK    1  A    between atoms: O_2  and  C_3 
REMARK    2  A    between atoms: C_6  and  C_7 
REMARK    3  A    between atoms: C_7  and  N_8 
REMARK    4  A    between atoms: N_8  and  C_11 
REMARK    5  A    between atoms: C_11  and  C_12 
REMARK    6  A    between atoms: C_11  and  C_20 
REMARK       I    between atoms: C_12  and  N_13 
REMARK    7  A    between atoms: N_13  and  C_14 
ROOT
HETATM    1  C   UNL     1      40.181 -13.586   2.659  1.00  0.00     0.310 C 
ENDROOT
BRANCH   1   2
HETATM    2  N   UNL     1      40.587 -12.600   3.740  1.00  0.00    -0.054 N 
HETATM    3  H   UNL     1      40.285 -11.650   3.507  1.00  0.00     0.278 HD
HETATM    4  H   UNL     1      41.619 -12.601   3.743  1.00  0.00     0.278 HD
BRANCH   2   5
HETATM    5  C   UNL     1      40.178 -12.920   5.137  1.00  0.00     0.272 C 
BRANCH   5   6
HETATM    6  C   UNL     1      41.083 -13.964   5.730  1.00  0.00    -0.033 A 
HETATM    7  C   UNL     1      42.467 -13.751   5.803  1.00  0.00     0.011 A 
HETATM    8  C   UNL     1      43.311 -14.729   6.341  1.00  0.00     0.037 A 
HETATM    9  C   UNL     1      42.785 -15.934   6.802  1.00  0.00     0.068 A 
HETATM   10  C   UNL     1      41.409 -16.155   6.716  1.00  0.00     0.037 A 
HETATM   11  C   UNL     1      40.559 -15.180   6.188  1.00  0.00     0.011 A 
BRANCH   9  12
HETATM   12  O   UNL     1      43.496 -16.966   7.345  1.00  0.00    -0.356 OA
HETATM   13  C   UNL     1      43.384 -18.235   6.710  1.00  0.00     0.210 C 
ENDBRANCH   9  12
ENDBRANCH   5   6
ENDBRANCH   2   5
ENDBRANCH   1   2
BRANCH   1  14
HETATM   14  C   UNL     1      39.677 -12.832   1.407  1.00  0.00     0.259 C 
HETATM   15  N   UNL     1      39.461 -13.602   0.289  1.00  0.00    -0.304 N 
HETATM   16  H   UNL     1      39.614 -14.603   0.268  1.00  0.00     0.171 HD
HETATM   17  O   UNL     1      39.468 -11.622   1.530  1.00  0.00    -0.270 OA
BRANCH  15  18
HETATM   18  C   UNL     1      39.101 -13.041  -0.906  1.00  0.00     0.172 A 
HETATM   19  S   UNL     1      40.415 -12.533  -1.867  1.00  0.00    -0.062 SA
HETATM   20  C   UNL     1      39.301 -11.972  -3.048  1.00  0.00     0.072 A 
HETATM   21  C   UNL     1      38.013 -12.217  -2.617  1.00  0.00     0.126 A 
HETATM   22  N   UNL     1      37.905 -12.825  -1.380  1.00  0.00    -0.236 NA
ENDBRANCH  15  18
ENDBRANCH   1  14
BRANCH   1  23
HETATM   23  C   UNL     1      41.231 -14.652   2.425  1.00  0.00    -0.019 A 
HETATM   24  C   UNL     1      40.911 -15.999   2.671  1.00  0.00     0.010 A 
HETATM   25  C   UNL     1      41.865 -17.001   2.491  1.00  0.00     0.001 A 
HETATM   26  C   UNL     1      43.152 -16.673   2.072  1.00  0.00     0.000 A 
HETATM   27  C   UNL     1      43.488 -15.343   1.832  1.00  0.00     0.001 A 
HETATM   28  C   UNL     1      42.537 -14.337   2.011  1.00  0.00     0.010 A 
ENDBRANCH   1  23
TORSDOF 7
ENDMDL
MODEL 5
REMARK VINA RESULT:      -7.2      2.984      5.593
REMARK  7 active torsions:
REMARK  status: ('A' for Active; 'I' for Inactive)
REMARK    1  A    between atoms: O_2  and  C_3 
REMARK    2  A    between atoms: C_6  and  C_7 
REMARK    3  A    between atoms: C_7  and  N_8 
REMARK    4  A    between atoms: N_8  and  C_11 
REMARK    5  A    between atoms: C_11  and  C_12 
REMARK    6  A    between atoms: C_11  and  C_20 
REMARK       I    between atoms: C_12  and  N_13 
REMARK    7  A    between atoms: N_13  and  C_14 
ROOT
HETATM    1  C   UNL     1      42.204 -14.832   3.832  1.00  0.00     0.310 C 
ENDROOT
BRANCH   1   2
HETATM    2  N   UNL     1      40.703 -14.926   3.627  1.00  0.00    -0.054 N 
HETATM    3  H   UNL     1      40.239 -15.296   4.461  1.00  0.00     0.278 HD
HETATM    4  H   UNL     1      40.569 -15.615   2.871  1.00  0.00     0.278 HD
BRANCH   2   5
HETATM    5  C   UNL     1      40.002 -13.690   3.177  1.00  0.00     0.272 C 
BRANCH   5   6
HETATM    6  C   UNL     1      39.833 -13.689   1.683  1.00  0.00    -0.033 A 
HETATM    7  C   UNL     1      39.446 -12.523   1.009  1.00  0.00     0.011 A 
HETATM    8  C   UNL     1      39.273 -12.527  -0.380  1.00  0.00     0.037 A 
HETATM    9  C   UNL     1      39.474 -13.697  -1.109  1.00  0.00     0.068 A 
HETATM   10  C   UNL     1      39.845 -14.864  -0.438  1.00  0.00     0.037 A 
HETATM   11  C   UNL     1      40.027 -14.866   0.947  1.00  0.00     0.011 A 
BRANCH   9  12
HETATM   12  O   UNL     1      39.339 -13.835  -2.462  1.00  0.00    -0.356 OA
HETATM   13  C   UNL     1      38.623 -14.973  -2.929  1.00  0.00     0.210 C 
ENDBRANCH   9  12
ENDBRANCH   5   6
ENDBRANCH   2   5
ENDBRANCH   1   2
BRANCH   1  14
HETATM   14  C   UNL     1      42.523 -14.002   5.096  1.00  0.00     0.259 C 
HETATM   15  N   UNL     1      43.356 -12.923   4.912  1.00  0.00    -0.304 N 
HETATM   16  H   UNL     1      43.745 -12.671   4.011  1.00  0.00     0.171 HD
HETATM   17  O   UNL     1      41.970 -14.345   6.144  1.00  0.00    -0.270 OA
BRANCH  15  18
HETATM   18  C   UNL     1      43.785 -12.164   5.967  1.00  0.00     0.172 A 
HETATM   19  S   UNL     1      42.805 -10.809   6.302  1.00  0.00    -0.062 SA
HETATM   20  C   UNL     1      43.874 -10.385   7.578  1.00  0.00     0.072 A 
HETATM   21  C   UNL     1      44.894 -11.311   7.650  1.00  0.00     0.126 A 
HETATM   22  N   UNL     1      44.841 -12.328   6.714  1.00  0.00    -0.236 NA
ENDBRANCH  15  18
ENDBRANCH   1  14
BRANCH   1  23
HETATM   23  C   UNL     1      42.889 -16.179   3.721  1.00  0.00    -0.019 A 
HETATM   24  C   UNL     1      42.651 -16.982   2.592  1.00  0.00     0.010 A 
HETATM   25  C   UNL     1      43.245 -18.238   2.475  1.00  0.00     0.001 A 
HETATM   26  C   UNL     1      44.077 -18.714   3.485  1.00  0.00     0.000 A 
HETATM   27  C   UNL     1      44.317 -17.936   4.614  1.00  0.00     0.001 A 
HETATM   28  C   UNL     1      43.724 -16.678   4.736  1.00  0.00     0.010 A 
ENDBRANCH   1  23
TORSDOF 7
ENDMDL
MODEL 6
REMARK VINA RESULT:      -7.2      2.957      6.600
REMARK  7 active torsions:
REMARK  status: ('A' for Active; 'I' for Inactive)
REMARK    1  A    between atoms: O_2  and  C_3 
REMARK    2  A    between atoms: C_6  and  C_7 
REMARK    3  A    between atoms: C_7  and  N_8 
REMARK    4  A    between atoms: N_8  and  C_11 
REMARK    5  A    between atoms: C_11  and  C_12 
REMARK    6  A    between atoms: C_11  and  C_20 
REMARK       I    between atoms: C_12  and  N_13 
REMARK    7  A    between atoms: N_13  and  C_14 
ROOT
HETATM    1  C   UNL     1      43.125 -16.871   4.231  1.00  0.00     0.310 C 
ENDROOT
BRANCH   1   2
HETATM    2  N   UNL     1      44.228 -16.251   5.069  1.00  0.00    -0.054 N 
HETATM    3  H   UNL     1      44.719 -15.518   4.550  1.00  0.00     0.278 HD
HETATM    4  H   UNL     1      44.906 -17.010   5.241  1.00  0.00     0.278 HD
BRANCH   2   5
HETATM    5  C   UNL     1      43.849 -15.737   6.416  1.00  0.00     0.272 C 
BRANCH   5   6
HETATM    6  C   UNL     1      42.563 -14.961   6.346  1.00  0.00    -0.033 A 
HETATM    7  C   UNL     1      41.336 -15.590   6.596  1.00  0.00     0.011 A 
HETATM    8  C   UNL     1      40.138 -14.872   6.516  1.00  0.00     0.037 A 
HETATM    9  C   UNL     1      40.151 -13.521   6.175  1.00  0.00     0.068 A 
HETATM   10  C   UNL     1      41.371 -12.896   5.910  1.00  0.00     0.037 A 
HETATM   11  C   UNL     1      42.571 -13.604   5.997  1.00  0.00     0.011 A 
BRANCH   9  12
HETATM   12  O   UNL     1      39.057 -12.709   6.061  1.00  0.00    -0.356 OA
HETATM   13  C   UNL     1      39.248 -11.324   6.328  1.00  0.00     0.210 C 
ENDBRANCH   9  12
ENDBRANCH   5   6
ENDBRANCH   2   5
ENDBRANCH   1   2
BRANCH   1  14
HETATM   14  C   UNL     1      42.715 -15.913   3.089  1.00  0.00     0.259 C 
HETATM   15  N   UNL     1      41.366 -15.687   2.951  1.00  0.00    -0.304 N 
HETATM   16  H   UNL     1      40.669 -16.111   3.551  1.00  0.00     0.171 HD
HETATM   17  O   UNL     1      43.628 -15.400   2.436  1.00  0.00    -0.270 OA
BRANCH  15  18
HETATM   18  C   UNL     1      40.871 -14.931   1.923  1.00  0.00     0.172 A 
HETATM   19  S   UNL     1      40.710 -13.272   2.285  1.00  0.00    -0.062 SA
HETATM   20  C   UNL     1      40.076 -13.016   0.709  1.00  0.00     0.072 A 
HETATM   21  C   UNL     1      40.037 -14.217   0.030  1.00  0.00     0.126 A 
HETATM   22  N   UNL     1      40.488 -15.316   0.737  1.00  0.00    -0.236 NA
ENDBRANCH  15  18
ENDBRANCH   1  14
BRANCH   1  23
HETATM   23  C   UNL     1      43.434 -18.300   3.832  1.00  0.00    -0.019 A 
HETATM   24  C   UNL     1      43.215 -18.706   2.504  1.00  0.00     0.010 A 
HETATM   25  C   UNL     1      43.464 -20.022   2.114  1.00  0.00     0.001 A 
HETATM   26  C   UNL     1      43.924 -20.951   3.042  1.00  0.00     0.000 A 
HETATM   27  C   UNL     1      44.137 -20.568   4.364  1.00  0.00     0.001 A 
HETATM   28  C   UNL     1      43.890 -19.252   4.760  1.00  0.00     0.010 A 
ENDBRANCH   1  23
TORSDOF 7
ENDMDL
MODEL 7
REMARK VINA RESULT:      -7.2      3.556      7.685
REMARK  7 active torsions:
REMARK  status: ('A' for Active; 'I' for Inactive)
REMARK    1  A    between atoms: O_2  and  C_3 
REMARK    2  A    between atoms: C_6  and  C_7 
REMARK    3  A    between atoms: C_7  and  N_8 
REMARK    4  A    between atoms: N_8  and  C_11 
REMARK    5  A    between atoms: C_11  and  C_12 
REMARK    6  A    between atoms: C_11  and  C_20 
REMARK       I    between atoms: C_12  and  N_13 
REMARK    7  A    between atoms: N_13  and  C_14 
ROOT
HETATM    1  C   UNL     1      41.436 -15.188   3.605  1.00  0.00     0.310 C 
ENDROOT
BRANCH   1   2
HETATM    2  N   UNL     1      42.185 -13.893   3.864  1.00  0.00    -0.054 N 
HETATM    3  H   UNL     1      42.424 -13.423   2.988  1.00  0.00     0.278 HD
HETATM    4  H   UNL     1      43.070 -14.171   4.315  1.00  0.00     0.278 HD
BRANCH   2   5
HETATM    5  C   UNL     1      41.548 -12.916   4.793  1.00  0.00     0.272 C 
BRANCH   5   6
HETATM    6  C   UNL     1      42.572 -12.314   5.714  1.00  0.00    -0.033 A 
HETATM    7  C   UNL     1      42.377 -11.038   6.261  1.00  0.00     0.011 A 
HETATM    8  C   UNL     1      43.338 -10.471   7.106  1.00  0.00     0.037 A 
HETATM    9  C   UNL     1      44.508 -11.166   7.406  1.00  0.00     0.068 A 
HETATM   10  C   UNL     1      44.712 -12.430   6.849  1.00  0.00     0.037 A 
HETATM   11  C   UNL     1      43.753 -13.007   6.012  1.00  0.00     0.011 A 
BRANCH   9  12
HETATM   12  O   UNL     1      45.521 -10.727   8.211  1.00  0.00    -0.356 OA
HETATM   13  C   UNL     1      45.819  -9.336   8.177  1.00  0.00     0.210 C 
ENDBRANCH   9  12
ENDBRANCH   5   6
ENDBRANCH   2   5
ENDBRANCH   1   2
BRANCH   1  14
HETATM   14  C   UNL     1      40.492 -15.028   2.391  1.00  0.00     0.259 C 
HETATM   15  N   UNL     1      40.940 -14.203   1.387  1.00  0.00    -0.304 N 
HETATM   16  H   UNL     1      41.832 -13.723   1.420  1.00  0.00     0.171 HD
HETATM   17  O   UNL     1      39.448 -15.684   2.405  1.00  0.00    -0.270 OA
BRANCH  15  18
HETATM   18  C   UNL     1      40.159 -13.909   0.302  1.00  0.00     0.172 A 
HETATM   19  S   UNL     1      39.403 -12.382   0.375  1.00  0.00    -0.062 SA
HETATM   20  C   UNL     1      38.659 -12.707  -1.138  1.00  0.00     0.072 A 
HETATM   21  C   UNL     1      39.046 -13.955  -1.582  1.00  0.00     0.126 A 
HETATM   22  N   UNL     1      39.903 -14.645  -0.744  1.00  0.00    -0.236 NA
ENDBRANCH  15  18
ENDBRANCH   1  14
BRANCH   1  23
HETATM   23  C   UNL     1      42.352 -16.394   3.590  1.00  0.00    -0.019 A 
HETATM   24  C   UNL     1      43.244 -16.594   4.659  1.00  0.00     0.010 A 
HETATM   25  C   UNL     1      44.119 -17.681   4.659  1.00  0.00     0.001 A 
HETATM   26  C   UNL     1      44.123 -18.575   3.593  1.00  0.00     0.000 A 
HETATM   27  C   UNL     1      43.253 -18.386   2.523  1.00  0.00     0.001 A 
HETATM   28  C   UNL     1      42.375 -17.301   2.516  1.00  0.00     0.010 A 
ENDBRANCH   1  23
TORSDOF 7
ENDMDL
MODEL 8
REMARK VINA RESULT:      -7.1      3.524      5.907
REMARK  7 active torsions:
REMARK  status: ('A' for Active; 'I' for Inactive)
REMARK    1  A    between atoms: O_2  and  C_3 
REMARK    2  A    between atoms: C_6  and  C_7 
REMARK    3  A    between atoms: C_7  and  N_8 
REMARK    4  A    between atoms: N_8  and  C_11 
REMARK    5  A    between atoms: C_11  and  C_12 
REMARK    6  A    between atoms: C_11  and  C_20 
REMARK       I    between atoms: C_12  and  N_13 
REMARK    7  A    between atoms: N_13  and  C_14 
ROOT
HETATM    1  C   UNL     1      42.859 -12.985   2.773  1.00  0.00     0.310 C 
ENDROOT
BRANCH   1   2
HETATM    2  N   UNL     1      41.420 -12.511   2.677  1.00  0.00    -0.054 N 
HETATM    3  H   UNL     1      41.094 -12.135   3.571  1.00  0.00     0.278 HD
HETATM    4  H   UNL     1      40.863 -13.356   2.478  1.00  0.00     0.278 HD
BRANCH   2   5
HETATM    5  C   UNL     1      41.096 -11.547   1.586  1.00  0.00     0.272 C 
BRANCH   5   6
HETATM    6  C   UNL     1      40.695 -12.276   0.334  1.00  0.00    -0.033 A 
HETATM    7  C   UNL     1      40.073 -13.531   0.406  1.00  0.00     0.011 A 
HETATM    8  C   UNL     1      39.715 -14.216  -0.760  1.00  0.00     0.037 A 
HETATM    9  C   UNL     1      39.982 -13.662  -2.010  1.00  0.00     0.068 A 
HETATM   10  C   UNL     1      40.615 -12.420  -2.085  1.00  0.00     0.037 A 
HETATM   11  C   UNL     1      40.968 -11.726  -0.925  1.00  0.00     0.011 A 
BRANCH   9  12
HETATM   12  O   UNL     1      39.686 -14.225  -3.219  1.00  0.00    -0.356 OA
HETATM   13  C   UNL     1      38.401 -14.822  -3.359  1.00  0.00     0.210 C 
ENDBRANCH   9  12
ENDBRANCH   5   6
ENDBRANCH   2   5
ENDBRANCH   1   2
BRANCH   1  14
HETATM   14  C   UNL     1      43.611 -12.197   3.870  1.00  0.00     0.259 C 
HETATM   15  N   UNL     1      43.203 -12.429   5.162  1.00  0.00    -0.304 N 
HETATM   16  H   UNL     1      42.459 -13.074   5.401  1.00  0.00     0.171 HD
HETATM   17  O   UNL     1      44.537 -11.470   3.501  1.00  0.00    -0.270 OA
BRANCH  15  18
HETATM   18  C   UNL     1      43.728 -11.727   6.214  1.00  0.00     0.172 A 
HETATM   19  S   UNL     1      42.749 -10.440   6.758  1.00  0.00    -0.062 SA
HETATM   20  C   UNL     1      43.946 -10.061   7.930  1.00  0.00     0.072 A 
HETATM   21  C   UNL     1      44.998 -10.946   7.815  1.00  0.00     0.126 A 
HETATM   22  N   UNL     1      44.870 -11.897   6.820  1.00  0.00    -0.236 NA
ENDBRANCH  15  18
ENDBRANCH   1  14
BRANCH   1  23
HETATM   23  C   UNL     1      42.968 -14.494   2.834  1.00  0.00    -0.019 A 
HETATM   24  C   UNL     1      43.287 -15.210   1.666  1.00  0.00     0.010 A 
HETATM   25  C   UNL     1      43.368 -16.602   1.685  1.00  0.00     0.001 A 
HETATM   26  C   UNL     1      43.123 -17.300   2.865  1.00  0.00     0.000 A 
HETATM   27  C   UNL     1      42.797 -16.608   4.028  1.00  0.00     0.001 A 
HETATM   28  C   UNL     1      42.715 -15.214   4.015  1.00  0.00     0.010 A 
ENDBRANCH   1  23
TORSDOF 7
ENDMDL
MODEL 9
REMARK VINA RESULT:      -7.1     14.567     16.087
REMARK  7 active torsions:
REMARK  status: ('A' for Active; 'I' for Inactive)
REMARK    1  A    between atoms: O_2  and  C_3 
REMARK    2  A    between atoms: C_6  and  C_7 
REMARK    3  A    between atoms: C_7  and  N_8 
REMARK    4  A    between atoms: N_8  and  C_11 
REMARK    5  A    between atoms: C_11  and  C_12 
REMARK    6  A    between atoms: C_11  and  C_20 
REMARK       I    between atoms: C_12  and  N_13 
REMARK    7  A    between atoms: N_13  and  C_14 
ROOT
HETATM    1  C   UNL     1      44.718 -29.455   0.119  1.00  0.00     0.310 C 
ENDROOT
BRANCH   1   2
HETATM    2  N   UNL     1      45.493 -28.309   0.743  1.00  0.00    -0.054 N 
HETATM    3  H   UNL     1      44.861 -27.601   1.127  1.00  0.00     0.278 HD
HETATM    4  H   UNL     1      46.010 -27.869  -0.033  1.00  0.00     0.278 HD
BRANCH   2   5
HETATM    5  C   UNL     1      46.520 -28.662   1.764  1.00  0.00     0.272 C 
BRANCH   5   6
HETATM    6  C   UNL     1      47.767 -29.183   1.106  1.00  0.00    -0.033 A 
HETATM    7  C   UNL     1      48.687 -29.954   1.830  1.00  0.00     0.011 A 
HETATM    8  C   UNL     1      49.856 -30.426   1.222  1.00  0.00     0.037 A 
HETATM    9  C   UNL     1      50.123 -30.125  -0.112  1.00  0.00     0.068 A 
HETATM   10  C   UNL     1      49.216 -29.344  -0.831  1.00  0.00     0.037 A 
HETATM   11  C   UNL     1      48.043 -28.877  -0.233  1.00  0.00     0.011 A 
BRANCH   9  12
HETATM   12  O   UNL     1      51.222 -30.521  -0.821  1.00  0.00    -0.356 OA
HETATM   13  C   UNL     1      51.129 -30.475  -2.241  1.00  0.00     0.210 C 
ENDBRANCH   9  12
ENDBRANCH   5   6
ENDBRANCH   2   5
ENDBRANCH   1   2
BRANCH   1  14
HETATM   14  C   UNL     1      43.378 -29.664   0.860  1.00  0.00     0.259 C 
HETATM   15  N   UNL     1      43.368 -30.655   1.814  1.00  0.00    -0.304 N 
HETATM   16  H   UNL     1      44.178 -31.222   2.032  1.00  0.00     0.171 HD
HETATM   17  O   UNL     1      42.454 -28.900   0.570  1.00  0.00    -0.270 OA
BRANCH  15  18
HETATM   18  C   UNL     1      42.219 -30.998   2.474  1.00  0.00     0.172 A 
HETATM   19  S   UNL     1      41.229 -32.104   1.634  1.00  0.00    -0.062 SA
HETATM   20  C   UNL     1      40.099 -32.032   2.926  1.00  0.00     0.072 A 
HETATM   21  C   UNL     1      40.566 -31.171   3.898  1.00  0.00     0.126 A 
HETATM   22  N   UNL     1      41.783 -30.573   3.628  1.00  0.00    -0.236 NA
ENDBRANCH  15  18
ENDBRANCH   1  14
BRANCH   1  23
HETATM   23  C   UNL     1      44.643 -29.349  -1.390  1.00  0.00    -0.019 A 
HETATM   24  C   UNL     1      45.025 -28.149  -2.016  1.00  0.00     0.010 A 
HETATM   25  C   UNL     1      44.940 -28.012  -3.402  1.00  0.00     0.001 A 
HETATM   26  C   UNL     1      44.465 -29.064  -4.180  1.00  0.00     0.000 A 
HETATM   27  C   UNL     1      44.074 -30.256  -3.576  1.00  0.00     0.001 A 
HETATM   28  C   UNL     1      44.156 -30.399  -2.190  1.00  0.00     0.010 A 
ENDBRANCH   1  23
TORSDOF 7
ENDMDL
MODEL 10
REMARK VINA RESULT:      -7.0      1.675      2.322
REMARK  7 active torsions:
REMARK  status: ('A' for Active; 'I' for Inactive)
REMARK    1  A    between atoms: O_2  and  C_3 
REMARK    2  A    between atoms: C_6  and  C_7 
REMARK    3  A    between atoms: C_7  and  N_8 
REMARK    4  A    between atoms: N_8  and  C_11 
REMARK    5  A    between atoms: C_11  and  C_12 
REMARK    6  A    between atoms: C_11  and  C_20 
REMARK       I    between atoms: C_12  and  N_13 
REMARK    7  A    between atoms: N_13  and  C_14 
ROOT
HETATM    1  C   UNL     1      42.006 -13.148   5.754  1.00  0.00     0.310 C 
ENDROOT
BRANCH   1   2
HETATM    2  N   UNL     1      42.646 -14.443   6.218  1.00  0.00    -0.054 N 
HETATM    3  H   UNL     1      42.981 -14.366   7.182  1.00  0.00     0.278 HD
HETATM    4  H   UNL     1      43.474 -14.575   5.616  1.00  0.00     0.278 HD
BRANCH   2   5
HETATM    5  C   UNL     1      41.840 -15.689   6.073  1.00  0.00     0.272 C 
BRANCH   5   6
HETATM    6  C   UNL     1      42.474 -16.620   5.078  1.00  0.00    -0.033 A 
HETATM    7  C   UNL     1      41.998 -16.692   3.762  1.00  0.00     0.011 A 
HETATM    8  C   UNL     1      42.579 -17.571   2.841  1.00  0.00     0.037 A 
HETATM    9  C   UNL     1      43.634 -18.395   3.226  1.00  0.00     0.068 A 
HETATM   10  C   UNL     1      44.100 -18.337   4.541  1.00  0.00     0.037 A 
HETATM   11  C   UNL     1      43.531 -17.456   5.464  1.00  0.00     0.011 A 
BRANCH   9  12
HETATM   12  O   UNL     1      44.285 -19.293   2.429  1.00  0.00    -0.356 OA
HETATM   13  C   UNL     1      43.516 -20.370   1.903  1.00  0.00     0.210 C 
ENDBRANCH   9  12
ENDBRANCH   5   6
ENDBRANCH   2   5
ENDBRANCH   1   2
BRANCH   1  14
HETATM   14  C   UNL     1      42.873 -11.940   6.174  1.00  0.00     0.259 C 
HETATM   15  N   UNL     1      43.931 -12.221   7.007  1.00  0.00    -0.304 N 
HETATM   16  H   UNL     1      44.146 -13.155   7.333  1.00  0.00     0.171 HD
HETATM   17  O   UNL     1      42.574 -10.843   5.694  1.00  0.00    -0.270 OA
BRANCH  15  18
HETATM   18  C   UNL     1      44.718 -11.226   7.521  1.00  0.00     0.172 A 
HETATM   19  S   UNL     1      44.095 -10.496   8.932  1.00  0.00    -0.062 SA
HETATM   20  C   UNL     1      45.457  -9.451   8.960  1.00  0.00     0.072 A 
HETATM   21  C   UNL     1      46.281  -9.740   7.892  1.00  0.00     0.126 A 
HETATM   22  N   UNL     1      45.846 -10.758   7.063  1.00  0.00    -0.236 NA
ENDBRANCH  15  18
ENDBRANCH   1  14
BRANCH   1  23
HETATM   23  C   UNL     1      41.584 -13.200   4.300  1.00  0.00    -0.019 A 
HETATM   24  C   UNL     1      40.215 -13.255   3.982  1.00  0.00     0.010 A 
HETATM   25  C   UNL     1      39.797 -13.332   2.653  1.00  0.00     0.001 A 
HETATM   26  C   UNL     1      40.735 -13.362   1.626  1.00  0.00     0.000 A 
HETATM   27  C   UNL     1      42.095 -13.317   1.924  1.00  0.00     0.001 A 
HETATM   28  C   UNL     1      42.519 -13.241   3.251  1.00  0.00     0.010 A 
ENDBRANCH   1  23
TORSDOF 7
ENDMDL
