MODEL 1
REMARK VINA RESULT:      -6.9      0.000      0.000
REMARK  10 active torsions:
REMARK  status: ('A' for Active; 'I' for Inactive)
REMARK    1  A    between atoms: O_2  and  C_3 
REMARK    2  A    between atoms: C_6  and  C_7 
REMARK       I    between atoms: C_7  and  N_8 
REMARK    3  A    between atoms: N_8  and  C_9 
REMARK    4  A    between atoms: C_9  and  N_10 
REMARK    5  A    between atoms: N_10  and  C_11 
REMARK    6  A    between atoms: C_12  and  C_13 
REMARK       I    between atoms: C_13  and  N_14 
REMARK    7  A    between atoms: N_14  and  C_15 
REMARK    8  A    between atoms: C_15  and  C_16 
REMARK    9  A    between atoms: C_16  and  C_17 
REMARK   10  A    between atoms: C_17  and  O_18 
ROOT
HETATM    1  N   UNL     1      40.517 -13.319   6.466  1.00  0.00    -0.332 N 
HETATM    2  H   UNL     1      39.800 -13.533   7.148  1.00  0.00     0.168 HD
ENDROOT
BRANCH   1   3
HETATM    3  C   UNL     1      40.053 -12.543   5.422  1.00  0.00     0.179 C 
HETATM    4  S   UNL     1      40.331 -10.909   5.167  1.00  0.00    -0.040 SA
BRANCH   3   5
HETATM    5  N   UNL     1      39.414 -13.224   4.398  1.00  0.00    -0.299 N 
HETATM    6  C   UNL     1      39.929 -13.457   3.141  1.00  0.00     0.257 C 
HETATM    7  O   UNL     1      39.568 -12.821   2.158  1.00  0.00    -0.267 OA
HETATM    8  H   UNL     1      38.455 -12.895   4.357  1.00  0.00     0.171 HD
BRANCH   6   9
HETATM    9  C   UNL     1      40.948 -14.523   3.011  1.00  0.00     0.032 A 
HETATM   10  C   UNL     1      40.570 -15.870   3.029  1.00  0.00     0.020 A 
HETATM   11  C   UNL     1      41.526 -16.858   2.772  1.00  0.00     0.038 A 
HETATM   12  C   UNL     1      42.848 -16.492   2.511  1.00  0.00     0.068 A 
HETATM   13  C   UNL     1      43.232 -15.151   2.547  1.00  0.00     0.038 A 
HETATM   14  C   UNL     1      42.277 -14.160   2.767  1.00  0.00     0.020 A 
BRANCH  12  15
HETATM   15  O   UNL     1      43.829 -17.411   2.254  1.00  0.00    -0.356 OA
HETATM   16  C   UNL     1      43.792 -18.501   3.173  1.00  0.00     0.210 C 
ENDBRANCH  12  15
ENDBRANCH   6   9
ENDBRANCH   3   5
ENDBRANCH   1   3
BRANCH   1  17
HETATM   17  C   UNL     1      41.575 -14.263   6.439  1.00  0.00     0.050 A 
HETATM   18  C   UNL     1      42.944 -13.959   6.336  1.00  0.00     0.058 A 
HETATM   19  C   UNL     1      43.890 -15.004   6.295  1.00  0.00     0.019 A 
HETATM   20  C   UNL     1      43.483 -16.336   6.363  1.00  0.00     0.001 A 
HETATM   21  C   UNL     1      42.134 -16.638   6.507  1.00  0.00     0.002 A 
HETATM   22  C   UNL     1      41.190 -15.610   6.562  1.00  0.00     0.030 A 
BRANCH  18  23
HETATM   23  C   UNL     1      43.468 -12.572   6.454  1.00  0.00     0.253 C 
HETATM   24  N   UNL     1      43.466 -12.042   7.730  1.00  0.00    -0.357 N 
HETATM   25  H   UNL     1      43.144 -12.610   8.505  1.00  0.00     0.162 HD
HETATM   26  O   UNL     1      43.844 -11.960   5.462  1.00  0.00    -0.268 OA
BRANCH  24  27
HETATM   27  C   UNL     1      43.848 -10.669   7.974  1.00  0.00     0.125 C 
BRANCH  27  28
HETATM   28  C   UNL     1      45.209 -10.544   8.644  1.00  0.00     0.046 C 
BRANCH  28  29
HETATM   29  C   UNL     1      46.282 -10.027   7.696  1.00  0.00     0.165 C 
BRANCH  29  30
HETATM   30  O   UNL     1      46.407 -10.919   6.593  1.00  0.00    -0.401 OA
HETATM   31  H   UNL     1      45.794 -11.658   6.747  1.00  0.00     0.209 HD
ENDBRANCH  29  30
ENDBRANCH  28  29
ENDBRANCH  27  28
ENDBRANCH  24  27
ENDBRANCH  18  23
ENDBRANCH   1  17
TORSDOF 10
ENDMDL
MODEL 2
REMARK VINA RESULT:      -6.6      4.905      9.660
REMARK  10 active torsions:
REMARK  status: ('A' for Active; 'I' for Inactive)
REMARK    1  A    between atoms: O_2  and  C_3 
REMARK    2  A    between atoms: C_6  and  C_7 
REMARK       I    between atoms: C_7  and  N_8 
REMARK    3  A    between atoms: N_8  and  C_9 
REMARK    4  A    between atoms: C_9  and  N_10 
REMARK    5  A    between atoms: N_10  and  C_11 
REMARK    6  A    between atoms: C_12  and  C_13 
REMARK       I    between atoms: C_13  and  N_14 
REMARK    7  A    between atoms: N_14  and  C_15 
REMARK    8  A    between atoms: C_15  and  C_16 
REMARK    9  A    between atoms: C_16  and  C_17 
REMARK   10  A    between atoms: C_17  and  O_18 
ROOT
HETATM    1  N   UNL     1      42.117  -9.632   8.729  1.00  0.00    -0.332 N 
HETATM    2  H   UNL     1      41.535  -9.397   7.934  1.00  0.00     0.168 HD
ENDROOT
BRANCH   1   3
HETATM    3  C   UNL     1      41.557  -9.263   9.936  1.00  0.00     0.179 C 
HETATM    4  S   UNL     1      40.581  -7.934  10.240  1.00  0.00    -0.040 SA
BRANCH   3   5
HETATM    5  N   UNL     1      41.696 -10.172  10.973  1.00  0.00    -0.299 N 
HETATM    6  C   UNL     1      42.714 -10.184  11.902  1.00  0.00     0.257 C 
HETATM    7  O   UNL     1      43.638 -10.988  11.848  1.00  0.00    -0.267 OA
HETATM    8  H   UNL     1      41.514 -11.097  10.601  1.00  0.00     0.171 HD
BRANCH   6   9
HETATM    9  C   UNL     1      42.655  -9.182  12.989  1.00  0.00     0.032 A 
HETATM   10  C   UNL     1      43.440  -8.025  12.930  1.00  0.00     0.020 A 
HETATM   11  C   UNL     1      43.274  -7.028  13.896  1.00  0.00     0.038 A 
HETATM   12  C   UNL     1      42.335  -7.201  14.916  1.00  0.00     0.068 A 
HETATM   13  C   UNL     1      41.592  -8.379  15.002  1.00  0.00     0.038 A 
HETATM   14  C   UNL     1      41.728  -9.360  14.021  1.00  0.00     0.020 A 
BRANCH  12  15
HETATM   15  O   UNL     1      42.127  -6.264  15.890  1.00  0.00    -0.356 OA
HETATM   16  C   UNL     1      41.897  -6.863  17.165  1.00  0.00     0.210 C 
ENDBRANCH  12  15
ENDBRANCH   6   9
ENDBRANCH   3   5
ENDBRANCH   1   3
BRANCH   1  17
HETATM   17  C   UNL     1      43.495  -9.742   8.411  1.00  0.00     0.050 A 
HETATM   18  C   UNL     1      44.088 -10.785   7.678  1.00  0.00     0.058 A 
HETATM   19  C   UNL     1      45.481 -10.779   7.457  1.00  0.00     0.019 A 
HETATM   20  C   UNL     1      46.275  -9.746   7.953  1.00  0.00     0.001 A 
HETATM   21  C   UNL     1      45.686  -8.692   8.641  1.00  0.00     0.002 A 
HETATM   22  C   UNL     1      44.306  -8.682   8.853  1.00  0.00     0.030 A 
BRANCH  18  23
HETATM   23  C   UNL     1      43.290 -11.812   6.956  1.00  0.00     0.253 C 
HETATM   24  N   UNL     1      43.508 -13.119   7.350  1.00  0.00    -0.357 N 
HETATM   25  H   UNL     1      44.157 -13.310   8.103  1.00  0.00     0.162 HD
HETATM   26  O   UNL     1      42.521 -11.489   6.059  1.00  0.00    -0.268 OA
BRANCH  24  27
HETATM   27  C   UNL     1      42.880 -14.225   6.662  1.00  0.00     0.125 C 
BRANCH  27  28
HETATM   28  C   UNL     1      43.777 -15.452   6.574  1.00  0.00     0.046 C 
BRANCH  28  29
HETATM   29  C   UNL     1      43.445 -16.497   7.629  1.00  0.00     0.165 C 
BRANCH  29  30
HETATM   30  O   UNL     1      43.400 -15.877   8.910  1.00  0.00    -0.401 OA
HETATM   31  H   UNL     1      42.465 -15.724   9.125  1.00  0.00     0.209 HD
ENDBRANCH  29  30
ENDBRANCH  28  29
ENDBRANCH  27  28
ENDBRANCH  24  27
ENDBRANCH  18  23
ENDBRANCH   1  17
TORSDOF 10
ENDMDL
MODEL 3
REMARK VINA RESULT:      -6.6      3.033      6.033
REMARK  10 active torsions:
REMARK  status: ('A' for Active; 'I' for Inactive)
REMARK    1  A    between atoms: O_2  and  C_3 
REMARK    2  A    between atoms: C_6  and  C_7 
REMARK       I    between atoms: C_7  and  N_8 
REMARK    3  A    between atoms: N_8  and  C_9 
REMARK    4  A    between atoms: C_9  and  N_10 
REMARK    5  A    between atoms: N_10  and  C_11 
REMARK    6  A    between atoms: C_12  and  C_13 
REMARK       I    between atoms: C_13  and  N_14 
REMARK    7  A    between atoms: N_14  and  C_15 
REMARK    8  A    between atoms: C_15  and  C_16 
REMARK    9  A    between atoms: C_16  and  C_17 
REMARK   10  A    between atoms: C_17  and  O_18 
ROOT
HETATM    1  N   UNL     1      39.695 -12.303   3.342  1.00  0.00    -0.332 N 
HETATM    2  H   UNL     1      39.140 -11.533   2.990  1.00  0.00     0.168 HD
ENDROOT
BRANCH   1   3
HETATM    3  C   UNL     1      40.597 -11.918   4.314  1.00  0.00     0.179 C 
HETATM    4  S   UNL     1      40.305 -11.720   5.953  1.00  0.00    -0.040 SA
BRANCH   3   5
HETATM    5  N   UNL     1      41.921 -11.832   3.911  1.00  0.00    -0.299 N 
HETATM    6  C   UNL     1      42.941 -12.668   4.312  1.00  0.00     0.257 C 
HETATM    7  O   UNL     1      43.778 -12.328   5.140  1.00  0.00    -0.267 OA
HETATM    8  H   UNL     1      42.195 -10.857   3.952  1.00  0.00     0.171 HD
BRANCH   6   9
HETATM    9  C   UNL     1      42.998 -14.014   3.698  1.00  0.00     0.032 A 
HETATM   10  C   UNL     1      43.303 -14.161   2.341  1.00  0.00     0.020 A 
HETATM   11  C   UNL     1      43.484 -15.441   1.810  1.00  0.00     0.038 A 
HETATM   12  C   UNL     1      43.348 -16.560   2.635  1.00  0.00     0.068 A 
HETATM   13  C   UNL     1      42.991 -16.412   3.975  1.00  0.00     0.038 A 
HETATM   14  C   UNL     1      42.845 -15.137   4.518  1.00  0.00     0.020 A 
BRANCH  12  15
HETATM   15  O   UNL     1      43.511 -17.838   2.174  1.00  0.00    -0.356 OA
HETATM   16  C   UNL     1      43.747 -18.761   3.236  1.00  0.00     0.210 C 
ENDBRANCH  12  15
ENDBRANCH   6   9
ENDBRANCH   3   5
ENDBRANCH   1   3
BRANCH   1  17
HETATM   17  C   UNL     1      39.813 -13.381   2.428  1.00  0.00     0.050 A 
HETATM   18  C   UNL     1      40.120 -13.268   1.060  1.00  0.00     0.058 A 
HETATM   19  C   UNL     1      40.180 -14.427   0.260  1.00  0.00     0.019 A 
HETATM   20  C   UNL     1      39.945 -15.686   0.811  1.00  0.00     0.001 A 
HETATM   21  C   UNL     1      39.683 -15.805   2.171  1.00  0.00     0.002 A 
HETATM   22  C   UNL     1      39.634 -14.664   2.975  1.00  0.00     0.030 A 
BRANCH  18  23
HETATM   23  C   UNL     1      40.571 -11.992   0.443  1.00  0.00     0.253 C 
HETATM   24  N   UNL     1      39.964 -11.663  -0.754  1.00  0.00    -0.357 N 
HETATM   25  H   UNL     1      39.245 -12.269  -1.131  1.00  0.00     0.162 HD
HETATM   26  O   UNL     1      41.444 -11.316   0.973  1.00  0.00    -0.268 OA
BRANCH  24  27
HETATM   27  C   UNL     1      40.382 -10.506  -1.515  1.00  0.00     0.125 C 
BRANCH  27  28
HETATM   28  C   UNL     1      40.768 -10.850  -2.948  1.00  0.00     0.046 C 
BRANCH  28  29
HETATM   29  C   UNL     1      40.395 -12.276  -3.328  1.00  0.00     0.165 C 
BRANCH  29  30
HETATM   30  O   UNL     1      41.549 -13.105  -3.238  1.00  0.00    -0.401 OA
HETATM   31  H   UNL     1      42.041 -12.834  -2.445  1.00  0.00     0.209 HD
ENDBRANCH  29  30
ENDBRANCH  28  29
ENDBRANCH  27  28
ENDBRANCH  24  27
ENDBRANCH  18  23
ENDBRANCH   1  17
TORSDOF 10
ENDMDL
MODEL 4
REMARK VINA RESULT:      -6.5      2.345      4.476
REMARK  10 active torsions:
REMARK  status: ('A' for Active; 'I' for Inactive)
REMARK    1  A    between atoms: O_2  and  C_3 
REMARK    2  A    between atoms: C_6  and  C_7 
REMARK       I    between atoms: C_7  and  N_8 
REMARK    3  A    between atoms: N_8  and  C_9 
REMARK    4  A    between atoms: C_9  and  N_10 
REMARK    5  A    between atoms: N_10  and  C_11 
REMARK    6  A    between atoms: C_12  and  C_13 
REMARK       I    between atoms: C_13  and  N_14 
REMARK    7  A    between atoms: N_14  and  C_15 
REMARK    8  A    between atoms: C_15  and  C_16 
REMARK    9  A    between atoms: C_16  and  C_17 
REMARK   10  A    between atoms: C_17  and  O_18 
ROOT
HETATM    1  N   UNL     1      39.975 -14.288   4.312  1.00  0.00    -0.332 N 
HETATM    2  H   UNL     1      39.485 -13.466   4.643  1.00  0.00     0.168 HD
ENDROOT
BRANCH   1   3
HETATM    3  C   UNL     1      40.853 -14.805   5.244  1.00  0.00     0.179 C 
HETATM    4  S   UNL     1      40.492 -15.820   6.528  1.00  0.00    -0.040 SA
BRANCH   3   5
HETATM    5  N   UNL     1      42.199 -14.578   5.000  1.00  0.00    -0.299 N 
HETATM    6  C   UNL     1      43.245 -15.313   5.514  1.00  0.00     0.257 C 
HETATM    7  O   UNL     1      43.941 -14.903   6.436  1.00  0.00    -0.267 OA
HETATM    8  H   UNL     1      42.364 -13.581   5.077  1.00  0.00     0.171 HD
BRANCH   6   9
HETATM    9  C   UNL     1      43.512 -16.635   4.906  1.00  0.00     0.032 A 
HETATM   10  C   UNL     1      43.938 -17.707   5.697  1.00  0.00     0.020 A 
HETATM   11  C   UNL     1      44.057 -18.979   5.130  1.00  0.00     0.038 A 
HETATM   12  C   UNL     1      43.760 -19.166   3.778  1.00  0.00     0.068 A 
HETATM   13  C   UNL     1      43.386 -18.085   2.979  1.00  0.00     0.038 A 
HETATM   14  C   UNL     1      43.232 -16.822   3.548  1.00  0.00     0.020 A 
BRANCH  12  15
HETATM   15  O   UNL     1      43.858 -20.385   3.165  1.00  0.00    -0.356 OA
HETATM   16  C   UNL     1      43.636 -20.293   1.758  1.00  0.00     0.210 C 
ENDBRANCH  12  15
ENDBRANCH   6   9
ENDBRANCH   3   5
ENDBRANCH   1   3
BRANCH   1  17
HETATM   17  C   UNL     1      40.070 -14.361   2.899  1.00  0.00     0.050 A 
HETATM   18  C   UNL     1      40.345 -13.283   2.038  1.00  0.00     0.058 A 
HETATM   19  C   UNL     1      40.384 -13.495   0.644  1.00  0.00     0.019 A 
HETATM   20  C   UNL     1      40.160 -14.763   0.111  1.00  0.00     0.001 A 
HETATM   21  C   UNL     1      39.930 -15.839   0.961  1.00  0.00     0.002 A 
HETATM   22  C   UNL     1      39.902 -15.642   2.344  1.00  0.00     0.030 A 
BRANCH  18  23
HETATM   23  C   UNL     1      40.783 -11.952   2.535  1.00  0.00     0.253 C 
HETATM   24  N   UNL     1      42.068 -11.900   3.041  1.00  0.00    -0.357 N 
HETATM   25  H   UNL     1      42.644 -12.733   3.027  1.00  0.00     0.162 HD
HETATM   26  O   UNL     1      40.022 -10.993   2.509  1.00  0.00    -0.268 OA
BRANCH  24  27
HETATM   27  C   UNL     1      42.586 -10.696   3.655  1.00  0.00     0.125 C 
BRANCH  27  28
HETATM   28  C   UNL     1      42.239 -10.591   5.133  1.00  0.00     0.046 C 
BRANCH  28  29
HETATM   29  C   UNL     1      43.294 -11.225   6.029  1.00  0.00     0.165 C 
BRANCH  29  30
HETATM   30  O   UNL     1      42.671 -12.165   6.898  1.00  0.00    -0.401 OA
HETATM   31  H   UNL     1      41.763 -12.300   6.578  1.00  0.00     0.209 HD
ENDBRANCH  29  30
ENDBRANCH  28  29
ENDBRANCH  27  28
ENDBRANCH  24  27
ENDBRANCH  18  23
ENDBRANCH   1  17
TORSDOF 10
ENDMDL
MODEL 5
REMARK VINA RESULT:      -6.4      1.496      1.900
REMARK  10 active torsions:
REMARK  status: ('A' for Active; 'I' for Inactive)
REMARK    1  A    between atoms: O_2  and  C_3 
REMARK    2  A    between atoms: C_6  and  C_7 
REMARK       I    between atoms: C_7  and  N_8 
REMARK    3  A    between atoms: N_8  and  C_9 
REMARK    4  A    between atoms: C_9  and  N_10 
REMARK    5  A    between atoms: N_10  and  C_11 
REMARK    6  A    between atoms: C_12  and  C_13 
REMARK       I    between atoms: C_13  and  N_14 
REMARK    7  A    between atoms: N_14  and  C_15 
REMARK    8  A    between atoms: C_15  and  C_16 
REMARK    9  A    between atoms: C_16  and  C_17 
REMARK   10  A    between atoms: C_17  and  O_18 
ROOT
HETATM    1  N   UNL     1      39.623 -13.073   5.032  1.00  0.00    -0.332 N 
HETATM    2  H   UNL     1      38.762 -13.066   5.564  1.00  0.00     0.168 HD
ENDROOT
BRANCH   1   3
HETATM    3  C   UNL     1      39.442 -12.724   3.708  1.00  0.00     0.179 C 
HETATM    4  S   UNL     1      39.739 -11.234   3.000  1.00  0.00    -0.040 SA
BRANCH   3   5
HETATM    5  N   UNL     1      39.123 -13.761   2.845  1.00  0.00    -0.299 N 
HETATM    6  C   UNL     1      39.894 -14.198   1.790  1.00  0.00     0.257 C 
HETATM    7  O   UNL     1      39.625 -13.923   0.626  1.00  0.00    -0.267 OA
HETATM    8  H   UNL     1      38.148 -13.658   2.583  1.00  0.00     0.171 HD
BRANCH   6   9
HETATM    9  C   UNL     1      41.077 -15.028   2.110  1.00  0.00     0.032 A 
HETATM   10  C   UNL     1      42.299 -14.427   2.427  1.00  0.00     0.020 A 
HETATM   11  C   UNL     1      43.368 -15.221   2.855  1.00  0.00     0.038 A 
HETATM   12  C   UNL     1      43.208 -16.605   2.951  1.00  0.00     0.068 A 
HETATM   13  C   UNL     1      42.004 -17.206   2.582  1.00  0.00     0.038 A 
HETATM   14  C   UNL     1      40.925 -16.416   2.190  1.00  0.00     0.020 A 
BRANCH  12  15
HETATM   15  O   UNL     1      44.215 -17.435   3.362  1.00  0.00    -0.356 OA
HETATM   16  C   UNL     1      43.750 -18.421   4.282  1.00  0.00     0.210 C 
ENDBRANCH  12  15
ENDBRANCH   6   9
ENDBRANCH   3   5
ENDBRANCH   1   3
BRANCH   1  17
HETATM   17  C   UNL     1      40.617 -13.927   5.574  1.00  0.00     0.050 A 
HETATM   18  C   UNL     1      41.878 -13.523   6.047  1.00  0.00     0.058 A 
HETATM   19  C   UNL     1      42.782 -14.487   6.538  1.00  0.00     0.019 A 
HETATM   20  C   UNL     1      42.436 -15.837   6.567  1.00  0.00     0.001 A 
HETATM   21  C   UNL     1      41.174 -16.236   6.140  1.00  0.00     0.002 A 
HETATM   22  C   UNL     1      40.267 -15.286   5.664  1.00  0.00     0.030 A 
BRANCH  18  23
HETATM   23  C   UNL     1      42.245 -12.093   6.228  1.00  0.00     0.253 C 
HETATM   24  N   UNL     1      43.138 -11.833   7.250  1.00  0.00    -0.357 N 
HETATM   25  H   UNL     1      43.511 -12.603   7.794  1.00  0.00     0.162 HD
HETATM   26  O   UNL     1      41.749 -11.225   5.520  1.00  0.00    -0.268 OA
BRANCH  24  27
HETATM   27  C   UNL     1      43.499 -10.479   7.607  1.00  0.00     0.125 C 
BRANCH  27  28
HETATM   28  C   UNL     1      44.699 -10.414   8.543  1.00  0.00     0.046 C 
BRANCH  28  29
HETATM   29  C   UNL     1      44.294 -10.292  10.005  1.00  0.00     0.165 C 
BRANCH  29  30
HETATM   30  O   UNL     1      43.614 -11.476  10.407  1.00  0.00    -0.401 OA
HETATM   31  H   UNL     1      43.965 -12.208   9.873  1.00  0.00     0.209 HD
ENDBRANCH  29  30
ENDBRANCH  28  29
ENDBRANCH  27  28
ENDBRANCH  24  27
ENDBRANCH  18  23
ENDBRANCH   1  17
TORSDOF 10
ENDMDL
MODEL 6
REMARK VINA RESULT:      -6.3      2.531      5.717
REMARK  10 active torsions:
REMARK  status: ('A' for Active; 'I' for Inactive)
REMARK    1  A    between atoms: O_2  and  C_3 
REMARK    2  A    between atoms: C_6  and  C_7 
REMARK       I    between atoms: C_7  and  N_8 
REMARK    3  A    between atoms: N_8  and  C_9 
REMARK    4  A    between atoms: C_9  and  N_10 
REMARK    5  A    between atoms: N_10  and  C_11 
REMARK    6  A    between atoms: C_12  and  C_13 
REMARK       I    between atoms: C_13  and  N_14 
REMARK    7  A    between atoms: N_14  and  C_15 
REMARK    8  A    between atoms: C_15  and  C_16 
REMARK    9  A    between atoms: C_16  and  C_17 
REMARK   10  A    between atoms: C_17  and  O_18 
ROOT
HETATM    1  N   UNL     1      39.690 -13.679   2.408  1.00  0.00    -0.332 N 
HETATM    2  H   UNL     1      39.521 -14.542   1.905  1.00  0.00     0.168 HD
ENDROOT
BRANCH   1   3
HETATM    3  C   UNL     1      39.839 -12.589   1.574  1.00  0.00     0.179 C 
HETATM    4  S   UNL     1      38.655 -11.501   1.101  1.00  0.00    -0.040 SA
BRANCH   3   5
HETATM    5  N   UNL     1      41.140 -12.277   1.211  1.00  0.00    -0.299 N 
HETATM    6  C   UNL     1      41.807 -11.113   1.528  1.00  0.00     0.257 C 
HETATM    7  O   UNL     1      41.983 -10.217   0.710  1.00  0.00    -0.267 OA
HETATM    8  H   UNL     1      41.259 -12.526   0.236  1.00  0.00     0.171 HD
BRANCH   6   9
HETATM    9  C   UNL     1      42.320 -10.977   2.909  1.00  0.00     0.032 A 
HETATM   10  C   UNL     1      41.713 -10.092   3.806  1.00  0.00     0.020 A 
HETATM   11  C   UNL     1      42.124 -10.073   5.143  1.00  0.00     0.038 A 
HETATM   12  C   UNL     1      43.142 -10.930   5.566  1.00  0.00     0.068 A 
HETATM   13  C   UNL     1      43.782 -11.774   4.658  1.00  0.00     0.038 A 
HETATM   14  C   UNL     1      43.352 -11.822   3.333  1.00  0.00     0.020 A 
BRANCH  12  15
HETATM   15  O   UNL     1      43.590 -10.959   6.859  1.00  0.00    -0.356 OA
HETATM   16  C   UNL     1      43.206  -9.790   7.582  1.00  0.00     0.210 C 
ENDBRANCH  12  15
ENDBRANCH   6   9
ENDBRANCH   3   5
ENDBRANCH   1   3
BRANCH   1  17
HETATM   17  C   UNL     1      40.264 -13.874   3.690  1.00  0.00     0.050 A 
HETATM   18  C   UNL     1      41.262 -14.812   4.010  1.00  0.00     0.058 A 
HETATM   19  C   UNL     1      41.724 -14.916   5.337  1.00  0.00     0.019 A 
HETATM   20  C   UNL     1      41.206 -14.094   6.337  1.00  0.00     0.001 A 
HETATM   21  C   UNL     1      40.249 -13.137   6.017  1.00  0.00     0.002 A 
HETATM   22  C   UNL     1      39.795 -13.018   4.702  1.00  0.00     0.030 A 
BRANCH  18  23
HETATM   23  C   UNL     1      41.997 -15.584   2.972  1.00  0.00     0.253 C 
HETATM   24  N   UNL     1      42.066 -16.948   3.183  1.00  0.00    -0.357 N 
HETATM   25  H   UNL     1      41.606 -17.351   3.991  1.00  0.00     0.162 HD
HETATM   26  O   UNL     1      42.518 -15.014   2.021  1.00  0.00    -0.268 OA
BRANCH  24  27
HETATM   27  C   UNL     1      42.839 -17.805   2.312  1.00  0.00     0.125 C 
BRANCH  27  28
HETATM   28  C   UNL     1      44.066 -18.392   2.997  1.00  0.00     0.046 C 
BRANCH  28  29
HETATM   29  C   UNL     1      43.924 -18.436   4.512  1.00  0.00     0.165 C 
BRANCH  29  30
HETATM   30  O   UNL     1      44.442 -17.233   5.070  1.00  0.00    -0.401 OA
HETATM   31  H   UNL     1      43.690 -16.733   5.429  1.00  0.00     0.209 HD
ENDBRANCH  29  30
ENDBRANCH  28  29
ENDBRANCH  27  28
ENDBRANCH  24  27
ENDBRANCH  18  23
ENDBRANCH   1  17
TORSDOF 10
ENDMDL
MODEL 7
REMARK VINA RESULT:      -6.2      2.988      7.003
REMARK  10 active torsions:
REMARK  status: ('A' for Active; 'I' for Inactive)
REMARK    1  A    between atoms: O_2  and  C_3 
REMARK    2  A    between atoms: C_6  and  C_7 
REMARK       I    between atoms: C_7  and  N_8 
REMARK    3  A    between atoms: N_8  and  C_9 
REMARK    4  A    between atoms: C_9  and  N_10 
REMARK    5  A    between atoms: N_10  and  C_11 
REMARK    6  A    between atoms: C_12  and  C_13 
REMARK       I    between atoms: C_13  and  N_14 
REMARK    7  A    between atoms: N_14  and  C_15 
REMARK    8  A    between atoms: C_15  and  C_16 
REMARK    9  A    between atoms: C_16  and  C_17 
REMARK   10  A    between atoms: C_17  and  O_18 
ROOT
HETATM    1  N   UNL     1      39.846 -14.621   3.286  1.00  0.00    -0.332 N 
HETATM    2  H   UNL     1      39.044 -15.182   3.026  1.00  0.00     0.168 HD
ENDROOT
BRANCH   1   3
HETATM    3  C   UNL     1      39.522 -13.304   3.545  1.00  0.00     0.179 C 
HETATM    4  S   UNL     1      39.206 -12.095   2.427  1.00  0.00    -0.040 SA
BRANCH   3   5
HETATM    5  N   UNL     1      39.288 -12.987   4.874  1.00  0.00    -0.299 N 
HETATM    6  C   UNL     1      40.092 -13.334   5.939  1.00  0.00     0.257 C 
HETATM    7  O   UNL     1      39.800 -14.242   6.709  1.00  0.00    -0.267 OA
HETATM    8  H   UNL     1      38.309 -13.163   5.068  1.00  0.00     0.171 HD
BRANCH   6   9
HETATM    9  C   UNL     1      41.339 -12.562   6.130  1.00  0.00     0.032 A 
HETATM   10  C   UNL     1      41.319 -11.164   6.097  1.00  0.00     0.020 A 
HETATM   11  C   UNL     1      42.478 -10.449   6.412  1.00  0.00     0.038 A 
HETATM   12  C   UNL     1      43.648 -11.136   6.744  1.00  0.00     0.068 A 
HETATM   13  C   UNL     1      43.679 -12.531   6.724  1.00  0.00     0.038 A 
HETATM   14  C   UNL     1      42.517 -13.248   6.447  1.00  0.00     0.020 A 
BRANCH  12  15
HETATM   15  O   UNL     1      44.814 -10.495   7.060  1.00  0.00    -0.356 OA
HETATM   16  C   UNL     1      45.960 -11.244   6.659  1.00  0.00     0.210 C 
ENDBRANCH  12  15
ENDBRANCH   6   9
ENDBRANCH   3   5
ENDBRANCH   1   3
BRANCH   1  17
HETATM   17  C   UNL     1      41.077 -15.131   2.799  1.00  0.00     0.050 A 
HETATM   18  C   UNL     1      41.386 -15.380   1.450  1.00  0.00     0.058 A 
HETATM   19  C   UNL     1      42.645 -15.915   1.108  1.00  0.00     0.019 A 
HETATM   20  C   UNL     1      43.590 -16.193   2.095  1.00  0.00     0.001 A 
HETATM   21  C   UNL     1      43.304 -15.909   3.425  1.00  0.00     0.002 A 
HETATM   22  C   UNL     1      42.064 -15.367   3.771  1.00  0.00     0.030 A 
BRANCH  18  23
HETATM   23  C   UNL     1      40.512 -14.932   0.332  1.00  0.00     0.253 C 
HETATM   24  N   UNL     1      40.971 -13.840  -0.380  1.00  0.00    -0.357 N 
HETATM   25  H   UNL     1      41.862 -13.424  -0.136  1.00  0.00     0.162 HD
HETATM   26  O   UNL     1      39.451 -15.499   0.102  1.00  0.00    -0.268 OA
BRANCH  24  27
HETATM   27  C   UNL     1      40.173 -13.234  -1.423  1.00  0.00     0.125 C 
BRANCH  27  28
HETATM   28  C   UNL     1      40.172 -14.043  -2.713  1.00  0.00     0.046 C 
BRANCH  28  29
HETATM   29  C   UNL     1      38.771 -14.444  -3.151  1.00  0.00     0.165 C 
BRANCH  29  30
HETATM   30  O   UNL     1      38.468 -15.738  -2.640  1.00  0.00    -0.401 OA
HETATM   31  H   UNL     1      38.418 -15.663  -1.672  1.00  0.00     0.209 HD
ENDBRANCH  29  30
ENDBRANCH  28  29
ENDBRANCH  27  28
ENDBRANCH  24  27
ENDBRANCH  18  23
ENDBRANCH   1  17
TORSDOF 10
ENDMDL
MODEL 8
REMARK VINA RESULT:      -6.1      3.628      6.672
REMARK  10 active torsions:
REMARK  status: ('A' for Active; 'I' for Inactive)
REMARK    1  A    between atoms: O_2  and  C_3 
REMARK    2  A    between atoms: C_6  and  C_7 
REMARK       I    between atoms: C_7  and  N_8 
REMARK    3  A    between atoms: N_8  and  C_9 
REMARK    4  A    between atoms: C_9  and  N_10 
REMARK    5  A    between atoms: N_10  and  C_11 
REMARK    6  A    between atoms: C_12  and  C_13 
REMARK       I    between atoms: C_13  and  N_14 
REMARK    7  A    between atoms: N_14  and  C_15 
REMARK    8  A    between atoms: C_15  and  C_16 
REMARK    9  A    between atoms: C_16  and  C_17 
REMARK   10  A    between atoms: C_17  and  O_18 
ROOT
HETATM    1  N   UNL     1      39.742 -11.920   2.296  1.00  0.00    -0.332 N 
HETATM    2  H   UNL     1      39.085 -11.321   1.813  1.00  0.00     0.168 HD
ENDROOT
BRANCH   1   3
HETATM    3  C   UNL     1      40.752 -11.218   2.924  1.00  0.00     0.179 C 
HETATM    4  S   UNL     1      40.652 -10.358   4.360  1.00  0.00    -0.040 SA
BRANCH   3   5
HETATM    5  N   UNL     1      42.020 -11.366   2.384  1.00  0.00    -0.299 N 
HETATM    6  C   UNL     1      43.121 -11.871   3.041  1.00  0.00     0.257 C 
HETATM    7  O   UNL     1      44.019 -11.150   3.461  1.00  0.00    -0.267 OA
HETATM    8  H   UNL     1      42.241 -10.519   1.873  1.00  0.00     0.171 HD
BRANCH   6   9
HETATM    9  C   UNL     1      43.191 -13.337   3.224  1.00  0.00     0.032 A 
HETATM   10  C   UNL     1      42.958 -13.907   4.479  1.00  0.00     0.020 A 
HETATM   11  C   UNL     1      42.897 -15.298   4.606  1.00  0.00     0.038 A 
HETATM   12  C   UNL     1      43.080 -16.105   3.481  1.00  0.00     0.068 A 
HETATM   13  C   UNL     1      43.365 -15.535   2.239  1.00  0.00     0.038 A 
HETATM   14  C   UNL     1      43.392 -14.149   2.101  1.00  0.00     0.020 A 
BRANCH  12  15
HETATM   15  O   UNL     1      43.033 -17.471   3.539  1.00  0.00    -0.356 OA
HETATM   16  C   UNL     1      42.825 -18.053   2.253  1.00  0.00     0.210 C 
ENDBRANCH  12  15
ENDBRANCH   6   9
ENDBRANCH   3   5
ENDBRANCH   1   3
BRANCH   1  17
HETATM   17  C   UNL     1      39.799 -13.238   1.773  1.00  0.00     0.050 A 
HETATM   18  C   UNL     1      39.950 -13.577   0.417  1.00  0.00     0.058 A 
HETATM   19  C   UNL     1      39.964 -14.933   0.033  1.00  0.00     0.019 A 
HETATM   20  C   UNL     1      39.836 -15.943   0.986  1.00  0.00     0.001 A 
HETATM   21  C   UNL     1      39.729 -15.613   2.332  1.00  0.00     0.002 A 
HETATM   22  C   UNL     1      39.727 -14.272   2.723  1.00  0.00     0.030 A 
BRANCH  18  23
HETATM   23  C   UNL     1      40.285 -12.572  -0.628  1.00  0.00     0.253 C 
HETATM   24  N   UNL     1      39.411 -12.512  -1.697  1.00  0.00    -0.357 N 
HETATM   25  H   UNL     1      38.596 -13.114  -1.708  1.00  0.00     0.162 HD
HETATM   26  O   UNL     1      41.291 -11.880  -0.530  1.00  0.00    -0.268 OA
BRANCH  24  27
HETATM   27  C   UNL     1      39.672 -11.657  -2.834  1.00  0.00     0.125 C 
BRANCH  27  28
HETATM   28  C   UNL     1      39.075 -10.266  -2.676  1.00  0.00     0.046 C 
BRANCH  28  29
HETATM   29  C   UNL     1      38.624  -9.670  -4.003  1.00  0.00     0.165 C 
BRANCH  29  30
HETATM   30  O   UNL     1      39.557  -8.676  -4.415  1.00  0.00    -0.401 OA
HETATM   31  H   UNL     1      40.080  -8.428  -3.634  1.00  0.00     0.209 HD
ENDBRANCH  29  30
ENDBRANCH  28  29
ENDBRANCH  27  28
ENDBRANCH  24  27
ENDBRANCH  18  23
ENDBRANCH   1  17
TORSDOF 10
ENDMDL
MODEL 9
REMARK VINA RESULT:      -6.1      3.121      7.022
REMARK  10 active torsions:
REMARK  status: ('A' for Active; 'I' for Inactive)
REMARK    1  A    between atoms: O_2  and  C_3 
REMARK    2  A    between atoms: C_6  and  C_7 
REMARK       I    between atoms: C_7  and  N_8 
REMARK    3  A    between atoms: N_8  and  C_9 
REMARK    4  A    between atoms: C_9  and  N_10 
REMARK    5  A    between atoms: N_10  and  C_11 
REMARK    6  A    between atoms: C_12  and  C_13 
REMARK       I    between atoms: C_13  and  N_14 
REMARK    7  A    between atoms: N_14  and  C_15 
REMARK    8  A    between atoms: C_15  and  C_16 
REMARK    9  A    between atoms: C_16  and  C_17 
REMARK   10  A    between atoms: C_17  and  O_18 
ROOT
HETATM    1  N   UNL     1      38.918 -13.974   2.670  1.00  0.00    -0.332 N 
HETATM    2  H   UNL     1      38.068 -14.155   3.191  1.00  0.00     0.168 HD
ENDROOT
BRANCH   1   3
HETATM    3  C   UNL     1      39.625 -15.122   2.375  1.00  0.00     0.179 C 
HETATM    4  S   UNL     1      39.903 -15.785   0.861  1.00  0.00    -0.040 SA
BRANCH   3   5
HETATM    5  N   UNL     1      40.303 -15.706   3.435  1.00  0.00    -0.299 N 
HETATM    6  C   UNL     1      41.672 -15.808   3.556  1.00  0.00     0.257 C 
HETATM    7  O   UNL     1      42.270 -16.859   3.354  1.00  0.00    -0.267 OA
HETATM    8  H   UNL     1      39.839 -16.578   3.658  1.00  0.00     0.171 HD
BRANCH   6   9
HETATM    9  C   UNL     1      42.413 -14.589   3.948  1.00  0.00     0.032 A 
HETATM   10  C   UNL     1      42.911 -13.718   2.974  1.00  0.00     0.020 A 
HETATM   11  C   UNL     1      43.491 -12.506   3.363  1.00  0.00     0.038 A 
HETATM   12  C   UNL     1      43.578 -12.183   4.719  1.00  0.00     0.068 A 
HETATM   13  C   UNL     1      43.129 -13.077   5.691  1.00  0.00     0.038 A 
HETATM   14  C   UNL     1      42.517 -14.270   5.307  1.00  0.00     0.020 A 
BRANCH  12  15
HETATM   15  O   UNL     1      44.134 -11.014   5.163  1.00  0.00    -0.356 OA
HETATM   16  C   UNL     1      43.756 -10.721   6.507  1.00  0.00     0.210 C 
ENDBRANCH  12  15
ENDBRANCH   6   9
ENDBRANCH   3   5
ENDBRANCH   1   3
BRANCH   1  17
HETATM   17  C   UNL     1      39.431 -12.665   2.860  1.00  0.00     0.050 A 
HETATM   18  C   UNL     1      39.759 -11.755   1.840  1.00  0.00     0.058 A 
HETATM   19  C   UNL     1      40.287 -10.491   2.174  1.00  0.00     0.019 A 
HETATM   20  C   UNL     1      40.481 -10.131   3.507  1.00  0.00     0.001 A 
HETATM   21  C   UNL     1      40.118 -11.012   4.520  1.00  0.00     0.002 A 
HETATM   22  C   UNL     1      39.582 -12.261   4.199  1.00  0.00     0.030 A 
BRANCH  18  23
HETATM   23  C   UNL     1      39.403 -11.987   0.414  1.00  0.00     0.253 C 
HETATM   24  N   UNL     1      40.471 -12.188  -0.440  1.00  0.00    -0.357 N 
HETATM   25  H   UNL     1      41.413 -12.195  -0.067  1.00  0.00     0.162 HD
HETATM   26  O   UNL     1      38.233 -11.968   0.051  1.00  0.00    -0.268 OA
BRANCH  24  27
HETATM   27  C   UNL     1      40.276 -12.319  -1.867  1.00  0.00     0.125 C 
BRANCH  27  28
HETATM   28  C   UNL     1      40.322 -13.766  -2.339  1.00  0.00     0.046 C 
BRANCH  28  29
HETATM   29  C   UNL     1      38.974 -14.258  -2.848  1.00  0.00     0.165 C 
BRANCH  29  30
HETATM   30  O   UNL     1      37.988 -14.059  -1.841  1.00  0.00    -0.401 OA
HETATM   31  H   UNL     1      37.165 -14.469  -2.156  1.00  0.00     0.209 HD
ENDBRANCH  29  30
ENDBRANCH  28  29
ENDBRANCH  27  28
ENDBRANCH  24  27
ENDBRANCH  18  23
ENDBRANCH   1  17
TORSDOF 10
ENDMDL
MODEL 10
REMARK VINA RESULT:      -6.0      3.321      6.893
REMARK  10 active torsions:
REMARK  status: ('A' for Active; 'I' for Inactive)
REMARK    1  A    between atoms: O_2  and  C_3 
REMARK    2  A    between atoms: C_6  and  C_7 
REMARK       I    between atoms: C_7  and  N_8 
REMARK    3  A    between atoms: N_8  and  C_9 
REMARK    4  A    between atoms: C_9  and  N_10 
REMARK    5  A    between atoms: N_10  and  C_11 
REMARK    6  A    between atoms: C_12  and  C_13 
REMARK       I    between atoms: C_13  and  N_14 
REMARK    7  A    between atoms: N_14  and  C_15 
REMARK    8  A    between atoms: C_15  and  C_16 
REMARK    9  A    between atoms: C_16  and  C_17 
REMARK   10  A    between atoms: C_17  and  O_18 
ROOT
HETATM    1  N   UNL     1      42.301 -12.124   2.131  1.00  0.00    -0.332 N 
HETATM    2  H   UNL     1      43.140 -11.802   1.664  1.00  0.00     0.168 HD
ENDROOT
BRANCH   1   3
HETATM    3  C   UNL     1      41.765 -11.183   2.987  1.00  0.00     0.179 C 
HETATM    4  S   UNL     1      40.260 -10.452   2.882  1.00  0.00    -0.040 SA
BRANCH   3   5
HETATM    5  N   UNL     1      42.491 -10.929   4.140  1.00  0.00    -0.299 N 
HETATM    6  C   UNL     1      42.099 -11.239   5.424  1.00  0.00     0.257 C 
HETATM    7  O   UNL     1      41.676 -10.391   6.202  1.00  0.00    -0.267 OA
HETATM    8  H   UNL     1      42.857  -9.985   4.075  1.00  0.00     0.171 HD
BRANCH   6   9
HETATM    9  C   UNL     1      42.210 -12.653   5.846  1.00  0.00     0.032 A 
HETATM   10  C   UNL     1      43.404 -13.140   6.387  1.00  0.00     0.020 A 
HETATM   11  C   UNL     1      43.450 -14.439   6.902  1.00  0.00     0.038 A 
HETATM   12  C   UNL     1      42.308 -15.241   6.862  1.00  0.00     0.068 A 
HETATM   13  C   UNL     1      41.133 -14.772   6.273  1.00  0.00     0.038 A 
HETATM   14  C   UNL     1      41.072 -13.465   5.791  1.00  0.00     0.020 A 
BRANCH  12  15
HETATM   15  O   UNL     1      42.289 -16.520   7.348  1.00  0.00    -0.356 OA
HETATM   16  C   UNL     1      43.499 -17.218   7.060  1.00  0.00     0.210 C 
ENDBRANCH  12  15
ENDBRANCH   6   9
ENDBRANCH   3   5
ENDBRANCH   1   3
BRANCH   1  17
HETATM   17  C   UNL     1      42.215 -13.536   2.231  1.00  0.00     0.050 A 
HETATM   18  C   UNL     1      41.245 -14.346   1.616  1.00  0.00     0.058 A 
HETATM   19  C   UNL     1      41.264 -15.740   1.824  1.00  0.00     0.019 A 
HETATM   20  C   UNL     1      42.240 -16.326   2.630  1.00  0.00     0.001 A 
HETATM   21  C   UNL     1      43.226 -15.533   3.206  1.00  0.00     0.002 A 
HETATM   22  C   UNL     1      43.223 -14.152   2.994  1.00  0.00     0.030 A 
BRANCH  18  23
HETATM   23  C   UNL     1      40.297 -13.825   0.595  1.00  0.00     0.253 C 
HETATM   24  N   UNL     1      40.550 -14.215  -0.706  1.00  0.00    -0.357 N 
HETATM   25  H   UNL     1      41.326 -14.837  -0.898  1.00  0.00     0.162 HD
HETATM   26  O   UNL     1      39.379 -13.080   0.917  1.00  0.00    -0.268 OA
BRANCH  24  27
HETATM   27  C   UNL     1      39.773 -13.697  -1.811  1.00  0.00     0.125 C 
BRANCH  27  28
HETATM   28  C   UNL     1      39.088 -14.793  -2.617  1.00  0.00     0.046 C 
BRANCH  28  29
HETATM   29  C   UNL     1      38.033 -14.247  -3.568  1.00  0.00     0.165 C 
BRANCH  29  30
HETATM   30  O   UNL     1      37.992 -15.052  -4.741  1.00  0.00    -0.401 OA
HETATM   31  H   UNL     1      38.784 -15.616  -4.734  1.00  0.00     0.209 HD
ENDBRANCH  29  30
ENDBRANCH  28  29
ENDBRANCH  27  28
ENDBRANCH  24  27
ENDBRANCH  18  23
ENDBRANCH   1  17
TORSDOF 10
ENDMDL
