MODEL 1
REMARK VINA RESULT:      -8.6      0.000      0.000
REMARK  7 active torsions:
REMARK  status: ('A' for Active; 'I' for Inactive)
REMARK    1  A    between atoms: C_3  and  N_4 
REMARK       I    between atoms: N_4  and  C_5 
REMARK    2  A    between atoms: C_5  and  C_6 
REMARK    3  A    between atoms: C_7  and  C_8 
REMARK    4  A    between atoms: C_19  and  C_20 
REMARK    5  A    between atoms: C_20  and  C_21 
REMARK    6  A    between atoms: C_21  and  C_22 
REMARK    7  A    between atoms: C_22  and  O_23 
ROOT
HETATM    1  C   UNL     1      40.887 -12.307   2.870  1.00  0.00     0.062 A 
HETATM    2  C   UNL     1      42.367 -12.660   2.953  1.00  0.00     0.202 A 
HETATM    3  N   UNL     1      43.008 -12.013   4.106  1.00  0.00    -0.083 N 
HETATM    4  C   UNL     1      42.370 -11.138   4.943  1.00  0.00     0.726 A 
HETATM    5  N   UNL     1      41.071 -10.853   4.738  1.00  0.00    -0.192 N 
HETATM    6  N   UNL     1      44.319 -12.115   4.412  1.00  0.00    -0.140 NA
HETATM    7  C   UNL     1      44.380 -11.345   5.509  1.00  0.00     0.166 A 
HETATM    8  N   UNL     1      43.208 -10.714   5.851  1.00  0.00    -0.046 NA
HETATM    9  C   UNL     1      40.307 -11.445   3.741  1.00  0.00     0.037 A 
HETATM   10  C   UNL     1      38.849 -11.059   3.714  1.00  0.00     0.070 C 
HETATM   11  H   UNL     1      40.595 -10.247   5.401  1.00  0.00     0.184 HD
ENDROOT
BRANCH   1  12
HETATM   12  C   UNL     1      40.062 -13.041   1.878  1.00  0.00     0.256 C 
HETATM   13  N   UNL     1      40.103 -12.479   0.621  1.00  0.00    -0.323 N 
HETATM   14  H   UNL     1      40.608 -11.610   0.521  1.00  0.00     0.169 HD
HETATM   15  O   UNL     1      39.430 -14.024   2.246  1.00  0.00    -0.267 OA
BRANCH  13  16
HETATM   16  C   UNL     1      39.474 -12.963  -0.554  1.00  0.00     0.041 A 
HETATM   17  C   UNL     1      38.275 -12.353  -0.989  1.00  0.00    -0.035 A 
HETATM   18  C   UNL     1      37.641 -11.199  -0.259  1.00  0.00     0.050 C 
HETATM   19  C   UNL     1      37.647 -12.820  -2.159  1.00  0.00     0.009 A 
HETATM   20  C   UNL     1      38.186 -13.875  -2.889  1.00  0.00     0.001 A 
HETATM   21  C   UNL     1      39.365 -14.473  -2.464  1.00  0.00     0.002 A 
HETATM   22  C   UNL     1      40.002 -14.019  -1.307  1.00  0.00     0.030 A 
ENDBRANCH  13  16
ENDBRANCH   1  12
BRANCH   2  23
HETATM   23  C   UNL     1      42.649 -14.157   2.952  1.00  0.00    -0.025 A 
HETATM   24  C   UNL     1      42.348 -14.924   4.090  1.00  0.00     0.052 A 
HETATM   25  C   UNL     1      42.614 -16.289   4.104  1.00  0.00     0.117 A 
HETATM   26  F   UNL     1      42.322 -17.004   5.200  1.00  0.00    -0.206 F 
HETATM   27  C   UNL     1      43.177 -16.920   3.005  1.00  0.00     0.042 A 
HETATM   28  C   UNL     1      43.476 -16.175   1.865  1.00  0.00     0.004 A 
HETATM   29  C   UNL     1      43.212 -14.803   1.837  1.00  0.00     0.010 A 
ENDBRANCH   2  23
BRANCH   7  30
HETATM   30  C   UNL     1      45.619 -11.196   6.314  1.00  0.00     0.085 C 
BRANCH  30  31
HETATM   31  C   UNL     1      45.344 -10.842   7.774  1.00  0.00     0.034 C 
BRANCH  31  32
HETATM   32  C   UNL     1      45.770  -9.424   8.135  1.00  0.00     0.164 C 
BRANCH  32  33
HETATM   33  O   UNL     1      46.961  -9.090   7.429  1.00  0.00    -0.401 OA
HETATM   34  H   UNL     1      46.870  -8.174   7.115  1.00  0.00     0.209 HD
ENDBRANCH  32  33
ENDBRANCH  31  32
ENDBRANCH  30  31
ENDBRANCH   7  30
TORSDOF 7
ENDMDL
MODEL 2
REMARK VINA RESULT:      -8.4      3.056      5.997
REMARK  7 active torsions:
REMARK  status: ('A' for Active; 'I' for Inactive)
REMARK    1  A    between atoms: C_3  and  N_4 
REMARK       I    between atoms: N_4  and  C_5 
REMARK    2  A    between atoms: C_5  and  C_6 
REMARK    3  A    between atoms: C_7  and  C_8 
REMARK    4  A    between atoms: C_19  and  C_20 
REMARK    5  A    between atoms: C_20  and  C_21 
REMARK    6  A    between atoms: C_21  and  C_22 
REMARK    7  A    between atoms: C_22  and  O_23 
ROOT
HETATM    1  C   UNL     1      41.529 -14.421   2.312  1.00  0.00     0.062 A 
HETATM    2  C   UNL     1      41.790 -13.276   3.283  1.00  0.00     0.202 A 
HETATM    3  N   UNL     1      40.625 -12.386   3.384  1.00  0.00    -0.083 N 
HETATM    4  C   UNL     1      39.488 -12.526   2.635  1.00  0.00     0.726 A 
HETATM    5  N   UNL     1      39.393 -13.545   1.762  1.00  0.00    -0.192 N 
HETATM    6  N   UNL     1      40.578 -11.267   4.140  1.00  0.00    -0.140 NA
HETATM    7  C   UNL     1      39.338 -10.834   3.867  1.00  0.00     0.166 A 
HETATM    8  N   UNL     1      38.649 -11.569   2.932  1.00  0.00    -0.046 NA
HETATM    9  C   UNL     1      40.374 -14.516   1.610  1.00  0.00     0.037 A 
HETATM   10  C   UNL     1      40.055 -15.626   0.639  1.00  0.00     0.070 C 
HETATM   11  H   UNL     1      38.521 -13.671   1.254  1.00  0.00     0.184 HD
ENDROOT
BRANCH   1  12
HETATM   12  C   UNL     1      42.535 -15.512   2.255  1.00  0.00     0.256 C 
HETATM   13  N   UNL     1      42.096 -16.680   2.840  1.00  0.00    -0.323 N 
HETATM   14  H   UNL     1      41.199 -16.656   3.302  1.00  0.00     0.169 HD
HETATM   15  O   UNL     1      43.621 -15.289   1.738  1.00  0.00    -0.267 OA
BRANCH  13  16
HETATM   16  C   UNL     1      42.787 -17.917   2.906  1.00  0.00     0.041 A 
HETATM   17  C   UNL     1      43.736 -18.116   3.934  1.00  0.00    -0.035 A 
HETATM   18  C   UNL     1      44.038 -17.069   4.973  1.00  0.00     0.050 C 
HETATM   19  C   UNL     1      44.422 -19.342   4.014  1.00  0.00     0.009 A 
HETATM   20  C   UNL     1      44.182 -20.359   3.093  1.00  0.00     0.001 A 
HETATM   21  C   UNL     1      43.249 -20.164   2.084  1.00  0.00     0.002 A 
HETATM   22  C   UNL     1      42.557 -18.954   1.994  1.00  0.00     0.030 A 
ENDBRANCH  13  16
ENDBRANCH   1  12
BRANCH   2  23
HETATM   23  C   UNL     1      42.244 -13.725   4.666  1.00  0.00    -0.025 A 
HETATM   24  C   UNL     1      41.446 -14.611   5.408  1.00  0.00     0.052 A 
HETATM   25  C   UNL     1      41.846 -15.016   6.677  1.00  0.00     0.117 A 
HETATM   26  F   UNL     1      41.071 -15.861   7.372  1.00  0.00    -0.206 F 
HETATM   27  C   UNL     1      43.031 -14.559   7.235  1.00  0.00     0.042 A 
HETATM   28  C   UNL     1      43.837 -13.684   6.509  1.00  0.00     0.004 A 
HETATM   29  C   UNL     1      43.449 -13.271   5.232  1.00  0.00     0.010 A 
ENDBRANCH   2  23
BRANCH   7  30
HETATM   30  C   UNL     1      38.737  -9.653   4.538  1.00  0.00     0.085 C 
BRANCH  30  31
HETATM   31  C   UNL     1      38.992  -9.627   6.043  1.00  0.00     0.034 C 
BRANCH  31  32
HETATM   32  C   UNL     1      38.506 -10.885   6.754  1.00  0.00     0.164 C 
BRANCH  32  33
HETATM   33  O   UNL     1      39.623 -11.698   7.099  1.00  0.00    -0.401 OA
HETATM   34  H   UNL     1      39.997 -11.349   7.926  1.00  0.00     0.209 HD
ENDBRANCH  32  33
ENDBRANCH  31  32
ENDBRANCH  30  31
ENDBRANCH   7  30
TORSDOF 7
ENDMDL
MODEL 3
REMARK VINA RESULT:      -8.3      3.532      6.248
REMARK  7 active torsions:
REMARK  status: ('A' for Active; 'I' for Inactive)
REMARK    1  A    between atoms: C_3  and  N_4 
REMARK       I    between atoms: N_4  and  C_5 
REMARK    2  A    between atoms: C_5  and  C_6 
REMARK    3  A    between atoms: C_7  and  C_8 
REMARK    4  A    between atoms: C_19  and  C_20 
REMARK    5  A    between atoms: C_20  and  C_21 
REMARK    6  A    between atoms: C_21  and  C_22 
REMARK    7  A    between atoms: C_22  and  O_23 
ROOT
HETATM    1  C   UNL     1      41.630 -14.543   5.645  1.00  0.00     0.062 A 
HETATM    2  C   UNL     1      40.737 -13.718   4.726  1.00  0.00     0.202 A 
HETATM    3  N   UNL     1      40.932 -12.279   4.942  1.00  0.00    -0.083 N 
HETATM    4  C   UNL     1      41.750 -11.754   5.906  1.00  0.00     0.726 A 
HETATM    5  N   UNL     1      42.449 -12.583   6.703  1.00  0.00    -0.192 N 
HETATM    6  N   UNL     1      40.252 -11.306   4.297  1.00  0.00    -0.140 NA
HETATM    7  C   UNL     1      40.785 -10.212   4.860  1.00  0.00     0.166 A 
HETATM    8  N   UNL     1      41.691 -10.449   5.866  1.00  0.00    -0.046 NA
HETATM    9  C   UNL     1      42.434 -13.965   6.571  1.00  0.00     0.037 A 
HETATM   10  C   UNL     1      43.342 -14.725   7.504  1.00  0.00     0.070 C 
HETATM   11  H   UNL     1      43.097 -12.180   7.376  1.00  0.00     0.184 HD
ENDROOT
BRANCH   1  12
HETATM   12  C   UNL     1      41.692 -16.007   5.406  1.00  0.00     0.256 C 
HETATM   13  N   UNL     1      42.914 -16.423   4.922  1.00  0.00    -0.323 N 
HETATM   14  H   UNL     1      43.594 -15.707   4.712  1.00  0.00     0.169 HD
HETATM   15  O   UNL     1      40.698 -16.686   5.628  1.00  0.00    -0.267 OA
BRANCH  13  16
HETATM   16  C   UNL     1      43.316 -17.754   4.643  1.00  0.00     0.041 A 
HETATM   17  C   UNL     1      43.408 -18.171   3.296  1.00  0.00    -0.035 A 
HETATM   18  C   UNL     1      43.106 -17.255   2.140  1.00  0.00     0.050 C 
HETATM   19  C   UNL     1      43.815 -19.487   3.007  1.00  0.00     0.009 A 
HETATM   20  C   UNL     1      44.122 -20.383   4.027  1.00  0.00     0.001 A 
HETATM   21  C   UNL     1      44.033 -19.973   5.350  1.00  0.00     0.002 A 
HETATM   22  C   UNL     1      43.635 -18.669   5.654  1.00  0.00     0.030 A 
ENDBRANCH  13  16
ENDBRANCH   1  12
BRANCH   2  23
HETATM   23  C   UNL     1      40.877 -14.064   3.249  1.00  0.00    -0.025 A 
HETATM   24  C   UNL     1      40.021 -15.017   2.672  1.00  0.00     0.052 A 
HETATM   25  C   UNL     1      40.151 -15.350   1.328  1.00  0.00     0.117 A 
HETATM   26  F   UNL     1      39.327 -16.263   0.795  1.00  0.00    -0.206 F 
HETATM   27  C   UNL     1      41.120 -14.754   0.532  1.00  0.00     0.042 A 
HETATM   28  C   UNL     1      41.972 -13.802   1.089  1.00  0.00     0.004 A 
HETATM   29  C   UNL     1      41.852 -13.457   2.437  1.00  0.00     0.010 A 
ENDBRANCH   2  23
BRANCH   7  30
HETATM   30  C   UNL     1      40.439  -8.836   4.421  1.00  0.00     0.085 C 
BRANCH  30  31
HETATM   31  C   UNL     1      39.309  -8.215   5.238  1.00  0.00     0.034 C 
BRANCH  31  32
HETATM   32  C   UNL     1      37.927  -8.490   4.654  1.00  0.00     0.164 C 
BRANCH  32  33
HETATM   33  O   UNL     1      37.215  -9.376   5.511  1.00  0.00    -0.401 OA
HETATM   34  H   UNL     1      36.543  -8.853   5.981  1.00  0.00     0.209 HD
ENDBRANCH  32  33
ENDBRANCH  31  32
ENDBRANCH  30  31
ENDBRANCH   7  30
TORSDOF 7
ENDMDL
MODEL 4
REMARK VINA RESULT:      -8.2      3.236      6.425
REMARK  7 active torsions:
REMARK  status: ('A' for Active; 'I' for Inactive)
REMARK    1  A    between atoms: C_3  and  N_4 
REMARK       I    between atoms: N_4  and  C_5 
REMARK    2  A    between atoms: C_5  and  C_6 
REMARK    3  A    between atoms: C_7  and  C_8 
REMARK    4  A    between atoms: C_19  and  C_20 
REMARK    5  A    between atoms: C_20  and  C_21 
REMARK    6  A    between atoms: C_21  and  C_22 
REMARK    7  A    between atoms: C_22  and  O_23 
ROOT
HETATM    1  C   UNL     1      41.482 -13.779   2.017  1.00  0.00     0.062 A 
HETATM    2  C   UNL     1      41.752 -12.349   2.470  1.00  0.00     0.202 A 
HETATM    3  N   UNL     1      40.535 -11.528   2.401  1.00  0.00    -0.083 N 
HETATM    4  C   UNL     1      39.338 -11.975   1.911  1.00  0.00     0.726 A 
HETATM    5  N   UNL     1      39.232 -13.246   1.481  1.00  0.00    -0.192 N 
HETATM    6  N   UNL     1      40.479 -10.214   2.707  1.00  0.00    -0.140 NA
HETATM    7  C   UNL     1      39.185  -9.957   2.466  1.00  0.00     0.166 A 
HETATM    8  N   UNL     1      38.460 -11.008   1.956  1.00  0.00    -0.046 NA
HETATM    9  C   UNL     1      40.268 -14.167   1.556  1.00  0.00     0.037 A 
HETATM   10  C   UNL     1      39.937 -15.566   1.098  1.00  0.00     0.070 C 
HETATM   11  H   UNL     1      38.322 -13.581   1.173  1.00  0.00     0.184 HD
ENDROOT
BRANCH   1  12
HETATM   12  C   UNL     1      42.562 -14.777   2.219  1.00  0.00     0.256 C 
HETATM   13  N   UNL     1      42.188 -15.817   3.042  1.00  0.00    -0.323 N 
HETATM   14  H   UNL     1      41.277 -15.759   3.473  1.00  0.00     0.169 HD
HETATM   15  O   UNL     1      43.647 -14.592   1.682  1.00  0.00    -0.267 OA
BRANCH  13  16
HETATM   16  C   UNL     1      42.961 -16.953   3.391  1.00  0.00     0.041 A 
HETATM   17  C   UNL     1      43.611 -16.978   4.646  1.00  0.00    -0.035 A 
HETATM   18  C   UNL     1      43.508 -15.848   5.636  1.00  0.00     0.050 C 
HETATM   19  C   UNL     1      44.374 -18.104   5.007  1.00  0.00     0.009 A 
HETATM   20  C   UNL     1      44.502 -19.190   4.144  1.00  0.00     0.001 A 
HETATM   21  C   UNL     1      43.862 -19.167   2.913  1.00  0.00     0.002 A 
HETATM   22  C   UNL     1      43.098 -18.058   2.541  1.00  0.00     0.030 A 
ENDBRANCH  13  16
ENDBRANCH   1  12
BRANCH   2  23
HETATM   23  C   UNL     1      42.393 -12.245   3.848  1.00  0.00    -0.025 A 
HETATM   24  C   UNL     1      43.705 -11.759   3.971  1.00  0.00     0.052 A 
HETATM   25  C   UNL     1      44.304 -11.674   5.223  1.00  0.00     0.117 A 
HETATM   26  F   UNL     1      45.557 -11.209   5.322  1.00  0.00    -0.206 F 
HETATM   27  C   UNL     1      43.627 -12.063   6.370  1.00  0.00     0.042 A 
HETATM   28  C   UNL     1      42.322 -12.542   6.265  1.00  0.00     0.004 A 
HETATM   29  C   UNL     1      41.707 -12.631   5.014  1.00  0.00     0.010 A 
ENDBRANCH   2  23
BRANCH   7  30
HETATM   30  C   UNL     1      38.565  -8.636   2.745  1.00  0.00     0.085 C 
BRANCH  30  31
HETATM   31  C   UNL     1      38.992  -8.047   4.088  1.00  0.00     0.034 C 
BRANCH  31  32
HETATM   32  C   UNL     1      38.395  -8.786   5.280  1.00  0.00     0.164 C 
BRANCH  32  33
HETATM   33  O   UNL     1      36.974  -8.744   5.203  1.00  0.00    -0.401 OA
HETATM   34  H   UNL     1      36.698  -7.825   5.355  1.00  0.00     0.209 HD
ENDBRANCH  32  33
ENDBRANCH  31  32
ENDBRANCH  30  31
ENDBRANCH   7  30
TORSDOF 7
ENDMDL
MODEL 5
REMARK VINA RESULT:      -7.8      3.212      6.061
REMARK  7 active torsions:
REMARK  status: ('A' for Active; 'I' for Inactive)
REMARK    1  A    between atoms: C_3  and  N_4 
REMARK       I    between atoms: N_4  and  C_5 
REMARK    2  A    between atoms: C_5  and  C_6 
REMARK    3  A    between atoms: C_7  and  C_8 
REMARK    4  A    between atoms: C_19  and  C_20 
REMARK    5  A    between atoms: C_20  and  C_21 
REMARK    6  A    between atoms: C_21  and  C_22 
REMARK    7  A    between atoms: C_22  and  O_23 
ROOT
HETATM    1  C   UNL     1      41.308 -14.245   5.429  1.00  0.00     0.062 A 
HETATM    2  C   UNL     1      40.237 -13.613   4.548  1.00  0.00     0.202 A 
HETATM    3  N   UNL     1      40.263 -12.148   4.642  1.00  0.00    -0.083 N 
HETATM    4  C   UNL     1      41.089 -11.450   5.481  1.00  0.00     0.726 A 
HETATM    5  N   UNL     1      41.958 -12.119   6.262  1.00  0.00    -0.192 N 
HETATM    6  N   UNL     1      39.408 -11.322   4.000  1.00  0.00    -0.140 NA
HETATM    7  C   UNL     1      39.844 -10.129   4.430  1.00  0.00     0.166 A 
HETATM    8  N   UNL     1      40.859 -10.170   5.356  1.00  0.00    -0.046 NA
HETATM    9  C   UNL     1      42.109 -13.499   6.229  1.00  0.00     0.037 A 
HETATM   10  C   UNL     1      43.188 -14.063   7.119  1.00  0.00     0.070 C 
HETATM   11  H   UNL     1      42.605 -11.586   6.838  1.00  0.00     0.184 HD
ENDROOT
BRANCH   1  12
HETATM   12  C   UNL     1      41.537 -15.705   5.289  1.00  0.00     0.256 C 
HETATM   13  N   UNL     1      42.705 -16.005   4.621  1.00  0.00    -0.323 N 
HETATM   14  H   UNL     1      43.229 -15.232   4.239  1.00  0.00     0.169 HD
HETATM   15  O   UNL     1      40.703 -16.481   5.737  1.00  0.00    -0.267 OA
BRANCH  13  16
HETATM   16  C   UNL     1      43.239 -17.294   4.369  1.00  0.00     0.041 A 
HETATM   17  C   UNL     1      43.459 -17.694   3.031  1.00  0.00    -0.035 A 
HETATM   18  C   UNL     1      43.156 -16.800   1.858  1.00  0.00     0.050 C 
HETATM   19  C   UNL     1      43.997 -18.967   2.770  1.00  0.00     0.009 A 
HETATM   20  C   UNL     1      44.312 -19.840   3.809  1.00  0.00     0.001 A 
HETATM   21  C   UNL     1      44.099 -19.447   5.123  1.00  0.00     0.002 A 
HETATM   22  C   UNL     1      43.568 -18.184   5.399  1.00  0.00     0.030 A 
ENDBRANCH  13  16
ENDBRANCH   1  12
BRANCH   2  23
HETATM   23  C   UNL     1      40.290 -14.060   3.092  1.00  0.00    -0.025 A 
HETATM   24  C   UNL     1      40.906 -13.239   2.133  1.00  0.00     0.052 A 
HETATM   25  C   UNL     1      40.947 -13.631   0.799  1.00  0.00     0.117 A 
HETATM   26  F   UNL     1      41.537 -12.834  -0.102  1.00  0.00    -0.206 F 
HETATM   27  C   UNL     1      40.385 -14.831   0.388  1.00  0.00     0.042 A 
HETATM   28  C   UNL     1      39.775 -15.660   1.328  1.00  0.00     0.004 A 
HETATM   29  C   UNL     1      39.729 -15.279   2.672  1.00  0.00     0.010 A 
ENDBRANCH   2  23
BRANCH   7  30
HETATM   30  C   UNL     1      39.285  -8.846   3.931  1.00  0.00     0.085 C 
BRANCH  30  31
HETATM   31  C   UNL     1      40.316  -7.988   3.203  1.00  0.00     0.034 C 
BRANCH  31  32
HETATM   32  C   UNL     1      40.676  -6.714   3.960  1.00  0.00     0.164 C 
BRANCH  32  33
HETATM   33  O   UNL     1      42.074  -6.472   3.846  1.00  0.00    -0.401 OA
HETATM   34  H   UNL     1      42.192  -5.673   3.304  1.00  0.00     0.209 HD
ENDBRANCH  32  33
ENDBRANCH  31  32
ENDBRANCH  30  31
ENDBRANCH   7  30
TORSDOF 7
ENDMDL
MODEL 6
REMARK VINA RESULT:      -7.8      3.357      6.251
REMARK  7 active torsions:
REMARK  status: ('A' for Active; 'I' for Inactive)
REMARK    1  A    between atoms: C_3  and  N_4 
REMARK       I    between atoms: N_4  and  C_5 
REMARK    2  A    between atoms: C_5  and  C_6 
REMARK    3  A    between atoms: C_7  and  C_8 
REMARK    4  A    between atoms: C_19  and  C_20 
REMARK    5  A    between atoms: C_20  and  C_21 
REMARK    6  A    between atoms: C_21  and  C_22 
REMARK    7  A    between atoms: C_22  and  O_23 
ROOT
HETATM    1  C   UNL     1      43.238 -13.850   4.860  1.00  0.00     0.062 A 
HETATM    2  C   UNL     1      43.220 -15.161   4.083  1.00  0.00     0.202 A 
HETATM    3  N   UNL     1      43.370 -16.315   4.979  1.00  0.00    -0.083 N 
HETATM    4  C   UNL     1      43.585 -16.214   6.327  1.00  0.00     0.726 A 
HETATM    5  N   UNL     1      43.643 -14.997   6.898  1.00  0.00    -0.192 N 
HETATM    6  N   UNL     1      43.425 -17.602   4.570  1.00  0.00    -0.140 NA
HETATM    7  C   UNL     1      43.580 -18.230   5.745  1.00  0.00     0.166 A 
HETATM    8  N   UNL     1      43.704 -17.410   6.840  1.00  0.00    -0.046 NA
HETATM    9  C   UNL     1      43.439 -13.814   6.200  1.00  0.00     0.037 A 
HETATM   10  C   UNL     1      43.464 -12.552   7.025  1.00  0.00     0.070 C 
HETATM   11  H   UNL     1      43.745 -14.938   7.908  1.00  0.00     0.184 HD
ENDROOT
BRANCH   1  12
HETATM   12  C   UNL     1      42.897 -12.610   4.119  1.00  0.00     0.256 C 
HETATM   13  N   UNL     1      41.654 -12.111   4.446  1.00  0.00    -0.323 N 
HETATM   14  H   UNL     1      41.088 -12.661   5.076  1.00  0.00     0.169 HD
HETATM   15  O   UNL     1      43.698 -12.167   3.305  1.00  0.00    -0.267 OA
BRANCH  13  16
HETATM   16  C   UNL     1      41.056 -10.921   3.961  1.00  0.00     0.041 A 
HETATM   17  C   UNL     1      39.866 -11.013   3.204  1.00  0.00    -0.035 A 
HETATM   18  C   UNL     1      39.200 -12.328   2.897  1.00  0.00     0.050 C 
HETATM   19  C   UNL     1      39.258  -9.837   2.725  1.00  0.00     0.009 A 
HETATM   20  C   UNL     1      39.814  -8.587   2.984  1.00  0.00     0.001 A 
HETATM   21  C   UNL     1      40.981  -8.495   3.730  1.00  0.00     0.002 A 
HETATM   22  C   UNL     1      41.595  -9.653   4.215  1.00  0.00     0.030 A 
ENDBRANCH  13  16
ENDBRANCH   1  12
BRANCH   2  23
HETATM   23  C   UNL     1      42.001 -15.333   3.185  1.00  0.00    -0.025 A 
HETATM   24  C   UNL     1      42.079 -14.973   1.829  1.00  0.00     0.052 A 
HETATM   25  C   UNL     1      40.968 -15.113   1.004  1.00  0.00     0.117 A 
HETATM   26  F   UNL     1      41.059 -14.763  -0.286  1.00  0.00    -0.206 F 
HETATM   27  C   UNL     1      39.768 -15.608   1.496  1.00  0.00     0.042 A 
HETATM   28  C   UNL     1      39.677 -15.975   2.837  1.00  0.00     0.004 A 
HETATM   29  C   UNL     1      40.786 -15.841   3.677  1.00  0.00     0.010 A 
ENDBRANCH   2  23
BRANCH   7  30
HETATM   30  C   UNL     1      43.600 -19.711   5.864  1.00  0.00     0.085 C 
BRANCH  30  31
HETATM   31  C   UNL     1      44.553 -20.377   4.874  1.00  0.00     0.034 C 
BRANCH  31  32
HETATM   32  C   UNL     1      43.832 -21.034   3.702  1.00  0.00     0.164 C 
BRANCH  32  33
HETATM   33  O   UNL     1      43.529 -20.051   2.717  1.00  0.00    -0.401 OA
HETATM   34  H   UNL     1      42.669 -19.661   2.946  1.00  0.00     0.209 HD
ENDBRANCH  32  33
ENDBRANCH  31  32
ENDBRANCH  30  31
ENDBRANCH   7  30
TORSDOF 7
ENDMDL
MODEL 7
REMARK VINA RESULT:      -7.7      3.218      6.586
REMARK  7 active torsions:
REMARK  status: ('A' for Active; 'I' for Inactive)
REMARK    1  A    between atoms: C_3  and  N_4 
REMARK       I    between atoms: N_4  and  C_5 
REMARK    2  A    between atoms: C_5  and  C_6 
REMARK    3  A    between atoms: C_7  and  C_8 
REMARK    4  A    between atoms: C_19  and  C_20 
REMARK    5  A    between atoms: C_20  and  C_21 
REMARK    6  A    between atoms: C_21  and  C_22 
REMARK    7  A    between atoms: C_22  and  O_23 
ROOT
HETATM    1  C   UNL     1      41.189 -14.254   1.378  1.00  0.00     0.062 A 
HETATM    2  C   UNL     1      41.898 -12.985   1.833  1.00  0.00     0.202 A 
HETATM    3  N   UNL     1      41.472 -11.822   1.043  1.00  0.00    -0.083 N 
HETATM    4  C   UNL     1      40.613 -11.894  -0.020  1.00  0.00     0.726 A 
HETATM    5  N   UNL     1      40.092 -13.084  -0.371  1.00  0.00    -0.192 N 
HETATM    6  N   UNL     1      41.956 -10.571   1.196  1.00  0.00    -0.140 NA
HETATM    7  C   UNL     1      41.268  -9.918   0.248  1.00  0.00     0.166 A 
HETATM    8  N   UNL     1      40.451 -10.702  -0.532  1.00  0.00    -0.046 NA
HETATM    9  C   UNL     1      40.333 -14.260   0.327  1.00  0.00     0.037 A 
HETATM   10  C   UNL     1      39.599 -15.480  -0.169  1.00  0.00     0.070 C 
HETATM   11  H   UNL     1      39.410 -13.114  -1.126  1.00  0.00     0.184 HD
ENDROOT
BRANCH   1  12
HETATM   12  C   UNL     1      41.364 -15.472   2.210  1.00  0.00     0.256 C 
HETATM   13  N   UNL     1      42.604 -16.054   2.059  1.00  0.00    -0.323 N 
HETATM   14  H   UNL     1      43.219 -15.655   1.365  1.00  0.00     0.169 HD
HETATM   15  O   UNL     1      40.432 -15.850   2.909  1.00  0.00    -0.267 OA
BRANCH  13  16
HETATM   16  C   UNL     1      43.105 -17.189   2.745  1.00  0.00     0.041 A 
HETATM   17  C   UNL     1      43.501 -17.053   4.094  1.00  0.00    -0.035 A 
HETATM   18  C   UNL     1      43.404 -15.749   4.840  1.00  0.00     0.050 C 
HETATM   19  C   UNL     1      43.992 -18.175   4.788  1.00  0.00     0.009 A 
HETATM   20  C   UNL     1      44.096 -19.415   4.162  1.00  0.00     0.001 A 
HETATM   21  C   UNL     1      43.705 -19.550   2.837  1.00  0.00     0.002 A 
HETATM   22  C   UNL     1      43.213 -18.446   2.136  1.00  0.00     0.030 A 
ENDBRANCH  13  16
ENDBRANCH   1  12
BRANCH   2  23
HETATM   23  C   UNL     1      41.764 -12.699   3.324  1.00  0.00    -0.025 A 
HETATM   24  C   UNL     1      42.917 -12.494   4.100  1.00  0.00     0.052 A 
HETATM   25  C   UNL     1      42.806 -12.247   5.464  1.00  0.00     0.117 A 
HETATM   26  F   UNL     1      43.916 -12.056   6.190  1.00  0.00    -0.206 F 
HETATM   27  C   UNL     1      41.566 -12.197   6.085  1.00  0.00     0.042 A 
HETATM   28  C   UNL     1      40.412 -12.392   5.327  1.00  0.00     0.004 A 
HETATM   29  C   UNL     1      40.509 -12.639   3.955  1.00  0.00     0.010 A 
ENDBRANCH   2  23
BRANCH   7  30
HETATM   30  C   UNL     1      41.363  -8.448   0.058  1.00  0.00     0.085 C 
BRANCH  30  31
HETATM   31  C   UNL     1      41.135  -8.016  -1.389  1.00  0.00     0.034 C 
BRANCH  31  32
HETATM   32  C   UNL     1      42.421  -7.968  -2.207  1.00  0.00     0.164 C 
BRANCH  32  33
HETATM   33  O   UNL     1      43.541  -8.138  -1.344  1.00  0.00    -0.401 OA
HETATM   34  H   UNL     1      43.658  -9.092  -1.198  1.00  0.00     0.209 HD
ENDBRANCH  32  33
ENDBRANCH  31  32
ENDBRANCH  30  31
ENDBRANCH   7  30
TORSDOF 7
ENDMDL
MODEL 8
REMARK VINA RESULT:      -7.6      2.832      6.181
REMARK  7 active torsions:
REMARK  status: ('A' for Active; 'I' for Inactive)
REMARK    1  A    between atoms: C_3  and  N_4 
REMARK       I    between atoms: N_4  and  C_5 
REMARK    2  A    between atoms: C_5  and  C_6 
REMARK    3  A    between atoms: C_7  and  C_8 
REMARK    4  A    between atoms: C_19  and  C_20 
REMARK    5  A    between atoms: C_20  and  C_21 
REMARK    6  A    between atoms: C_21  and  C_22 
REMARK    7  A    between atoms: C_22  and  O_23 
ROOT
HETATM    1  C   UNL     1      42.023 -13.081   4.089  1.00  0.00     0.062 A 
HETATM    2  C   UNL     1      40.647 -12.756   3.520  1.00  0.00     0.202 A 
HETATM    3  N   UNL     1      40.133 -11.488   4.055  1.00  0.00    -0.083 N 
HETATM    4  C   UNL     1      40.775 -10.743   5.006  1.00  0.00     0.726 A 
HETATM    5  N   UNL     1      41.963 -11.160   5.482  1.00  0.00    -0.192 N 
HETATM    6  N   UNL     1      38.924 -10.964   3.758  1.00  0.00    -0.140 NA
HETATM    7  C   UNL     1      38.947  -9.847   4.499  1.00  0.00     0.166 A 
HETATM    8  N   UNL     1      40.058  -9.690   5.294  1.00  0.00    -0.046 NA
HETATM    9  C   UNL     1      42.617 -12.294   5.019  1.00  0.00     0.037 A 
HETATM   10  C   UNL     1      43.976 -12.558   5.616  1.00  0.00     0.070 C 
HETATM   11  H   UNL     1      42.457 -10.568   6.146  1.00  0.00     0.184 HD
ENDROOT
BRANCH   1  12
HETATM   12  C   UNL     1      42.757 -14.225   3.494  1.00  0.00     0.256 C 
HETATM   13  N   UNL     1      42.463 -15.428   4.098  1.00  0.00    -0.323 N 
HETATM   14  H   UNL     1      41.859 -15.402   4.907  1.00  0.00     0.169 HD
HETATM   15  O   UNL     1      43.539 -14.013   2.575  1.00  0.00    -0.267 OA
BRANCH  13  16
HETATM   16  C   UNL     1      42.950 -16.710   3.737  1.00  0.00     0.041 A 
HETATM   17  C   UNL     1      43.891 -17.346   4.578  1.00  0.00    -0.035 A 
HETATM   18  C   UNL     1      44.392 -16.721   5.852  1.00  0.00     0.050 C 
HETATM   19  C   UNL     1      44.374 -18.622   4.233  1.00  0.00     0.009 A 
HETATM   20  C   UNL     1      43.943 -19.263   3.074  1.00  0.00     0.001 A 
HETATM   21  C   UNL     1      43.018 -18.639   2.249  1.00  0.00     0.002 A 
HETATM   22  C   UNL     1      42.525 -17.374   2.579  1.00  0.00     0.030 A 
ENDBRANCH  13  16
ENDBRANCH   1  12
BRANCH   2  23
HETATM   23  C   UNL     1      40.587 -12.761   1.998  1.00  0.00    -0.025 A 
HETATM   24  C   UNL     1      39.983 -13.837   1.327  1.00  0.00     0.052 A 
HETATM   25  C   UNL     1      39.936 -13.858  -0.063  1.00  0.00     0.117 A 
HETATM   26  F   UNL     1      39.357 -14.893  -0.686  1.00  0.00    -0.206 F 
HETATM   27  C   UNL     1      40.481 -12.825  -0.813  1.00  0.00     0.042 A 
HETATM   28  C   UNL     1      41.079 -11.747  -0.162  1.00  0.00     0.004 A 
HETATM   29  C   UNL     1      41.131 -11.713   1.234  1.00  0.00     0.010 A 
ENDBRANCH   2  23
BRANCH   7  30
HETATM   30  C   UNL     1      37.860  -8.835   4.457  1.00  0.00     0.085 C 
BRANCH  30  31
HETATM   31  C   UNL     1      38.083  -7.678   5.428  1.00  0.00     0.034 C 
BRANCH  31  32
HETATM   32  C   UNL     1      38.768  -6.479   4.783  1.00  0.00     0.164 C 
BRANCH  32  33
HETATM   33  O   UNL     1      40.167  -6.532   5.044  1.00  0.00    -0.401 OA
HETATM   34  H   UNL     1      40.374  -5.828   5.681  1.00  0.00     0.209 HD
ENDBRANCH  32  33
ENDBRANCH  31  32
ENDBRANCH  30  31
ENDBRANCH   7  30
TORSDOF 7
ENDMDL
MODEL 9
REMARK VINA RESULT:      -7.5     17.309     19.537
REMARK  7 active torsions:
REMARK  status: ('A' for Active; 'I' for Inactive)
REMARK    1  A    between atoms: C_3  and  N_4 
REMARK       I    between atoms: N_4  and  C_5 
REMARK    2  A    between atoms: C_5  and  C_6 
REMARK    3  A    between atoms: C_7  and  C_8 
REMARK    4  A    between atoms: C_19  and  C_20 
REMARK    5  A    between atoms: C_20  and  C_21 
REMARK    6  A    between atoms: C_21  and  C_22 
REMARK    7  A    between atoms: C_22  and  O_23 
ROOT
HETATM    1  C   UNL     1      48.061 -29.819   1.050  1.00  0.00     0.062 A 
HETATM    2  C   UNL     1      48.544 -29.411  -0.336  1.00  0.00     0.202 A 
HETATM    3  N   UNL     1      49.773 -30.125  -0.706  1.00  0.00    -0.083 N 
HETATM    4  C   UNL     1      50.440 -30.981   0.129  1.00  0.00     0.726 A 
HETATM    5  N   UNL     1      49.951 -31.221   1.359  1.00  0.00    -0.192 N 
HETATM    6  N   UNL     1      50.450 -29.941  -1.860  1.00  0.00    -0.140 NA
HETATM    7  C   UNL     1      51.469 -30.796  -1.691  1.00  0.00     0.166 A 
HETATM    8  N   UNL     1      51.507 -31.435  -0.474  1.00  0.00    -0.046 NA
HETATM    9  C   UNL     1      48.758 -30.687   1.825  1.00  0.00     0.037 A 
HETATM   10  C   UNL     1      48.331 -31.132   3.201  1.00  0.00     0.070 C 
HETATM   11  H   UNL     1      50.425 -31.903   1.947  1.00  0.00     0.184 HD
ENDROOT
BRANCH   1  12
HETATM   12  C   UNL     1      46.725 -29.335   1.480  1.00  0.00     0.256 C 
HETATM   13  N   UNL     1      45.763 -30.321   1.462  1.00  0.00    -0.323 N 
HETATM   14  H   UNL     1      46.033 -31.222   1.097  1.00  0.00     0.169 HD
HETATM   15  O   UNL     1      46.592 -28.155   1.781  1.00  0.00    -0.267 OA
BRANCH  13  16
HETATM   16  C   UNL     1      44.408 -30.202   1.863  1.00  0.00     0.041 A 
HETATM   17  C   UNL     1      43.490 -29.573   0.991  1.00  0.00    -0.035 A 
HETATM   18  C   UNL     1      43.890 -29.032  -0.355  1.00  0.00     0.050 C 
HETATM   19  C   UNL     1      42.140 -29.458   1.375  1.00  0.00     0.009 A 
HETATM   20  C   UNL     1      41.699 -29.948   2.601  1.00  0.00     0.001 A 
HETATM   21  C   UNL     1      42.601 -30.568   3.457  1.00  0.00     0.002 A 
HETATM   22  C   UNL     1      43.942 -30.694   3.089  1.00  0.00     0.030 A 
ENDBRANCH  13  16
ENDBRANCH   1  12
BRANCH   2  23
HETATM   23  C   UNL     1      47.491 -29.555  -1.427  1.00  0.00    -0.025 A 
HETATM   24  C   UNL     1      46.957 -28.406  -2.036  1.00  0.00     0.052 A 
HETATM   25  C   UNL     1      45.985 -28.527  -3.024  1.00  0.00     0.117 A 
HETATM   26  F   UNL     1      45.486 -27.421  -3.592  1.00  0.00    -0.206 F 
HETATM   27  C   UNL     1      45.523 -29.772  -3.427  1.00  0.00     0.042 A 
HETATM   28  C   UNL     1      46.047 -30.921  -2.837  1.00  0.00     0.004 A 
HETATM   29  C   UNL     1      47.026 -30.815  -1.845  1.00  0.00     0.010 A 
ENDBRANCH   2  23
BRANCH   7  30
HETATM   30  C   UNL     1      52.481 -31.055  -2.747  1.00  0.00     0.085 C 
BRANCH  30  31
HETATM   31  C   UNL     1      52.699 -32.542  -3.015  1.00  0.00     0.034 C 
BRANCH  31  32
HETATM   32  C   UNL     1      54.087 -33.025  -2.608  1.00  0.00     0.164 C 
BRANCH  32  33
HETATM   33  O   UNL     1      54.509 -32.330  -1.439  1.00  0.00    -0.401 OA
HETATM   34  H   UNL     1      55.391 -31.961  -1.617  1.00  0.00     0.209 HD
ENDBRANCH  32  33
ENDBRANCH  31  32
ENDBRANCH  30  31
ENDBRANCH   7  30
TORSDOF 7
ENDMDL
MODEL 10
REMARK VINA RESULT:      -7.4     17.038     19.499
REMARK  7 active torsions:
REMARK  status: ('A' for Active; 'I' for Inactive)
REMARK    1  A    between atoms: C_3  and  N_4 
REMARK       I    between atoms: N_4  and  C_5 
REMARK    2  A    between atoms: C_5  and  C_6 
REMARK    3  A    between atoms: C_7  and  C_8 
REMARK    4  A    between atoms: C_19  and  C_20 
REMARK    5  A    between atoms: C_20  and  C_21 
REMARK    6  A    between atoms: C_21  and  C_22 
REMARK    7  A    between atoms: C_22  and  O_23 
ROOT
HETATM    1  C   UNL     1      46.459 -29.729   0.251  1.00  0.00     0.062 A 
HETATM    2  C   UNL     1      45.257 -30.586  -0.126  1.00  0.00     0.202 A 
HETATM    3  N   UNL     1      44.141 -30.380   0.805  1.00  0.00    -0.083 N 
HETATM    4  C   UNL     1      44.209 -29.583   1.916  1.00  0.00     0.726 A 
HETATM    5  N   UNL     1      45.347 -28.917   2.184  1.00  0.00    -0.192 N 
HETATM    6  N   UNL     1      42.959 -31.031   0.742  1.00  0.00    -0.140 NA
HETATM    7  C   UNL     1      42.325 -30.501   1.799  1.00  0.00     0.166 A 
HETATM    8  N   UNL     1      43.069 -29.626   2.554  1.00  0.00    -0.046 NA
HETATM    9  C   UNL     1      46.462 -28.945   1.357  1.00  0.00     0.037 A 
HETATM   10  C   UNL     1      47.616 -28.072   1.781  1.00  0.00     0.070 C 
HETATM   11  H   UNL     1      45.365 -28.284   2.980  1.00  0.00     0.184 HD
ENDROOT
BRANCH   1  12
HETATM   12  C   UNL     1      47.592 -29.676  -0.709  1.00  0.00     0.256 C 
HETATM   13  N   UNL     1      48.360 -30.820  -0.698  1.00  0.00    -0.323 N 
HETATM   14  H   UNL     1      48.132 -31.522  -0.009  1.00  0.00     0.169 HD
HETATM   15  O   UNL     1      47.752 -28.665  -1.380  1.00  0.00    -0.267 OA
BRANCH  13  16
HETATM   16  C   UNL     1      49.474 -31.110  -1.526  1.00  0.00     0.041 A 
HETATM   17  C   UNL     1      49.333 -32.072  -2.551  1.00  0.00    -0.035 A 
HETATM   18  C   UNL     1      48.040 -32.799  -2.808  1.00  0.00     0.050 C 
HETATM   19  C   UNL     1      50.430 -32.361  -3.384  1.00  0.00     0.009 A 
HETATM   20  C   UNL     1      51.652 -31.716  -3.210  1.00  0.00     0.001 A 
HETATM   21  C   UNL     1      51.790 -30.769  -2.204  1.00  0.00     0.002 A 
HETATM   22  C   UNL     1      50.710 -30.469  -1.372  1.00  0.00     0.030 A 
ENDBRANCH  13  16
ENDBRANCH   1  12
BRANCH   2  23
HETATM   23  C   UNL     1      44.796 -30.408  -1.567  1.00  0.00    -0.025 A 
HETATM   24  C   UNL     1      44.756 -31.517  -2.429  1.00  0.00     0.052 A 
HETATM   25  C   UNL     1      44.349 -31.362  -3.750  1.00  0.00     0.117 A 
HETATM   26  F   UNL     1      44.320 -32.430  -4.558  1.00  0.00    -0.206 F 
HETATM   27  C   UNL     1      43.976 -30.119  -4.243  1.00  0.00     0.042 A 
HETATM   28  C   UNL     1      44.003 -29.011  -3.399  1.00  0.00     0.004 A 
HETATM   29  C   UNL     1      44.408 -29.152  -2.069  1.00  0.00     0.010 A 
ENDBRANCH   2  23
BRANCH   7  30
HETATM   30  C   UNL     1      40.912 -30.819   2.127  1.00  0.00     0.085 C 
BRANCH  30  31
HETATM   31  C   UNL     1      40.771 -31.730   3.344  1.00  0.00     0.034 C 
BRANCH  31  32
HETATM   32  C   UNL     1      40.523 -30.963   4.638  1.00  0.00     0.164 C 
BRANCH  32  33
HETATM   33  O   UNL     1      41.769 -30.646   5.250  1.00  0.00    -0.401 OA
HETATM   34  H   UNL     1      41.626 -29.877   5.827  1.00  0.00     0.209 HD
ENDBRANCH  32  33
ENDBRANCH  31  32
ENDBRANCH  30  31
ENDBRANCH   7  30
TORSDOF 7
ENDMDL
