MODEL 1
REMARK VINA RESULT:      -8.5      0.000      0.000
REMARK  4 active torsions:
REMARK  status: ('A' for Active; 'I' for Inactive)
REMARK       I    between atoms: N_6  and  C_7 
REMARK    1  A    between atoms: C_7  and  C_8 
REMARK    2  A    between atoms: C_9  and  N_10 
REMARK       I    between atoms: N_10  and  C_11 
REMARK    3  A    between atoms: C_11  and  C_12 
REMARK    4  A    between atoms: N_20  and  C_21 
ROOT
HETATM    1  C   UNL     1      40.638 -11.852   3.293  1.00  0.00     0.097 A 
HETATM    2  C   UNL     1      41.722 -12.366   3.992  1.00  0.00     0.149 A 
HETATM    3  N   UNL     1      42.077 -11.412   4.951  1.00  0.00    -0.217 N 
HETATM    4  N   UNL     1      41.171 -10.402   4.984  1.00  0.00    -0.177 NA
HETATM    5  C   UNL     1      40.316 -10.678   4.007  1.00  0.00     0.160 A 
ENDROOT
BRANCH   2   6
HETATM    6  N   UNL     1      42.300 -13.624   3.840  1.00  0.00    -0.306 N 
HETATM    7  C   UNL     1      41.860 -14.769   4.581  1.00  0.00     0.258 C 
HETATM    8  O   UNL     1      40.893 -14.697   5.325  1.00  0.00    -0.267 OA
HETATM    9  H   UNL     1      42.969 -13.743   3.084  1.00  0.00     0.170 HD
BRANCH   7  10
HETATM   10  C   UNL     1      42.481 -16.042   4.163  1.00  0.00     0.049 A 
HETATM   11  C   UNL     1      43.523 -16.647   4.875  1.00  0.00     0.026 A 
HETATM   12 BR   UNL     1      44.132 -16.001   6.551  1.00  0.00    -0.050 Br
HETATM   13  C   UNL     1      44.148 -17.784   4.354  1.00  0.00     0.020 A 
HETATM   14  C   UNL     1      43.737 -18.310   3.128  1.00  0.00     0.001 A 
HETATM   15  C   UNL     1      42.690 -17.716   2.424  1.00  0.00     0.001 A 
HETATM   16  C   UNL     1      42.055 -16.587   2.942  1.00  0.00     0.018 A 
ENDBRANCH   7  10
ENDBRANCH   2   6
BRANCH   1  17
HETATM   17  C   UNL     1      39.880 -12.476   2.225  1.00  0.00     0.259 C 
HETATM   18  N   UNL     1      39.640 -11.736   1.059  1.00  0.00    -0.345 N 
HETATM   19  C   UNL     1      38.690 -12.288   0.084  1.00  0.00     0.154 C 
HETATM   20  C   UNL     1      40.554 -10.721   0.514  1.00  0.00     0.154 C 
HETATM   21  C   UNL     1      39.417 -12.868  -1.140  1.00  0.00     0.254 C 
HETATM   22  N   UNL     1      40.305 -11.785  -1.756  1.00  0.00    -0.072 N 
HETATM   23  C   UNL     1      40.991 -12.262  -3.005  1.00  0.00     0.269 C 
HETATM   24  H   UNL     1      39.690 -11.009  -2.039  1.00  0.00     0.279 HD
HETATM   25  C   UNL     1      41.298 -11.240  -0.736  1.00  0.00     0.254 C 
HETATM   26  O   UNL     1      39.427 -13.612   2.353  1.00  0.00    -0.267 OA
ENDBRANCH   1  17
BRANCH   3  27
HETATM   27  C   UNL     1      43.239 -11.359   5.780  1.00  0.00     0.060 A 
HETATM   28  C   UNL     1      44.534 -11.513   5.263  1.00  0.00     0.031 A 
HETATM   29  C   UNL     1      45.646 -11.442   6.109  1.00  0.00     0.002 A 
HETATM   30  C   UNL     1      45.479 -11.198   7.468  1.00  0.00     0.000 A 
HETATM   31  C   UNL     1      44.200 -11.018   7.987  1.00  0.00     0.002 A 
HETATM   32  C   UNL     1      43.085 -11.096   7.151  1.00  0.00     0.031 A 
ENDBRANCH   3  27
TORSDOF 4
ENDMDL
MODEL 2
REMARK VINA RESULT:      -8.3      1.776      6.259
REMARK  4 active torsions:
REMARK  status: ('A' for Active; 'I' for Inactive)
REMARK       I    between atoms: N_6  and  C_7 
REMARK    1  A    between atoms: C_7  and  C_8 
REMARK    2  A    between atoms: C_9  and  N_10 
REMARK       I    between atoms: N_10  and  C_11 
REMARK    3  A    between atoms: C_11  and  C_12 
REMARK    4  A    between atoms: N_20  and  C_21 
ROOT
HETATM    1  C   UNL     1      42.729 -11.929   4.224  1.00  0.00     0.097 A 
HETATM    2  C   UNL     1      42.510 -12.944   3.301  1.00  0.00     0.149 A 
HETATM    3  N   UNL     1      41.778 -12.385   2.249  1.00  0.00    -0.217 N 
HETATM    4  N   UNL     1      41.666 -11.041   2.399  1.00  0.00    -0.177 NA
HETATM    5  C   UNL     1      42.243 -10.779   3.566  1.00  0.00     0.160 A 
ENDROOT
BRANCH   2   6
HETATM    6  N   UNL     1      42.995 -14.248   3.356  1.00  0.00    -0.306 N 
HETATM    7  C   UNL     1      42.336 -15.286   4.091  1.00  0.00     0.258 C 
HETATM    8  O   UNL     1      41.262 -15.079   4.636  1.00  0.00    -0.267 OA
HETATM    9  H   UNL     1      43.775 -14.483   2.747  1.00  0.00     0.170 HD
BRANCH   7  10
HETATM   10  C   UNL     1      42.910 -16.633   3.893  1.00  0.00     0.049 A 
HETATM   11  C   UNL     1      43.828 -17.202   4.783  1.00  0.00     0.026 A 
HETATM   12 BR   UNL     1      44.300 -16.392   6.431  1.00  0.00    -0.050 Br
HETATM   13  C   UNL     1      44.425 -18.427   4.469  1.00  0.00     0.020 A 
HETATM   14  C   UNL     1      44.111 -19.075   3.273  1.00  0.00     0.001 A 
HETATM   15  C   UNL     1      43.186 -18.514   2.393  1.00  0.00     0.001 A 
HETATM   16  C   UNL     1      42.578 -17.297   2.703  1.00  0.00     0.018 A 
ENDBRANCH   7  10
ENDBRANCH   2   6
BRANCH   1  17
HETATM   17  C   UNL     1      43.473 -11.991   5.467  1.00  0.00     0.259 C 
HETATM   18  N   UNL     1      43.613 -10.816   6.218  1.00  0.00    -0.345 N 
HETATM   19  C   UNL     1      44.549 -10.837   7.351  1.00  0.00     0.154 C 
HETATM   20  C   UNL     1      42.615  -9.737   6.271  1.00  0.00     0.154 C 
HETATM   21  C   UNL     1      43.802 -10.905   8.693  1.00  0.00     0.254 C 
HETATM   22  N   UNL     1      42.823  -9.732   8.781  1.00  0.00    -0.072 N 
HETATM   23  C   UNL     1      42.110  -9.694  10.104  1.00  0.00     0.269 C 
HETATM   24  H   UNL     1      43.376  -8.866   8.722  1.00  0.00     0.279 HD
HETATM   25  C   UNL     1      41.847  -9.740   7.610  1.00  0.00     0.254 C 
HETATM   26  O   UNL     1      43.999 -13.039   5.836  1.00  0.00    -0.267 OA
ENDBRANCH   1  17
BRANCH   3  27
HETATM   27  C   UNL     1      41.125 -13.041   1.160  1.00  0.00     0.060 A 
HETATM   28  C   UNL     1      40.571 -14.323   1.283  1.00  0.00     0.031 A 
HETATM   29  C   UNL     1      39.930 -14.924   0.194  1.00  0.00     0.002 A 
HETATM   30  C   UNL     1      39.819 -14.245  -1.016  1.00  0.00     0.000 A 
HETATM   31  C   UNL     1      40.342 -12.961  -1.141  1.00  0.00     0.002 A 
HETATM   32  C   UNL     1      40.991 -12.359  -0.061  1.00  0.00     0.031 A 
ENDBRANCH   3  27
TORSDOF 4
ENDMDL
MODEL 3
REMARK VINA RESULT:      -8.3      2.035      5.116
REMARK  4 active torsions:
REMARK  status: ('A' for Active; 'I' for Inactive)
REMARK       I    between atoms: N_6  and  C_7 
REMARK    1  A    between atoms: C_7  and  C_8 
REMARK    2  A    between atoms: C_9  and  N_10 
REMARK       I    between atoms: N_10  and  C_11 
REMARK    3  A    between atoms: C_11  and  C_12 
REMARK    4  A    between atoms: N_20  and  C_21 
ROOT
HETATM    1  C   UNL     1      40.156 -14.484   2.262  1.00  0.00     0.097 A 
HETATM    2  C   UNL     1      41.255 -14.748   3.068  1.00  0.00     0.149 A 
HETATM    3  N   UNL     1      41.597 -16.088   2.862  1.00  0.00    -0.217 N 
HETATM    4  N   UNL     1      40.863 -16.624   1.854  1.00  0.00    -0.177 NA
HETATM    5  C   UNL     1      40.020 -15.662   1.497  1.00  0.00     0.160 A 
ENDROOT
BRANCH   2   6
HETATM    6  N   UNL     1      41.950 -13.842   3.865  1.00  0.00    -0.306 N 
HETATM    7  C   UNL     1      41.506 -13.470   5.175  1.00  0.00     0.258 C 
HETATM    8  O   UNL     1      40.531 -14.007   5.680  1.00  0.00    -0.267 OA
HETATM    9  H   UNL     1      42.865 -13.539   3.541  1.00  0.00     0.170 HD
BRANCH   7  10
HETATM   10  C   UNL     1      42.459 -12.627   5.926  1.00  0.00     0.049 A 
HETATM   11  C   UNL     1      42.204 -11.287   6.236  1.00  0.00     0.026 A 
HETATM   12 BR   UNL     1      40.537 -10.452   5.890  1.00  0.00    -0.050 Br
HETATM   13  C   UNL     1      43.201 -10.515   6.838  1.00  0.00     0.020 A 
HETATM   14  C   UNL     1      44.448 -11.077   7.124  1.00  0.00     0.001 A 
HETATM   15  C   UNL     1      44.698 -12.416   6.827  1.00  0.00     0.001 A 
HETATM   16  C   UNL     1      43.704 -13.196   6.236  1.00  0.00     0.018 A 
ENDBRANCH   7  10
ENDBRANCH   2   6
BRANCH   1  17
HETATM   17  C   UNL     1      39.452 -13.228   2.087  1.00  0.00     0.259 C 
HETATM   18  N   UNL     1      39.681 -12.494   0.915  1.00  0.00    -0.345 N 
HETATM   19  C   UNL     1      39.141 -11.129   0.848  1.00  0.00     0.154 C 
HETATM   20  C   UNL     1      40.000 -13.090  -0.392  1.00  0.00     0.154 C 
HETATM   21  C   UNL     1      37.899 -11.061  -0.056  1.00  0.00     0.254 C 
HETATM   22  N   UNL     1      38.257 -11.605  -1.441  1.00  0.00    -0.072 N 
HETATM   23  C   UNL     1      37.105 -11.499  -2.401  1.00  0.00     0.269 C 
HETATM   24  H   UNL     1      39.008 -11.010  -1.819  1.00  0.00     0.279 HD
HETATM   25  C   UNL     1      38.794 -13.028  -1.353  1.00  0.00     0.254 C 
HETATM   26  O   UNL     1      38.700 -12.798   2.960  1.00  0.00    -0.267 OA
ENDBRANCH   1  17
BRANCH   3  27
HETATM   27  C   UNL     1      42.513 -16.905   3.593  1.00  0.00     0.060 A 
HETATM   28  C   UNL     1      42.571 -16.894   4.994  1.00  0.00     0.031 A 
HETATM   29  C   UNL     1      43.476 -17.719   5.671  1.00  0.00     0.002 A 
HETATM   30  C   UNL     1      44.312 -18.574   4.960  1.00  0.00     0.000 A 
HETATM   31  C   UNL     1      44.245 -18.613   3.570  1.00  0.00     0.002 A 
HETATM   32  C   UNL     1      43.351 -17.785   2.887  1.00  0.00     0.031 A 
ENDBRANCH   3  27
TORSDOF 4
ENDMDL
MODEL 4
REMARK VINA RESULT:      -8.2      2.777      6.143
REMARK  4 active torsions:
REMARK  status: ('A' for Active; 'I' for Inactive)
REMARK       I    between atoms: N_6  and  C_7 
REMARK    1  A    between atoms: C_7  and  C_8 
REMARK    2  A    between atoms: C_9  and  N_10 
REMARK       I    between atoms: N_10  and  C_11 
REMARK    3  A    between atoms: C_11  and  C_12 
REMARK    4  A    between atoms: N_20  and  C_21 
ROOT
HETATM    1  C   UNL     1      40.790 -13.904   5.850  1.00  0.00     0.097 A 
HETATM    2  C   UNL     1      40.955 -14.644   4.687  1.00  0.00     0.149 A 
HETATM    3  N   UNL     1      41.722 -15.764   5.024  1.00  0.00    -0.217 N 
HETATM    4  N   UNL     1      41.909 -15.835   6.366  1.00  0.00    -0.177 NA
HETATM    5  C   UNL     1      41.343 -14.735   6.848  1.00  0.00     0.160 A 
ENDROOT
BRANCH   2   6
HETATM    6  N   UNL     1      40.396 -14.383   3.439  1.00  0.00    -0.306 N 
HETATM    7  C   UNL     1      41.030 -13.535   2.472  1.00  0.00     0.258 C 
HETATM    8  O   UNL     1      42.140 -13.070   2.683  1.00  0.00    -0.267 OA
HETATM    9  H   UNL     1      39.574 -14.918   3.173  1.00  0.00     0.170 HD
BRANCH   7  10
HETATM   10  C   UNL     1      40.367 -13.513   1.152  1.00  0.00     0.049 A 
HETATM   11  C   UNL     1      39.637 -12.412   0.690  1.00  0.00     0.026 A 
HETATM   12 BR   UNL     1      39.566 -10.762   1.620  1.00  0.00    -0.050 Br
HETATM   13  C   UNL     1      38.932 -12.507  -0.514  1.00  0.00     0.020 A 
HETATM   14  C   UNL     1      38.953 -13.695  -1.248  1.00  0.00     0.001 A 
HETATM   15  C   UNL     1      39.692 -14.788  -0.793  1.00  0.00     0.001 A 
HETATM   16  C   UNL     1      40.406 -14.697   0.402  1.00  0.00     0.018 A 
ENDBRANCH   7  10
ENDBRANCH   2   6
BRANCH   1  17
HETATM   17  C   UNL     1      40.038 -12.677   6.035  1.00  0.00     0.259 C 
HETATM   18  N   UNL     1      40.746 -11.493   6.282  1.00  0.00    -0.345 N 
HETATM   19  C   UNL     1      39.976 -10.309   6.687  1.00  0.00     0.154 C 
HETATM   20  C   UNL     1      42.086 -11.199   5.753  1.00  0.00     0.154 C 
HETATM   21  C   UNL     1      39.853  -9.299   5.534  1.00  0.00     0.254 C 
HETATM   22  N   UNL     1      41.253  -8.930   5.040  1.00  0.00    -0.072 N 
HETATM   23  C   UNL     1      41.211  -7.887   3.959  1.00  0.00     0.269 C 
HETATM   24  H   UNL     1      41.757  -8.509   5.833  1.00  0.00     0.279 HD
HETATM   25  C   UNL     1      42.028 -10.169   4.604  1.00  0.00     0.254 C 
HETATM   26  O   UNL     1      38.808 -12.681   6.013  1.00  0.00    -0.267 OA
ENDBRANCH   1  17
BRANCH   3  27
HETATM   27  C   UNL     1      42.341 -16.721   4.163  1.00  0.00     0.060 A 
HETATM   28  C   UNL     1      41.894 -16.949   2.853  1.00  0.00     0.031 A 
HETATM   29  C   UNL     1      42.537 -17.889   2.040  1.00  0.00     0.002 A 
HETATM   30  C   UNL     1      43.639 -18.590   2.515  1.00  0.00     0.000 A 
HETATM   31  C   UNL     1      44.109 -18.353   3.805  1.00  0.00     0.002 A 
HETATM   32  C   UNL     1      43.466 -17.424   4.626  1.00  0.00     0.031 A 
ENDBRANCH   3  27
TORSDOF 4
ENDMDL
MODEL 5
REMARK VINA RESULT:      -8.2      2.585      6.286
REMARK  4 active torsions:
REMARK  status: ('A' for Active; 'I' for Inactive)
REMARK       I    between atoms: N_6  and  C_7 
REMARK    1  A    between atoms: C_7  and  C_8 
REMARK    2  A    between atoms: C_9  and  N_10 
REMARK       I    between atoms: N_10  and  C_11 
REMARK    3  A    between atoms: C_11  and  C_12 
REMARK    4  A    between atoms: N_20  and  C_21 
ROOT
HETATM    1  C   UNL     1      42.714 -12.944   4.564  1.00  0.00     0.097 A 
HETATM    2  C   UNL     1      42.603 -14.007   3.677  1.00  0.00     0.149 A 
HETATM    3  N   UNL     1      42.943 -15.164   4.384  1.00  0.00    -0.217 N 
HETATM    4  N   UNL     1      43.109 -14.892   5.703  1.00  0.00    -0.177 NA
HETATM    5  C   UNL     1      42.960 -13.576   5.802  1.00  0.00     0.160 A 
ENDROOT
BRANCH   2   6
HETATM    6  N   UNL     1      42.154 -13.958   2.360  1.00  0.00    -0.306 N 
HETATM    7  C   UNL     1      40.763 -13.897   2.021  1.00  0.00     0.258 C 
HETATM    8  O   UNL     1      39.912 -13.802   2.893  1.00  0.00    -0.267 OA
HETATM    9  H   UNL     1      42.852 -13.836   1.631  1.00  0.00     0.170 HD
BRANCH   7  10
HETATM   10  C   UNL     1      40.493 -13.685   0.584  1.00  0.00     0.049 A 
HETATM   11  C   UNL     1      40.660 -12.444  -0.042  1.00  0.00     0.026 A 
HETATM   12 BR   UNL     1      41.422 -10.945   0.834  1.00  0.00    -0.050 Br
HETATM   13  C   UNL     1      40.266 -12.284  -1.374  1.00  0.00     0.020 A 
HETATM   14  C   UNL     1      39.706 -13.355  -2.074  1.00  0.00     0.001 A 
HETATM   15  C   UNL     1      39.552 -14.595  -1.453  1.00  0.00     0.001 A 
HETATM   16  C   UNL     1      39.951 -14.765  -0.128  1.00  0.00     0.018 A 
ENDBRANCH   7  10
ENDBRANCH   2   6
BRANCH   1  17
HETATM   17  C   UNL     1      42.431 -11.542   4.326  1.00  0.00     0.259 C 
HETATM   18  N   UNL     1      41.123 -11.082   4.534  1.00  0.00    -0.345 N 
HETATM   19  C   UNL     1      40.796  -9.724   4.079  1.00  0.00     0.154 C 
HETATM   20  C   UNL     1      40.198 -11.630   5.538  1.00  0.00     0.154 C 
HETATM   21  C   UNL     1      40.698  -8.746   5.262  1.00  0.00     0.254 C 
HETATM   22  N   UNL     1      39.672  -9.276   6.266  1.00  0.00    -0.072 N 
HETATM   23  C   UNL     1      39.470  -8.329   7.416  1.00  0.00     0.269 C 
HETATM   24  H   UNL     1      38.769  -9.339   5.777  1.00  0.00     0.279 HD
HETATM   25  C   UNL     1      40.040 -10.677   6.742  1.00  0.00     0.254 C 
HETATM   26  O   UNL     1      43.306 -10.781   3.917  1.00  0.00    -0.267 OA
ENDBRANCH   1  17
BRANCH   3  27
HETATM   27  C   UNL     1      43.187 -16.482   3.889  1.00  0.00     0.060 A 
HETATM   28  C   UNL     1      42.628 -16.944   2.688  1.00  0.00     0.031 A 
HETATM   29  C   UNL     1      42.902 -18.239   2.233  1.00  0.00     0.002 A 
HETATM   30  C   UNL     1      43.749 -19.072   2.957  1.00  0.00     0.000 A 
HETATM   31  C   UNL     1      44.329 -18.614   4.137  1.00  0.00     0.002 A 
HETATM   32  C   UNL     1      44.053 -17.327   4.602  1.00  0.00     0.031 A 
ENDBRANCH   3  27
TORSDOF 4
ENDMDL
MODEL 6
REMARK VINA RESULT:      -7.8      3.201      6.739
REMARK  4 active torsions:
REMARK  status: ('A' for Active; 'I' for Inactive)
REMARK       I    between atoms: N_6  and  C_7 
REMARK    1  A    between atoms: C_7  and  C_8 
REMARK    2  A    between atoms: C_9  and  N_10 
REMARK       I    between atoms: N_10  and  C_11 
REMARK    3  A    between atoms: C_11  and  C_12 
REMARK    4  A    between atoms: N_20  and  C_21 
ROOT
HETATM    1  C   UNL     1      41.713 -15.156   4.020  1.00  0.00     0.097 A 
HETATM    2  C   UNL     1      40.868 -14.118   3.649  1.00  0.00     0.149 A 
HETATM    3  N   UNL     1      40.875 -13.194   4.699  1.00  0.00    -0.217 N 
HETATM    4  N   UNL     1      41.801 -13.531   5.632  1.00  0.00    -0.177 NA
HETATM    5  C   UNL     1      42.300 -14.688   5.215  1.00  0.00     0.160 A 
ENDROOT
BRANCH   2   6
HETATM    6  N   UNL     1      40.205 -13.968   2.434  1.00  0.00    -0.306 N 
HETATM    7  C   UNL     1      40.797 -13.306   1.309  1.00  0.00     0.258 C 
HETATM    8  O   UNL     1      41.955 -12.917   1.353  1.00  0.00    -0.267 OA
HETATM    9  H   UNL     1      39.322 -14.458   2.319  1.00  0.00     0.170 HD
BRANCH   7  10
HETATM   10  C   UNL     1      40.006 -13.393   0.064  1.00  0.00     0.049 A 
HETATM   11  C   UNL     1      39.272 -12.314  -0.442  1.00  0.00     0.026 A 
HETATM   12 BR   UNL     1      39.354 -10.573   0.305  1.00  0.00    -0.050 Br
HETATM   13  C   UNL     1      38.447 -12.502  -1.555  1.00  0.00     0.020 A 
HETATM   14  C   UNL     1      38.352 -13.761  -2.154  1.00  0.00     0.001 A 
HETATM   15  C   UNL     1      39.094 -14.832  -1.656  1.00  0.00     0.001 A 
HETATM   16  C   UNL     1      39.927 -14.650  -0.553  1.00  0.00     0.018 A 
ENDBRANCH   7  10
ENDBRANCH   2   6
BRANCH   1  17
HETATM   17  C   UNL     1      42.074 -16.336   3.258  1.00  0.00     0.259 C 
HETATM   18  N   UNL     1      43.306 -16.949   3.523  1.00  0.00    -0.345 N 
HETATM   19  C   UNL     1      43.759 -18.000   2.601  1.00  0.00     0.154 C 
HETATM   20  C   UNL     1      43.959 -16.969   4.842  1.00  0.00     0.154 C 
HETATM   21  C   UNL     1      43.599 -19.397   3.223  1.00  0.00     0.254 C 
HETATM   22  N   UNL     1      44.350 -19.442   4.556  1.00  0.00    -0.072 N 
HETATM   23  C   UNL     1      44.298 -20.805   5.185  1.00  0.00     0.269 C 
HETATM   24  H   UNL     1      45.341 -19.250   4.355  1.00  0.00     0.279 HD
HETATM   25  C   UNL     1      43.852 -18.359   5.506  1.00  0.00     0.254 C 
HETATM   26  O   UNL     1      41.335 -16.768   2.375  1.00  0.00    -0.267 OA
ENDBRANCH   1  17
BRANCH   3  27
HETATM   27  C   UNL     1      40.026 -12.064   4.908  1.00  0.00     0.060 A 
HETATM   28  C   UNL     1      39.738 -11.146   3.887  1.00  0.00     0.031 A 
HETATM   29  C   UNL     1      38.892 -10.059   4.132  1.00  0.00     0.002 A 
HETATM   30  C   UNL     1      38.310  -9.891   5.384  1.00  0.00     0.000 A 
HETATM   31  C   UNL     1      38.568 -10.812   6.397  1.00  0.00     0.002 A 
HETATM   32  C   UNL     1      39.419 -11.893   6.163  1.00  0.00     0.031 A 
ENDBRANCH   3  27
TORSDOF 4
ENDMDL
MODEL 7
REMARK VINA RESULT:      -7.8     16.569     19.024
REMARK  4 active torsions:
REMARK  status: ('A' for Active; 'I' for Inactive)
REMARK       I    between atoms: N_6  and  C_7 
REMARK    1  A    between atoms: C_7  and  C_8 
REMARK    2  A    between atoms: C_9  and  N_10 
REMARK       I    between atoms: N_10  and  C_11 
REMARK    3  A    between atoms: C_11  and  C_12 
REMARK    4  A    between atoms: N_20  and  C_21 
ROOT
HETATM    1  C   UNL     1      43.823 -30.392   1.948  1.00  0.00     0.097 A 
HETATM    2  C   UNL     1      44.686 -30.068   0.909  1.00  0.00     0.149 A 
HETATM    3  N   UNL     1      43.918 -29.440  -0.076  1.00  0.00    -0.217 N 
HETATM    4  N   UNL     1      42.654 -29.219   0.366  1.00  0.00    -0.177 NA
HETATM    5  C   UNL     1      42.611 -29.775   1.571  1.00  0.00     0.160 A 
ENDROOT
BRANCH   2   6
HETATM    6  N   UNL     1      46.067 -30.247   0.877  1.00  0.00    -0.306 N 
HETATM    7  C   UNL     1      46.988 -29.201   1.209  1.00  0.00     0.258 C 
HETATM    8  O   UNL     1      46.585 -28.122   1.618  1.00  0.00    -0.267 OA
HETATM    9  H   UNL     1      46.413 -31.192   0.733  1.00  0.00     0.170 HD
BRANCH   7  10
HETATM   10  C   UNL     1      48.400 -29.629   1.276  1.00  0.00     0.049 A 
HETATM   11  C   UNL     1      49.171 -29.876   0.134  1.00  0.00     0.026 A 
HETATM   12 BR   UNL     1      48.553 -29.514  -1.621  1.00  0.00    -0.050 Br
HETATM   13  C   UNL     1      50.460 -30.399   0.272  1.00  0.00     0.020 A 
HETATM   14  C   UNL     1      50.973 -30.678   1.541  1.00  0.00     0.001 A 
HETATM   15  C   UNL     1      50.209 -30.420   2.679  1.00  0.00     0.001 A 
HETATM   16  C   UNL     1      48.926 -29.889   2.550  1.00  0.00     0.018 A 
ENDBRANCH   7  10
ENDBRANCH   2   6
BRANCH   1  17
HETATM   17  C   UNL     1      44.141 -31.020   3.217  1.00  0.00     0.259 C 
HETATM   18  N   UNL     1      43.179 -31.852   3.807  1.00  0.00    -0.345 N 
HETATM   19  C   UNL     1      43.418 -32.300   5.186  1.00  0.00     0.154 C 
HETATM   20  C   UNL     1      42.212 -32.668   3.058  1.00  0.00     0.154 C 
HETATM   21  C   UNL     1      43.860 -33.772   5.228  1.00  0.00     0.254 C 
HETATM   22  N   UNL     1      42.811 -34.631   4.520  1.00  0.00    -0.072 N 
HETATM   23  C   UNL     1      43.143 -36.095   4.589  1.00  0.00     0.269 C 
HETATM   24  H   UNL     1      41.923 -34.509   5.027  1.00  0.00     0.279 HD
HETATM   25  C   UNL     1      42.593 -34.164   3.085  1.00  0.00     0.254 C 
HETATM   26  O   UNL     1      45.212 -30.799   3.780  1.00  0.00    -0.267 OA
ENDBRANCH   1  17
BRANCH   3  27
HETATM   27  C   UNL     1      44.277 -29.101  -1.416  1.00  0.00     0.060 A 
HETATM   28  C   UNL     1      45.036 -27.962  -1.722  1.00  0.00     0.031 A 
HETATM   29  C   UNL     1      45.376 -27.674  -3.049  1.00  0.00     0.002 A 
HETATM   30  C   UNL     1      44.981 -28.527  -4.074  1.00  0.00     0.000 A 
HETATM   31  C   UNL     1      44.250 -29.674  -3.779  1.00  0.00     0.002 A 
HETATM   32  C   UNL     1      43.899 -29.963  -2.459  1.00  0.00     0.031 A 
ENDBRANCH   3  27
TORSDOF 4
ENDMDL
MODEL 8
REMARK VINA RESULT:      -7.8      3.515      6.359
REMARK  4 active torsions:
REMARK  status: ('A' for Active; 'I' for Inactive)
REMARK       I    between atoms: N_6  and  C_7 
REMARK    1  A    between atoms: C_7  and  C_8 
REMARK    2  A    between atoms: C_9  and  N_10 
REMARK       I    between atoms: N_10  and  C_11 
REMARK    3  A    between atoms: C_11  and  C_12 
REMARK    4  A    between atoms: N_20  and  C_21 
ROOT
HETATM    1  C   UNL     1      39.794 -11.805   3.604  1.00  0.00     0.097 A 
HETATM    2  C   UNL     1      40.047 -12.868   2.747  1.00  0.00     0.149 A 
HETATM    3  N   UNL     1      40.960 -13.705   3.397  1.00  0.00    -0.217 N 
HETATM    4  N   UNL     1      41.166 -13.294   4.674  1.00  0.00    -0.177 NA
HETATM    5  C   UNL     1      40.462 -12.175   4.791  1.00  0.00     0.160 A 
ENDROOT
BRANCH   2   6
HETATM    6  N   UNL     1      39.448 -13.115   1.515  1.00  0.00    -0.306 N 
HETATM    7  C   UNL     1      39.972 -12.597   0.285  1.00  0.00     0.258 C 
HETATM    8  O   UNL     1      41.027 -11.981   0.267  1.00  0.00    -0.267 OA
HETATM    9  H   UNL     1      38.687 -13.788   1.491  1.00  0.00     0.170 HD
BRANCH   7  10
HETATM   10  C   UNL     1      39.296 -13.102  -0.927  1.00  0.00     0.049 A 
HETATM   11  C   UNL     1      38.212 -12.444  -1.519  1.00  0.00     0.026 A 
HETATM   12 BR   UNL     1      37.607 -10.741  -0.946  1.00  0.00    -0.050 Br
HETATM   13  C   UNL     1      37.541 -13.042  -2.589  1.00  0.00     0.020 A 
HETATM   14  C   UNL     1      37.947 -14.293  -3.061  1.00  0.00     0.001 A 
HETATM   15  C   UNL     1      39.035 -14.943  -2.479  1.00  0.00     0.001 A 
HETATM   16  C   UNL     1      39.716 -14.348  -1.417  1.00  0.00     0.018 A 
ENDBRANCH   7  10
ENDBRANCH   2   6
BRANCH   1  17
HETATM   17  C   UNL     1      38.887 -10.690   3.409  1.00  0.00     0.259 C 
HETATM   18  N   UNL     1      39.083  -9.530   4.170  1.00  0.00    -0.345 N 
HETATM   19  C   UNL     1      38.035  -8.500   4.129  1.00  0.00     0.154 C 
HETATM   20  C   UNL     1      40.395  -9.049   4.632  1.00  0.00     0.154 C 
HETATM   21  C   UNL     1      38.464  -7.299   3.270  1.00  0.00     0.254 C 
HETATM   22  N   UNL     1      39.788  -6.748   3.804  1.00  0.00    -0.072 N 
HETATM   23  C   UNL     1      40.230  -5.522   3.055  1.00  0.00     0.269 C 
HETATM   24  H   UNL     1      39.627  -6.454   4.778  1.00  0.00     0.279 HD
HETATM   25  C   UNL     1      40.867  -7.824   3.819  1.00  0.00     0.254 C 
HETATM   26  O   UNL     1      37.945 -10.773   2.622  1.00  0.00    -0.267 OA
ENDBRANCH   1  17
BRANCH   3  27
HETATM   27  C   UNL     1      41.695 -14.813   2.874  1.00  0.00     0.060 A 
HETATM   28  C   UNL     1      42.797 -14.644   2.023  1.00  0.00     0.031 A 
HETATM   29  C   UNL     1      43.496 -15.757   1.543  1.00  0.00     0.002 A 
HETATM   30  C   UNL     1      43.116 -17.040   1.920  1.00  0.00     0.000 A 
HETATM   31  C   UNL     1      42.039 -17.218   2.785  1.00  0.00     0.002 A 
HETATM   32  C   UNL     1      41.331 -16.113   3.261  1.00  0.00     0.031 A 
ENDBRANCH   3  27
TORSDOF 4
ENDMDL
MODEL 9
REMARK VINA RESULT:      -7.6     17.078     19.240
REMARK  4 active torsions:
REMARK  status: ('A' for Active; 'I' for Inactive)
REMARK       I    between atoms: N_6  and  C_7 
REMARK    1  A    between atoms: C_7  and  C_8 
REMARK    2  A    between atoms: C_9  and  N_10 
REMARK       I    between atoms: N_10  and  C_11 
REMARK    3  A    between atoms: C_11  and  C_12 
REMARK    4  A    between atoms: N_20  and  C_21 
ROOT
HETATM    1  C   UNL     1      47.131 -28.894  -0.107  1.00  0.00     0.097 A 
HETATM    2  C   UNL     1      46.279 -29.716  -0.832  1.00  0.00     0.149 A 
HETATM    3  N   UNL     1      46.577 -29.519  -2.184  1.00  0.00    -0.217 N 
HETATM    4  N   UNL     1      47.675 -28.732  -2.326  1.00  0.00    -0.177 NA
HETATM    5  C   UNL     1      48.003 -28.377  -1.089  1.00  0.00     0.160 A 
ENDROOT
BRANCH   2   6
HETATM    6  N   UNL     1      45.362 -30.633  -0.324  1.00  0.00    -0.306 N 
HETATM    7  C   UNL     1      43.999 -30.288  -0.050  1.00  0.00     0.258 C 
HETATM    8  O   UNL     1      43.565 -29.181  -0.336  1.00  0.00    -0.267 OA
HETATM    9  H   UNL     1      45.654 -31.605  -0.268  1.00  0.00     0.170 HD
BRANCH   7  10
HETATM   10  C   UNL     1      43.143 -31.432   0.326  1.00  0.00     0.049 A 
HETATM   11  C   UNL     1      42.383 -31.455   1.501  1.00  0.00     0.026 A 
HETATM   12 BR   UNL     1      42.220 -29.955   2.649  1.00  0.00    -0.050 Br
HETATM   13  C   UNL     1      41.696 -32.619   1.856  1.00  0.00     0.020 A 
HETATM   14  C   UNL     1      41.772 -33.754   1.046  1.00  0.00     0.001 A 
HETATM   15  C   UNL     1      42.519 -33.727  -0.132  1.00  0.00     0.001 A 
HETATM   16  C   UNL     1      43.199 -32.566  -0.498  1.00  0.00     0.018 A 
ENDBRANCH   7  10
ENDBRANCH   2   6
BRANCH   1  17
HETATM   17  C   UNL     1      47.244 -28.764   1.334  1.00  0.00     0.259 C 
HETATM   18  N   UNL     1      47.634 -29.888   2.075  1.00  0.00    -0.345 N 
HETATM   19  C   UNL     1      47.529 -29.811   3.539  1.00  0.00     0.154 C 
HETATM   20  C   UNL     1      48.540 -30.937   1.582  1.00  0.00     0.154 C 
HETATM   21  C   UNL     1      48.910 -29.634   4.191  1.00  0.00     0.254 C 
HETATM   22  N   UNL     1      49.827 -30.774   3.742  1.00  0.00    -0.072 N 
HETATM   23  C   UNL     1      51.175 -30.705   4.402  1.00  0.00     0.269 C 
HETATM   24  H   UNL     1      49.394 -31.655   4.052  1.00  0.00     0.279 HD
HETATM   25  C   UNL     1      49.940 -30.824   2.222  1.00  0.00     0.254 C 
HETATM   26  O   UNL     1      46.968 -27.706   1.896  1.00  0.00    -0.267 OA
ENDBRANCH   1  17
BRANCH   3  27
HETATM   27  C   UNL     1      45.860 -29.962  -3.337  1.00  0.00     0.060 A 
HETATM   28  C   UNL     1      46.261 -31.080  -4.083  1.00  0.00     0.031 A 
HETATM   29  C   UNL     1      45.523 -31.487  -5.199  1.00  0.00     0.002 A 
HETATM   30  C   UNL     1      44.371 -30.799  -5.567  1.00  0.00     0.000 A 
HETATM   31  C   UNL     1      43.949 -29.704  -4.818  1.00  0.00     0.002 A 
HETATM   32  C   UNL     1      44.686 -29.286  -3.709  1.00  0.00     0.031 A 
ENDBRANCH   3  27
TORSDOF 4
ENDMDL
MODEL 10
REMARK VINA RESULT:      -7.6      3.396      6.302
REMARK  4 active torsions:
REMARK  status: ('A' for Active; 'I' for Inactive)
REMARK       I    between atoms: N_6  and  C_7 
REMARK    1  A    between atoms: C_7  and  C_8 
REMARK    2  A    between atoms: C_9  and  N_10 
REMARK       I    between atoms: N_10  and  C_11 
REMARK    3  A    between atoms: C_11  and  C_12 
REMARK    4  A    between atoms: N_20  and  C_21 
ROOT
HETATM    1  C   UNL     1      41.879 -10.907   1.623  1.00  0.00     0.097 A 
HETATM    2  C   UNL     1      41.631 -12.247   1.358  1.00  0.00     0.149 A 
HETATM    3  N   UNL     1      42.117 -12.974   2.449  1.00  0.00    -0.217 N 
HETATM    4  N   UNL     1      42.513 -12.141   3.445  1.00  0.00    -0.177 NA
HETATM    5  C   UNL     1      42.357 -10.919   2.950  1.00  0.00     0.160 A 
ENDROOT
BRANCH   2   6
HETATM    6  N   UNL     1      40.950 -12.775   0.264  1.00  0.00    -0.306 N 
HETATM    7  C   UNL     1      39.536 -13.010   0.275  1.00  0.00     0.258 C 
HETATM    8  O   UNL     1      38.855 -12.671   1.232  1.00  0.00    -0.267 OA
HETATM    9  H   UNL     1      41.467 -12.876  -0.605  1.00  0.00     0.170 HD
BRANCH   7  10
HETATM   10  C   UNL     1      38.974 -13.416  -1.029  1.00  0.00     0.049 A 
HETATM   11  C   UNL     1      37.994 -12.673  -1.696  1.00  0.00     0.026 A 
HETATM   12 BR   UNL     1      37.409 -10.971  -1.096  1.00  0.00    -0.050 Br
HETATM   13  C   UNL     1      37.418 -13.180  -2.864  1.00  0.00     0.020 A 
HETATM   14  C   UNL     1      37.814 -14.425  -3.359  1.00  0.00     0.001 A 
HETATM   15  C   UNL     1      38.800 -15.160  -2.701  1.00  0.00     0.001 A 
HETATM   16  C   UNL     1      39.387 -14.656  -1.540  1.00  0.00     0.018 A 
ENDBRANCH   7  10
ENDBRANCH   2   6
BRANCH   1  17
HETATM   17  C   UNL     1      41.529  -9.753   0.817  1.00  0.00     0.259 C 
HETATM   18  N   UNL     1      40.241  -9.215   0.948  1.00  0.00    -0.345 N 
HETATM   19  C   UNL     1      39.824  -8.196  -0.024  1.00  0.00     0.154 C 
HETATM   20  C   UNL     1      39.455  -9.232   2.192  1.00  0.00     0.154 C 
HETATM   21  C   UNL     1      39.835  -6.790   0.599  1.00  0.00     0.254 C 
HETATM   22  N   UNL     1      38.948  -6.788   1.846  1.00  0.00    -0.072 N 
HETATM   23  C   UNL     1      38.852  -5.422   2.465  1.00  0.00     0.269 C 
HETATM   24  H   UNL     1      37.996  -7.040   1.545  1.00  0.00     0.279 HD
HETATM   25  C   UNL     1      39.409  -7.837   2.851  1.00  0.00     0.254 C 
HETATM   26  O   UNL     1      42.329  -9.279   0.012  1.00  0.00    -0.267 OA
ENDBRANCH   1  17
BRANCH   3  27
HETATM   27  C   UNL     1      42.293 -14.385   2.584  1.00  0.00     0.060 A 
HETATM   28  C   UNL     1      41.555 -15.147   3.501  1.00  0.00     0.031 A 
HETATM   29  C   UNL     1      41.752 -16.530   3.592  1.00  0.00     0.002 A 
HETATM   30  C   UNL     1      42.666 -17.164   2.757  1.00  0.00     0.000 A 
HETATM   31  C   UNL     1      43.385 -16.421   1.825  1.00  0.00     0.002 A 
HETATM   32  C   UNL     1      43.201 -15.040   1.735  1.00  0.00     0.031 A 
ENDBRANCH   3  27
TORSDOF 4
ENDMDL
