MODEL 1
REMARK VINA RESULT:      -9.7      0.000      0.000
REMARK  3 active torsions:
REMARK  status: ('A' for Active; 'I' for Inactive)
REMARK    1  A    between atoms: C_2  and  C_3 
REMARK    2  A    between atoms: C_7  and  C_8 
REMARK       I    between atoms: C_8  and  N_9 
REMARK    3  A    between atoms: N_9  and  N_10 
ROOT
HETATM    1  C   UNL     1      42.874 -15.943   2.102  1.00  0.00     0.272 C 
HETATM    2  N   UNL     1      41.523 -15.902   1.798  1.00  0.00    -0.242 N 
HETATM    3  O   UNL     1      43.758 -15.401   1.443  1.00  0.00    -0.266 OA
HETATM    4  H   UNL     1      40.824 -16.379   2.369  1.00  0.00     0.192 HD
ENDROOT
BRANCH   1   5
HETATM    5  C   UNL     1      43.271 -16.758   3.281  1.00  0.00     0.048 A 
HETATM    6  C   UNL     1      43.456 -18.163   3.271  1.00  0.00     0.008 A 
HETATM    7  C   UNL     1      43.873 -18.737   4.491  1.00  0.00     0.068 A 
HETATM    8  C   UNL     1      43.226 -19.029   2.168  1.00  0.00     0.015 A 
HETATM    9  N   UNL     1      44.041 -18.031   5.622  1.00  0.00    -0.253 NA
HETATM   10  C   UNL     1      44.106 -20.104   4.553  1.00  0.00     0.032 A 
HETATM   11  C   UNL     1      43.791 -16.705   5.617  1.00  0.00     0.036 A 
HETATM   12  C   UNL     1      43.425 -16.033   4.468  1.00  0.00     0.045 A 
HETATM   13  C   UNL     1      43.920 -20.938   3.451  1.00  0.00     0.002 A 
HETATM   14  C   UNL     1      43.469 -20.400   2.256  1.00  0.00     0.001 A 
BRANCH  11  15
HETATM   15  C   UNL     1      43.918 -15.978   6.930  1.00  0.00     0.055 C 
HETATM   16  C   UNL     1      42.563 -15.572   7.489  1.00  0.00     0.011 C 
ENDBRANCH  11  15
ENDBRANCH   1   5
BRANCH   2  17
HETATM   17  N   UNL     1      41.114 -15.209   0.694  1.00  0.00    -0.166 NA
HETATM   18  C   UNL     1      40.272 -14.243   0.871  1.00  0.00     0.157 A 
HETATM   19  C   UNL     1      39.697 -13.700   2.180  1.00  0.00     0.277 A 
HETATM   20  C   UNL     1      39.726 -13.400  -0.185  1.00  0.00     0.027 A 
HETATM   21  O   UNL     1      39.903 -14.173   3.278  1.00  0.00    -0.266 OA
HETATM   22  N   UNL     1      38.938 -12.605   1.825  1.00  0.00    -0.321 N 
HETATM   23  C   UNL     1      38.949 -12.428   0.443  1.00  0.00     0.048 A 
HETATM   24  H   UNL     1      38.441 -12.032   2.490  1.00  0.00     0.169 HD
HETATM   25  C   UNL     1      38.303 -11.452  -0.285  1.00  0.00     0.030 A 
HETATM   26  C   UNL     1      38.451 -11.484  -1.679  1.00  0.00     0.002 A 
HETATM   27  C   UNL     1      39.232 -12.478  -2.307  1.00  0.00     0.001 A 
HETATM   28  C   UNL     1      39.888 -13.455  -1.554  1.00  0.00     0.016 A 
ENDBRANCH   2  17
TORSDOF 3
ENDMDL
MODEL 2
REMARK VINA RESULT:      -9.4      1.419      3.455
REMARK  3 active torsions:
REMARK  status: ('A' for Active; 'I' for Inactive)
REMARK    1  A    between atoms: C_2  and  C_3 
REMARK    2  A    between atoms: C_7  and  C_8 
REMARK       I    between atoms: C_8  and  N_9 
REMARK    3  A    between atoms: N_9  and  N_10 
ROOT
HETATM    1  C   UNL     1      43.059 -15.056   2.364  1.00  0.00     0.272 C 
HETATM    2  N   UNL     1      41.830 -14.420   2.303  1.00  0.00    -0.242 N 
HETATM    3  O   UNL     1      43.995 -14.850   1.593  1.00  0.00    -0.266 OA
HETATM    4  H   UNL     1      41.077 -14.634   2.958  1.00  0.00     0.192 HD
ENDROOT
BRANCH   1   5
HETATM    5  C   UNL     1      43.221 -16.106   3.404  1.00  0.00     0.048 A 
HETATM    6  C   UNL     1      43.180 -15.876   4.803  1.00  0.00     0.008 A 
HETATM    7  C   UNL     1      43.317 -17.020   5.618  1.00  0.00     0.068 A 
HETATM    8  C   UNL     1      43.050 -14.612   5.439  1.00  0.00     0.015 A 
HETATM    9  N   UNL     1      43.529 -18.254   5.132  1.00  0.00    -0.253 NA
HETATM   10  C   UNL     1      43.255 -16.880   6.998  1.00  0.00     0.032 A 
HETATM   11  C   UNL     1      43.633 -18.431   3.798  1.00  0.00     0.036 A 
HETATM   12  C   UNL     1      43.465 -17.390   2.906  1.00  0.00     0.045 A 
HETATM   13  C   UNL     1      43.083 -15.639   7.610  1.00  0.00     0.002 A 
HETATM   14  C   UNL     1      42.990 -14.499   6.829  1.00  0.00     0.001 A 
BRANCH  11  15
HETATM   15  C   UNL     1      43.950 -19.821   3.312  1.00  0.00     0.055 C 
HETATM   16  C   UNL     1      43.229 -20.148   2.014  1.00  0.00     0.011 C 
ENDBRANCH  11  15
ENDBRANCH   1   5
BRANCH   2  17
HETATM   17  N   UNL     1      41.615 -13.485   1.330  1.00  0.00    -0.166 NA
HETATM   18  C   UNL     1      40.771 -13.778   0.394  1.00  0.00     0.157 A 
HETATM   19  C   UNL     1      39.899 -15.026   0.245  1.00  0.00     0.277 A 
HETATM   20  C   UNL     1      40.419 -12.909  -0.721  1.00  0.00     0.027 A 
HETATM   21  O   UNL     1      39.940 -15.992   0.978  1.00  0.00    -0.266 OA
HETATM   22  N   UNL     1      39.104 -14.793  -0.857  1.00  0.00    -0.321 N 
HETATM   23  C   UNL     1      39.408 -13.558  -1.428  1.00  0.00     0.048 A 
HETATM   24  H   UNL     1      38.413 -15.446  -1.194  1.00  0.00     0.169 HD
HETATM   25  C   UNL     1      38.834 -12.983  -2.541  1.00  0.00     0.030 A 
HETATM   26  C   UNL     1      39.317 -11.729  -2.939  1.00  0.00     0.002 A 
HETATM   27  C   UNL     1      40.348 -11.084  -2.224  1.00  0.00     0.001 A 
HETATM   28  C   UNL     1      40.912 -11.676  -1.091  1.00  0.00     0.016 A 
ENDBRANCH   2  17
TORSDOF 3
ENDMDL
MODEL 3
REMARK VINA RESULT:      -8.9      1.629      3.660
REMARK  3 active torsions:
REMARK  status: ('A' for Active; 'I' for Inactive)
REMARK    1  A    between atoms: C_2  and  C_3 
REMARK    2  A    between atoms: C_7  and  C_8 
REMARK       I    between atoms: C_8  and  N_9 
REMARK    3  A    between atoms: N_9  and  N_10 
ROOT
HETATM    1  C   UNL     1      40.722 -15.711   1.882  1.00  0.00     0.272 C 
HETATM    2  N   UNL     1      41.128 -15.100   0.708  1.00  0.00    -0.242 N 
HETATM    3  O   UNL     1      39.552 -15.849   2.235  1.00  0.00    -0.266 OA
HETATM    4  H   UNL     1      42.112 -14.996   0.463  1.00  0.00     0.192 HD
ENDROOT
BRANCH   1   5
HETATM    5  C   UNL     1      41.794 -16.175   2.802  1.00  0.00     0.048 A 
HETATM    6  C   UNL     1      42.248 -15.466   3.943  1.00  0.00     0.008 A 
HETATM    7  C   UNL     1      43.251 -16.104   4.705  1.00  0.00     0.068 A 
HETATM    8  C   UNL     1      41.812 -14.178   4.355  1.00  0.00     0.015 A 
HETATM    9  N   UNL     1      43.800 -17.282   4.367  1.00  0.00    -0.253 NA
HETATM   10  C   UNL     1      43.724 -15.487   5.854  1.00  0.00     0.032 A 
HETATM   11  C   UNL     1      43.396 -17.901   3.237  1.00  0.00     0.036 A 
HETATM   12  C   UNL     1      42.387 -17.391   2.443  1.00  0.00     0.045 A 
HETATM   13  C   UNL     1      43.256 -14.242   6.274  1.00  0.00     0.002 A 
HETATM   14  C   UNL     1      42.303 -13.580   5.516  1.00  0.00     0.001 A 
BRANCH  11  15
HETATM   15  C   UNL     1      44.100 -19.178   2.863  1.00  0.00     0.055 C 
HETATM   16  C   UNL     1      43.228 -20.078   2.003  1.00  0.00     0.011 C 
ENDBRANCH  11  15
ENDBRANCH   1   5
BRANCH   2  17
HETATM   17  N   UNL     1      40.179 -14.610  -0.145  1.00  0.00    -0.166 NA
HETATM   18  C   UNL     1      40.022 -13.326  -0.193  1.00  0.00     0.157 A 
HETATM   19  C   UNL     1      40.810 -12.237   0.536  1.00  0.00     0.277 A 
HETATM   20  C   UNL     1      39.062 -12.628  -1.037  1.00  0.00     0.027 A 
HETATM   21  O   UNL     1      41.680 -12.440   1.356  1.00  0.00    -0.266 OA
HETATM   22  N   UNL     1      40.319 -11.041   0.055  1.00  0.00    -0.321 N 
HETATM   23  C   UNL     1      39.294 -11.265  -0.861  1.00  0.00     0.048 A 
HETATM   24  H   UNL     1      40.661 -10.139   0.351  1.00  0.00     0.169 HD
HETATM   25  C   UNL     1      38.557 -10.322  -1.545  1.00  0.00     0.030 A 
HETATM   26  C   UNL     1      37.560 -10.790  -2.412  1.00  0.00     0.002 A 
HETATM   27  C   UNL     1      37.325 -12.172  -2.577  1.00  0.00     0.001 A 
HETATM   28  C   UNL     1      38.088 -13.114  -1.884  1.00  0.00     0.016 A 
ENDBRANCH   2  17
TORSDOF 3
ENDMDL
MODEL 4
REMARK VINA RESULT:      -8.8      4.129      7.025
REMARK  3 active torsions:
REMARK  status: ('A' for Active; 'I' for Inactive)
REMARK    1  A    between atoms: C_2  and  C_3 
REMARK    2  A    between atoms: C_7  and  C_8 
REMARK       I    between atoms: C_8  and  N_9 
REMARK    3  A    between atoms: N_9  and  N_10 
ROOT
HETATM    1  C   UNL     1      43.236 -14.602   5.832  1.00  0.00     0.272 C 
HETATM    2  N   UNL     1      43.733 -13.331   5.594  1.00  0.00    -0.242 N 
HETATM    3  O   UNL     1      43.251 -15.169   6.922  1.00  0.00    -0.266 OA
HETATM    4  H   UNL     1      43.711 -12.905   4.667  1.00  0.00     0.192 HD
ENDROOT
BRANCH   1   5
HETATM    5  C   UNL     1      42.703 -15.344   4.659  1.00  0.00     0.048 A 
HETATM    6  C   UNL     1      43.181 -16.601   4.208  1.00  0.00     0.008 A 
HETATM    7  C   UNL     1      42.508 -17.151   3.095  1.00  0.00     0.068 A 
HETATM    8  C   UNL     1      44.279 -17.321   4.749  1.00  0.00     0.015 A 
HETATM    9  N   UNL     1      41.511 -16.525   2.449  1.00  0.00    -0.253 NA
HETATM   10  C   UNL     1      42.897 -18.394   2.616  1.00  0.00     0.032 A 
HETATM   11  C   UNL     1      41.125 -15.298   2.859  1.00  0.00     0.036 A 
HETATM   12  C   UNL     1      41.680 -14.687   3.966  1.00  0.00     0.045 A 
HETATM   13  C   UNL     1      43.948 -19.112   3.184  1.00  0.00     0.002 A 
HETATM   14  C   UNL     1      44.649 -18.570   4.248  1.00  0.00     0.001 A 
BRANCH  11  15
HETATM   15  C   UNL     1      40.059 -14.607   2.050  1.00  0.00     0.055 C 
HETATM   16  C   UNL     1      40.065 -15.058   0.598  1.00  0.00     0.011 C 
ENDBRANCH  11  15
ENDBRANCH   1   5
BRANCH   2  17
HETATM   17  N   UNL     1      44.281 -12.631   6.631  1.00  0.00    -0.166 NA
HETATM   18  C   UNL     1      43.621 -11.613   7.081  1.00  0.00     0.157 A 
HETATM   19  C   UNL     1      42.245 -11.099   6.656  1.00  0.00     0.277 A 
HETATM   20  C   UNL     1      44.049 -10.751   8.175  1.00  0.00     0.027 A 
HETATM   21  O   UNL     1      41.586 -11.552   5.743  1.00  0.00    -0.266 OA
HETATM   22  N   UNL     1      41.955 -10.062   7.517  1.00  0.00    -0.321 N 
HETATM   23  C   UNL     1      43.009  -9.852   8.404  1.00  0.00     0.048 A 
HETATM   24  H   UNL     1      41.096  -9.533   7.484  1.00  0.00     0.169 HD
HETATM   25  C   UNL     1      43.092  -8.905   9.402  1.00  0.00     0.030 A 
HETATM   26  C   UNL     1      44.267  -8.875  10.165  1.00  0.00     0.002 A 
HETATM   27  C   UNL     1      45.320  -9.783   9.919  1.00  0.00     0.001 A 
HETATM   28  C   UNL     1      45.215 -10.743   8.911  1.00  0.00     0.016 A 
ENDBRANCH   2  17
TORSDOF 3
ENDMDL
MODEL 5
REMARK VINA RESULT:      -8.8      4.119      8.137
REMARK  3 active torsions:
REMARK  status: ('A' for Active; 'I' for Inactive)
REMARK    1  A    between atoms: C_2  and  C_3 
REMARK    2  A    between atoms: C_7  and  C_8 
REMARK       I    between atoms: C_8  and  N_9 
REMARK    3  A    between atoms: N_9  and  N_10 
ROOT
HETATM    1  C   UNL     1      42.849 -13.125   4.880  1.00  0.00     0.272 C 
HETATM    2  N   UNL     1      42.834 -14.380   5.465  1.00  0.00    -0.242 N 
HETATM    3  O   UNL     1      43.049 -12.909   3.687  1.00  0.00    -0.266 OA
HETATM    4  H   UNL     1      42.676 -14.511   6.465  1.00  0.00     0.192 HD
ENDROOT
BRANCH   1   5
HETATM    5  C   UNL     1      42.668 -11.960   5.787  1.00  0.00     0.048 A 
HETATM    6  C   UNL     1      43.710 -11.320   6.503  1.00  0.00     0.008 A 
HETATM    7  C   UNL     1      43.327 -10.204   7.280  1.00  0.00     0.068 A 
HETATM    8  C   UNL     1      45.073 -11.720   6.533  1.00  0.00     0.015 A 
HETATM    9  N   UNL     1      42.056  -9.785   7.396  1.00  0.00    -0.253 NA
HETATM   10  C   UNL     1      44.296  -9.505   7.985  1.00  0.00     0.032 A 
HETATM   11  C   UNL     1      41.076 -10.458   6.757  1.00  0.00     0.036 A 
HETATM   12  C   UNL     1      41.343 -11.532   5.931  1.00  0.00     0.045 A 
HETATM   13  C   UNL     1      45.639  -9.881   7.971  1.00  0.00     0.002 A 
HETATM   14  C   UNL     1      46.028 -10.998   7.250  1.00  0.00     0.001 A 
BRANCH  11  15
HETATM   15  C   UNL     1      39.662  -9.993   6.986  1.00  0.00     0.055 C 
HETATM   16  C   UNL     1      38.688 -10.629   6.007  1.00  0.00     0.011 C 
ENDBRANCH  11  15
ENDBRANCH   1   5
BRANCH   2  17
HETATM   17  N   UNL     1      43.049 -15.478   4.681  1.00  0.00    -0.166 NA
HETATM   18  C   UNL     1      43.297 -16.600   5.276  1.00  0.00     0.157 A 
HETATM   19  C   UNL     1      43.321 -16.906   6.774  1.00  0.00     0.277 A 
HETATM   20  C   UNL     1      43.551 -17.868   4.605  1.00  0.00     0.027 A 
HETATM   21  O   UNL     1      43.180 -16.081   7.653  1.00  0.00    -0.266 OA
HETATM   22  N   UNL     1      43.525 -18.266   6.872  1.00  0.00    -0.321 N 
HETATM   23  C   UNL     1      43.665 -18.832   5.606  1.00  0.00     0.048 A 
HETATM   24  H   UNL     1      43.576 -18.761   7.749  1.00  0.00     0.169 HD
HETATM   25  C   UNL     1      43.888 -20.157   5.298  1.00  0.00     0.030 A 
HETATM   26  C   UNL     1      44.009 -20.491   3.942  1.00  0.00     0.002 A 
HETATM   27  C   UNL     1      43.903 -19.507   2.936  1.00  0.00     0.001 A 
HETATM   28  C   UNL     1      43.666 -18.170   3.265  1.00  0.00     0.016 A 
ENDBRANCH   2  17
TORSDOF 3
ENDMDL
MODEL 6
REMARK VINA RESULT:      -8.6      4.324      7.220
REMARK  3 active torsions:
REMARK  status: ('A' for Active; 'I' for Inactive)
REMARK    1  A    between atoms: C_2  and  C_3 
REMARK    2  A    between atoms: C_7  and  C_8 
REMARK       I    between atoms: C_8  and  N_9 
REMARK    3  A    between atoms: N_9  and  N_10 
ROOT
HETATM    1  C   UNL     1      43.266 -14.773   6.637  1.00  0.00     0.272 C 
HETATM    2  N   UNL     1      43.912 -13.575   6.378  1.00  0.00    -0.242 N 
HETATM    3  O   UNL     1      42.893 -15.144   7.748  1.00  0.00    -0.266 OA
HETATM    4  H   UNL     1      44.216 -13.315   5.439  1.00  0.00     0.192 HD
ENDROOT
BRANCH   1   5
HETATM    5  C   UNL     1      43.073 -15.694   5.485  1.00  0.00     0.048 A 
HETATM    6  C   UNL     1      42.107 -15.523   4.462  1.00  0.00     0.008 A 
HETATM    7  C   UNL     1      42.118 -16.494   3.437  1.00  0.00     0.068 A 
HETATM    8  C   UNL     1      41.125 -14.498   4.402  1.00  0.00     0.015 A 
HETATM    9  N   UNL     1      42.943 -17.553   3.431  1.00  0.00    -0.253 NA
HETATM   10  C   UNL     1      41.222 -16.377   2.383  1.00  0.00     0.032 A 
HETATM   11  C   UNL     1      43.806 -17.727   4.454  1.00  0.00     0.036 A 
HETATM   12  C   UNL     1      43.913 -16.813   5.484  1.00  0.00     0.045 A 
HETATM   13  C   UNL     1      40.292 -15.340   2.312  1.00  0.00     0.002 A 
HETATM   14  C   UNL     1      40.237 -14.402   3.330  1.00  0.00     0.001 A 
BRANCH  11  15
HETATM   15  C   UNL     1      44.650 -18.974   4.437  1.00  0.00     0.055 C 
HETATM   16  C   UNL     1      44.046 -20.082   5.284  1.00  0.00     0.011 C 
ENDBRANCH  11  15
ENDBRANCH   1   5
BRANCH   2  17
HETATM   17  N   UNL     1      44.159 -12.720   7.414  1.00  0.00    -0.166 NA
HETATM   18  C   UNL     1      43.694 -11.516   7.320  1.00  0.00     0.157 A 
HETATM   19  C   UNL     1      42.827 -10.906   6.218  1.00  0.00     0.277 A 
HETATM   20  C   UNL     1      43.861 -10.471   8.322  1.00  0.00     0.027 A 
HETATM   21  O   UNL     1      42.505 -11.473   5.195  1.00  0.00    -0.266 OA
HETATM   22  N   UNL     1      42.519  -9.634   6.650  1.00  0.00    -0.321 N 
HETATM   23  C   UNL     1      43.124  -9.373   7.878  1.00  0.00     0.048 A 
HETATM   24  H   UNL     1      41.943  -8.991   6.128  1.00  0.00     0.169 HD
HETATM   25  C   UNL     1      43.056  -8.213   8.620  1.00  0.00     0.030 A 
HETATM   26  C   UNL     1      43.766  -8.180   9.828  1.00  0.00     0.002 A 
HETATM   27  C   UNL     1      44.518  -9.292  10.264  1.00  0.00     0.001 A 
HETATM   28  C   UNL     1      44.568 -10.464   9.506  1.00  0.00     0.016 A 
ENDBRANCH   2  17
TORSDOF 3
ENDMDL
MODEL 7
REMARK VINA RESULT:      -8.4      1.775      7.853
REMARK  3 active torsions:
REMARK  status: ('A' for Active; 'I' for Inactive)
REMARK    1  A    between atoms: C_2  and  C_3 
REMARK    2  A    between atoms: C_7  and  C_8 
REMARK       I    between atoms: C_8  and  N_9 
REMARK    3  A    between atoms: N_9  and  N_10 
ROOT
HETATM    1  C   UNL     1      40.722 -14.534   0.780  1.00  0.00     0.272 C 
HETATM    2  N   UNL     1      41.990 -14.877   1.218  1.00  0.00    -0.242 N 
HETATM    3  O   UNL     1      39.829 -15.338   0.515  1.00  0.00    -0.266 OA
HETATM    4  H   UNL     1      42.704 -14.175   1.413  1.00  0.00     0.192 HD
ENDROOT
BRANCH   1   5
HETATM    5  C   UNL     1      40.456 -13.088   0.560  1.00  0.00     0.048 A 
HETATM    6  C   UNL     1      40.513 -12.434  -0.697  1.00  0.00     0.008 A 
HETATM    7  C   UNL     1      40.188 -11.060  -0.691  1.00  0.00     0.068 A 
HETATM    8  C   UNL     1      40.898 -13.026  -1.930  1.00  0.00     0.015 A 
HETATM    9  N   UNL     1      39.891 -10.376   0.425  1.00  0.00    -0.253 NA
HETATM   10  C   UNL     1      40.189 -10.359  -1.888  1.00  0.00     0.032 A 
HETATM   11  C   UNL     1      39.912 -11.010   1.617  1.00  0.00     0.036 A 
HETATM   12  C   UNL     1      40.170 -12.362   1.722  1.00  0.00     0.045 A 
HETATM   13  C   UNL     1      40.526 -10.961  -3.100  1.00  0.00     0.002 A 
HETATM   14  C   UNL     1      40.890 -12.297  -3.121  1.00  0.00     0.001 A 
BRANCH  11  15
HETATM   15  C   UNL     1      39.651 -10.176   2.843  1.00  0.00     0.055 C 
HETATM   16  C   UNL     1      39.597 -11.022   4.105  1.00  0.00     0.011 C 
ENDBRANCH  11  15
ENDBRANCH   1   5
BRANCH   2  17
HETATM   17  N   UNL     1      42.298 -16.198   1.385  1.00  0.00    -0.166 NA
HETATM   18  C   UNL     1      42.848 -16.548   2.503  1.00  0.00     0.157 A 
HETATM   19  C   UNL     1      43.154 -15.690   3.731  1.00  0.00     0.277 A 
HETATM   20  C   UNL     1      43.245 -17.906   2.854  1.00  0.00     0.027 A 
HETATM   21  O   UNL     1      42.986 -14.491   3.799  1.00  0.00    -0.266 OA
HETATM   22  N   UNL     1      43.635 -16.564   4.682  1.00  0.00    -0.321 N 
HETATM   23  C   UNL     1      43.694 -17.860   4.173  1.00  0.00     0.048 A 
HETATM   24  H   UNL     1      43.912 -16.281   5.610  1.00  0.00     0.169 HD
HETATM   25  C   UNL     1      44.126 -18.999   4.819  1.00  0.00     0.030 A 
HETATM   26  C   UNL     1      44.107 -20.197   4.092  1.00  0.00     0.002 A 
HETATM   27  C   UNL     1      43.661 -20.232   2.754  1.00  0.00     0.001 A 
HETATM   28  C   UNL     1      43.216 -19.071   2.117  1.00  0.00     0.016 A 
ENDBRANCH   2  17
TORSDOF 3
ENDMDL
MODEL 8
REMARK VINA RESULT:      -8.4      4.974      8.290
REMARK  3 active torsions:
REMARK  status: ('A' for Active; 'I' for Inactive)
REMARK    1  A    between atoms: C_2  and  C_3 
REMARK    2  A    between atoms: C_7  and  C_8 
REMARK       I    between atoms: C_8  and  N_9 
REMARK    3  A    between atoms: N_9  and  N_10 
ROOT
HETATM    1  C   UNL     1      44.120 -12.307   6.947  1.00  0.00     0.272 C 
HETATM    2  N   UNL     1      43.291 -13.410   7.068  1.00  0.00    -0.242 N 
HETATM    3  O   UNL     1      45.219 -12.312   6.396  1.00  0.00    -0.266 OA
HETATM    4  H   UNL     1      42.391 -13.362   7.547  1.00  0.00     0.192 HD
ENDROOT
BRANCH   1   5
HETATM    5  C   UNL     1      43.660 -11.048   7.591  1.00  0.00     0.048 A 
HETATM    6  C   UNL     1      42.804 -10.094   6.987  1.00  0.00     0.008 A 
HETATM    7  C   UNL     1      42.456  -8.984   7.788  1.00  0.00     0.068 A 
HETATM    8  C   UNL     1      42.305 -10.141   5.657  1.00  0.00     0.015 A 
HETATM    9  N   UNL     1      42.933  -8.790   9.028  1.00  0.00    -0.253 NA
HETATM   10  C   UNL     1      41.596  -8.022   7.278  1.00  0.00     0.032 A 
HETATM   11  C   UNL     1      43.802  -9.681   9.552  1.00  0.00     0.036 A 
HETATM   12  C   UNL     1      44.171 -10.827   8.875  1.00  0.00     0.045 A 
HETATM   13  C   UNL     1      41.077  -8.102   5.986  1.00  0.00     0.002 A 
HETATM   14  C   UNL     1      41.440  -9.160   5.169  1.00  0.00     0.001 A 
BRANCH  11  15
HETATM   15  C   UNL     1      44.366  -9.373  10.913  1.00  0.00     0.055 C 
HETATM   16  C   UNL     1      43.390  -8.580  11.767  1.00  0.00     0.011 C 
ENDBRANCH  11  15
ENDBRANCH   1   5
BRANCH   2  17
HETATM   17  N   UNL     1      43.696 -14.603   6.538  1.00  0.00    -0.166 NA
HETATM   18  C   UNL     1      43.091 -15.021   5.473  1.00  0.00     0.157 A 
HETATM   19  C   UNL     1      42.002 -14.327   4.655  1.00  0.00     0.277 A 
HETATM   20  C   UNL     1      43.386 -16.265   4.774  1.00  0.00     0.027 A 
HETATM   21  O   UNL     1      41.476 -13.274   4.950  1.00  0.00    -0.266 OA
HETATM   22  N   UNL     1      41.782 -15.142   3.565  1.00  0.00    -0.321 N 
HETATM   23  C   UNL     1      42.586 -16.279   3.632  1.00  0.00     0.048 A 
HETATM   24  H   UNL     1      41.116 -14.932   2.836  1.00  0.00     0.169 HD
HETATM   25  C   UNL     1      42.643 -17.323   2.735  1.00  0.00     0.030 A 
HETATM   26  C   UNL     1      43.526 -18.373   3.024  1.00  0.00     0.002 A 
HETATM   27  C   UNL     1      44.324 -18.355   4.187  1.00  0.00     0.001 A 
HETATM   28  C   UNL     1      44.262 -17.284   5.082  1.00  0.00     0.016 A 
ENDBRANCH   2  17
TORSDOF 3
ENDMDL
MODEL 9
REMARK VINA RESULT:      -8.1      4.478      7.893
REMARK  3 active torsions:
REMARK  status: ('A' for Active; 'I' for Inactive)
REMARK    1  A    between atoms: C_2  and  C_3 
REMARK    2  A    between atoms: C_7  and  C_8 
REMARK       I    between atoms: C_8  and  N_9 
REMARK    3  A    between atoms: N_9  and  N_10 
ROOT
HETATM    1  C   UNL     1      41.640 -12.816   5.356  1.00  0.00     0.272 C 
HETATM    2  N   UNL     1      42.421 -11.679   5.488  1.00  0.00    -0.242 N 
HETATM    3  O   UNL     1      40.867 -13.241   6.213  1.00  0.00    -0.266 OA
HETATM    4  H   UNL     1      43.059 -11.372   4.755  1.00  0.00     0.192 HD
ENDROOT
BRANCH   1   5
HETATM    5  C   UNL     1      41.808 -13.603   4.106  1.00  0.00     0.048 A 
HETATM    6  C   UNL     1      42.454 -14.862   4.019  1.00  0.00     0.008 A 
HETATM    7  C   UNL     1      42.471 -15.459   2.740  1.00  0.00     0.068 A 
HETATM    8  C   UNL     1      43.105 -15.543   5.083  1.00  0.00     0.015 A 
HETATM    9  N   UNL     1      41.963 -14.872   1.644  1.00  0.00    -0.253 NA
HETATM   10  C   UNL     1      43.057 -16.706   2.581  1.00  0.00     0.032 A 
HETATM   11  C   UNL     1      41.415 -13.642   1.744  1.00  0.00     0.036 A 
HETATM   12  C   UNL     1      41.303 -12.988   2.955  1.00  0.00     0.045 A 
HETATM   13  C   UNL     1      43.653 -17.386   3.643  1.00  0.00     0.002 A 
HETATM   14  C   UNL     1      43.686 -16.798   4.897  1.00  0.00     0.001 A 
BRANCH  11  15
HETATM   15  C   UNL     1      40.934 -12.998   0.471  1.00  0.00     0.055 C 
HETATM   16  C   UNL     1      40.235 -13.992  -0.441  1.00  0.00     0.011 C 
ENDBRANCH  11  15
ENDBRANCH   1   5
BRANCH   2  17
HETATM   17  N   UNL     1      42.340 -10.952   6.643  1.00  0.00    -0.166 NA
HETATM   18  C   UNL     1      43.404 -10.872   7.375  1.00  0.00     0.157 A 
HETATM   19  C   UNL     1      44.800 -11.432   7.102  1.00  0.00     0.277 A 
HETATM   20  C   UNL     1      43.503 -10.146   8.635  1.00  0.00     0.027 A 
HETATM   21  O   UNL     1      45.096 -12.127   6.152  1.00  0.00    -0.266 OA
HETATM   22  N   UNL     1      45.590 -10.977   8.136  1.00  0.00    -0.321 N 
HETATM   23  C   UNL     1      44.836 -10.228   9.037  1.00  0.00     0.048 A 
HETATM   24  H   UNL     1      46.575 -11.181   8.217  1.00  0.00     0.169 HD
HETATM   25  C   UNL     1      45.270  -9.618  10.194  1.00  0.00     0.030 A 
HETATM   26  C   UNL     1      44.316  -8.925  10.953  1.00  0.00     0.002 A 
HETATM   27  C   UNL     1      42.967  -8.856  10.543  1.00  0.00     0.001 A 
HETATM   28  C   UNL     1      42.546  -9.471   9.362  1.00  0.00     0.016 A 
ENDBRANCH   2  17
TORSDOF 3
ENDMDL
MODEL 10
REMARK VINA RESULT:      -8.0      5.128      8.144
REMARK  3 active torsions:
REMARK  status: ('A' for Active; 'I' for Inactive)
REMARK    1  A    between atoms: C_2  and  C_3 
REMARK    2  A    between atoms: C_7  and  C_8 
REMARK       I    between atoms: C_8  and  N_9 
REMARK    3  A    between atoms: N_9  and  N_10 
ROOT
HETATM    1  C   UNL     1      42.054 -11.310   5.800  1.00  0.00     0.272 C 
HETATM    2  N   UNL     1      41.863 -12.638   6.142  1.00  0.00    -0.242 N 
HETATM    3  O   UNL     1      42.035 -10.870   4.652  1.00  0.00    -0.266 OA
HETATM    4  H   UNL     1      41.901 -12.959   7.110  1.00  0.00     0.192 HD
ENDROOT
BRANCH   1   5
HETATM    5  C   UNL     1      42.364 -10.369   6.910  1.00  0.00     0.048 A 
HETATM    6  C   UNL     1      43.661 -10.128   7.430  1.00  0.00     0.008 A 
HETATM    7  C   UNL     1      43.741  -9.165   8.460  1.00  0.00     0.068 A 
HETATM    8  C   UNL     1      44.856 -10.785   7.034  1.00  0.00     0.015 A 
HETATM    9  N   UNL     1      42.669  -8.540   8.973  1.00  0.00    -0.253 NA
HETATM   10  C   UNL     1      44.981  -8.850   8.998  1.00  0.00     0.032 A 
HETATM   11  C   UNL     1      41.439  -8.842   8.505  1.00  0.00     0.036 A 
HETATM   12  C   UNL     1      41.250  -9.732   7.466  1.00  0.00     0.045 A 
HETATM   13  C   UNL     1      46.154  -9.471   8.570  1.00  0.00     0.002 A 
HETATM   14  C   UNL     1      46.091 -10.449   7.591  1.00  0.00     0.001 A 
BRANCH  11  15
HETATM   15  C   UNL     1      40.266  -8.172   9.170  1.00  0.00     0.055 C 
HETATM   16  C   UNL     1      39.128  -9.145   9.432  1.00  0.00     0.011 C 
ENDBRANCH  11  15
ENDBRANCH   1   5
BRANCH   2  17
HETATM   17  N   UNL     1      41.627 -13.549   5.151  1.00  0.00    -0.166 NA
HETATM   18  C   UNL     1      42.423 -14.566   5.071  1.00  0.00     0.157 A 
HETATM   19  C   UNL     1      43.586 -14.948   5.987  1.00  0.00     0.277 A 
HETATM   20  C   UNL     1      42.327 -15.631   4.081  1.00  0.00     0.027 A 
HETATM   21  O   UNL     1      43.988 -14.277   6.915  1.00  0.00    -0.266 OA
HETATM   22  N   UNL     1      44.033 -16.169   5.529  1.00  0.00    -0.321 N 
HETATM   23  C   UNL     1      43.303 -16.571   4.412  1.00  0.00     0.048 A 
HETATM   24  H   UNL     1      44.795 -16.678   5.951  1.00  0.00     0.169 HD
HETATM   25  C   UNL     1      43.460 -17.725   3.675  1.00  0.00     0.030 A 
HETATM   26  C   UNL     1      42.610 -17.907   2.576  1.00  0.00     0.002 A 
HETATM   27  C   UNL     1      41.632 -16.946   2.242  1.00  0.00     0.001 A 
HETATM   28  C   UNL     1      41.478 -15.787   3.006  1.00  0.00     0.016 A 
ENDBRANCH   2  17
TORSDOF 3
ENDMDL
