MODEL 1
REMARK VINA RESULT:      -9.4      0.000      0.000
REMARK  5 active torsions:
REMARK  status: ('A' for Active; 'I' for Inactive)
REMARK    1  A    between atoms: C_3  and  O_4 
REMARK    2  A    between atoms: C_6  and  C_7 
REMARK       I    between atoms: N_10  and  C_11 
REMARK    3  A    between atoms: C_11  and  C_12 
REMARK    4  A    between atoms: C_18  and  C_19 
REMARK    5  A    between atoms: C_19  and  O_20 
ROOT
HETATM    1  C   UNL     1      43.417 -16.365   3.280  1.00  0.00     0.022 C 
HETATM    2  C   UNL     1      43.338 -15.730   1.870  1.00  0.00     0.029 C 
HETATM    3  C   UNL     1      41.925 -15.678   1.279  1.00  0.00     0.127 C 
HETATM    4  N   UNL     1      40.981 -15.151   2.258  1.00  0.00    -0.348 N 
HETATM    5  C   UNL     1      40.111 -14.078   2.088  1.00  0.00     0.253 C 
HETATM    6  O   UNL     1      39.185 -13.837   2.861  1.00  0.00    -0.267 OA
HETATM    7  C   UNL     1      40.916 -15.919   3.494  1.00  0.00     0.127 C 
HETATM    8  C   UNL     1      42.274 -15.854   4.186  1.00  0.00     0.029 C 
ENDROOT
BRANCH   5   9
HETATM    9  C   UNL     1      40.303 -13.130   0.964  1.00  0.00     0.034 A 
HETATM   10  C   UNL     1      40.932 -11.907   1.237  1.00  0.00     0.051 A 
HETATM   11  C   UNL     1      41.236 -11.062   0.161  1.00  0.00     0.086 A 
HETATM   12  C   UNL     1      40.906 -11.452  -1.132  1.00  0.00     0.062 A 
HETATM   13  N   UNL     1      41.870  -9.844   0.157  1.00  0.00    -0.231 NA
HETATM   14  N   UNL     1      41.361 -10.427  -1.922  1.00  0.00    -0.341 N 
HETATM   15  C   UNL     1      40.283 -12.665  -1.434  1.00  0.00     0.033 A 
HETATM   16  H   UNL     1      41.324 -10.394  -2.931  1.00  0.00     0.167 HD
HETATM   17  C   UNL     1      41.942  -9.485  -1.110  1.00  0.00     0.128 A 
HETATM   18  C   UNL     1      40.007 -13.511  -0.354  1.00  0.00     0.019 A 
BRANCH  17  19
HETATM   19  C   UNL     1      42.618  -8.274  -1.641  1.00  0.00     0.242 C 
BRANCH  19  20
HETATM   20  O   UNL     1      43.201  -7.606  -0.530  1.00  0.00    -0.393 OA
HETATM   21  H   UNL     1      42.565  -6.903  -0.287  1.00  0.00     0.209 HD
ENDBRANCH  19  20
ENDBRANCH  17  19
ENDBRANCH   5   9
BRANCH   1  22
HETATM   22  C   UNL     1      43.558 -17.881   3.354  1.00  0.00    -0.051 A 
HETATM   23  C   UNL     1      43.325 -18.743   2.276  1.00  0.00     0.044 A 
HETATM   24  C   UNL     1      43.490 -20.121   2.423  1.00  0.00     0.066 A 
HETATM   25  C   UNL     1      43.888 -20.675   3.633  1.00  0.00     0.036 A 
HETATM   26  C   UNL     1      44.130 -19.834   4.715  1.00  0.00     0.003 A 
HETATM   27  C   UNL     1      43.970 -18.454   4.574  1.00  0.00     0.007 A 
BRANCH  24  28
HETATM   28  O   UNL     1      43.250 -20.905   1.333  1.00  0.00    -0.361 OA
HETATM   29  H   UNL     1      42.587 -21.573   1.573  1.00  0.00     0.217 HD
ENDBRANCH  24  28
ENDBRANCH   1  22
TORSDOF 5
ENDMDL
MODEL 2
REMARK VINA RESULT:      -9.1      1.497      1.774
REMARK  5 active torsions:
REMARK  status: ('A' for Active; 'I' for Inactive)
REMARK    1  A    between atoms: C_3  and  O_4 
REMARK    2  A    between atoms: C_6  and  C_7 
REMARK       I    between atoms: N_10  and  C_11 
REMARK    3  A    between atoms: C_11  and  C_12 
REMARK    4  A    between atoms: C_18  and  C_19 
REMARK    5  A    between atoms: C_19  and  O_20 
ROOT
HETATM    1  C   UNL     1      43.770 -16.624   3.732  1.00  0.00     0.022 C 
HETATM    2  C   UNL     1      43.084 -15.870   2.566  1.00  0.00     0.029 C 
HETATM    3  C   UNL     1      41.576 -15.670   2.744  1.00  0.00     0.127 C 
HETATM    4  N   UNL     1      41.280 -15.163   4.079  1.00  0.00    -0.348 N 
HETATM    5  C   UNL     1      40.550 -14.021   4.397  1.00  0.00     0.253 C 
HETATM    6  O   UNL     1      40.142 -13.782   5.532  1.00  0.00    -0.267 OA
HETATM    7  C   UNL     1      41.743 -16.025   5.158  1.00  0.00     0.127 C 
HETATM    8  C   UNL     1      43.264 -16.113   5.101  1.00  0.00     0.029 C 
ENDROOT
BRANCH   5   9
HETATM    9  C   UNL     1      40.270 -12.999   3.361  1.00  0.00     0.034 A 
HETATM   10  C   UNL     1      41.348 -12.246   2.872  1.00  0.00     0.051 A 
HETATM   11  C   UNL     1      41.117 -11.372   1.802  1.00  0.00     0.086 A 
HETATM   12  C   UNL     1      39.840 -11.271   1.262  1.00  0.00     0.062 A 
HETATM   13  N   UNL     1      41.997 -10.560   1.129  1.00  0.00    -0.231 NA
HETATM   14  N   UNL     1      39.975 -10.369   0.238  1.00  0.00    -0.341 N 
HETATM   15  C   UNL     1      38.749 -12.010   1.725  1.00  0.00     0.033 A 
HETATM   16  H   UNL     1      39.247 -10.084  -0.403  1.00  0.00     0.167 HD
HETATM   17  C   UNL     1      41.288  -9.973   0.185  1.00  0.00     0.128 A 
HETATM   18  C   UNL     1      38.997 -12.898   2.777  1.00  0.00     0.019 A 
BRANCH  17  19
HETATM   19  C   UNL     1      41.810  -9.059  -0.863  1.00  0.00     0.242 C 
BRANCH  19  20
HETATM   20  O   UNL     1      42.803  -8.250  -0.248  1.00  0.00    -0.393 OA
HETATM   21  H   UNL     1      43.470  -8.082  -0.944  1.00  0.00     0.209 HD
ENDBRANCH  19  20
ENDBRANCH  17  19
ENDBRANCH   5   9
BRANCH   1  22
HETATM   22  C   UNL     1      43.774 -18.147   3.669  1.00  0.00    -0.051 A 
HETATM   23  C   UNL     1      43.515 -18.884   2.508  1.00  0.00     0.044 A 
HETATM   24  C   UNL     1      43.552 -20.278   2.531  1.00  0.00     0.066 A 
HETATM   25  C   UNL     1      43.847 -20.973   3.698  1.00  0.00     0.036 A 
HETATM   26  C   UNL     1      44.113 -20.259   4.862  1.00  0.00     0.003 A 
HETATM   27  C   UNL     1      44.080 -18.862   4.845  1.00  0.00     0.007 A 
BRANCH  24  28
HETATM   28  O   UNL     1      43.294 -20.937   1.364  1.00  0.00    -0.361 OA
HETATM   29  H   UNL     1      44.051 -20.817   0.768  1.00  0.00     0.217 HD
ENDBRANCH  24  28
ENDBRANCH   1  22
TORSDOF 5
ENDMDL
MODEL 3
REMARK VINA RESULT:      -8.6      1.245      1.742
REMARK  5 active torsions:
REMARK  status: ('A' for Active; 'I' for Inactive)
REMARK    1  A    between atoms: C_3  and  O_4 
REMARK    2  A    between atoms: C_6  and  C_7 
REMARK       I    between atoms: N_10  and  C_11 
REMARK    3  A    between atoms: C_11  and  C_12 
REMARK    4  A    between atoms: C_18  and  C_19 
REMARK    5  A    between atoms: C_19  and  O_20 
ROOT
HETATM    1  C   UNL     1      43.327 -16.483   3.613  1.00  0.00     0.022 C 
HETATM    2  C   UNL     1      43.510 -15.670   2.308  1.00  0.00     0.029 C 
HETATM    3  C   UNL     1      42.243 -15.546   1.457  1.00  0.00     0.127 C 
HETATM    4  N   UNL     1      41.107 -15.155   2.285  1.00  0.00    -0.348 N 
HETATM    5  C   UNL     1      40.257 -14.073   2.081  1.00  0.00     0.253 C 
HETATM    6  O   UNL     1      39.188 -13.938   2.676  1.00  0.00    -0.267 OA
HETATM    7  C   UNL     1      40.821 -16.079   3.375  1.00  0.00     0.127 C 
HETATM    8  C   UNL     1      42.011 -16.100   4.328  1.00  0.00     0.029 C 
ENDROOT
BRANCH   5   9
HETATM    9  C   UNL     1      40.639 -12.985   1.149  1.00  0.00     0.034 A 
HETATM   10  C   UNL     1      40.185 -13.065  -0.175  1.00  0.00     0.051 A 
HETATM   11  C   UNL     1      40.429 -11.981  -1.027  1.00  0.00     0.086 A 
HETATM   12  C   UNL     1      41.111 -10.869  -0.545  1.00  0.00     0.062 A 
HETATM   13  N   UNL     1      40.066 -11.799  -2.339  1.00  0.00    -0.231 NA
HETATM   14  N   UNL     1      41.149 -10.006  -1.611  1.00  0.00    -0.341 N 
HETATM   15  C   UNL     1      41.571 -10.759   0.768  1.00  0.00     0.033 A 
HETATM   16  H   UNL     1      41.538  -9.073  -1.606  1.00  0.00     0.167 HD
HETATM   17  C   UNL     1      40.502 -10.598  -2.667  1.00  0.00     0.128 A 
HETATM   18  C   UNL     1      41.299 -11.838   1.617  1.00  0.00     0.019 A 
BRANCH  17  19
HETATM   19  C   UNL     1      40.281  -9.908  -3.963  1.00  0.00     0.242 C 
BRANCH  19  20
HETATM   20  O   UNL     1      41.420  -9.090  -4.194  1.00  0.00    -0.393 OA
HETATM   21  H   UNL     1      41.292  -8.301  -3.630  1.00  0.00     0.209 HD
ENDBRANCH  19  20
ENDBRANCH  17  19
ENDBRANCH   5   9
BRANCH   1  22
HETATM   22  C   UNL     1      43.495 -17.995   3.520  1.00  0.00    -0.051 A 
HETATM   23  C   UNL     1      43.270 -18.739   2.356  1.00  0.00     0.044 A 
HETATM   24  C   UNL     1      43.460 -20.121   2.350  1.00  0.00     0.066 A 
HETATM   25  C   UNL     1      43.878 -20.796   3.490  1.00  0.00     0.036 A 
HETATM   26  C   UNL     1      44.114 -20.074   4.656  1.00  0.00     0.003 A 
HETATM   27  C   UNL     1      43.927 -18.690   4.668  1.00  0.00     0.007 A 
BRANCH  24  28
HETATM   28  O   UNL     1      43.226 -20.786   1.182  1.00  0.00    -0.361 OA
HETATM   29  H   UNL     1      42.401 -21.289   1.274  1.00  0.00     0.217 HD
ENDBRANCH  24  28
ENDBRANCH   1  22
TORSDOF 5
ENDMDL
MODEL 4
REMARK VINA RESULT:      -8.6      3.094      3.505
REMARK  5 active torsions:
REMARK  status: ('A' for Active; 'I' for Inactive)
REMARK    1  A    between atoms: C_3  and  O_4 
REMARK    2  A    between atoms: C_6  and  C_7 
REMARK       I    between atoms: N_10  and  C_11 
REMARK    3  A    between atoms: C_11  and  C_12 
REMARK    4  A    between atoms: C_18  and  C_19 
REMARK    5  A    between atoms: C_19  and  O_20 
ROOT
HETATM    1  C   UNL     1      43.810 -16.803   4.515  1.00  0.00     0.022 C 
HETATM    2  C   UNL     1      43.249 -15.863   3.419  1.00  0.00     0.029 C 
HETATM    3  C   UNL     1      41.732 -15.662   3.474  1.00  0.00     0.127 C 
HETATM    4  N   UNL     1      41.305 -15.361   4.836  1.00  0.00    -0.348 N 
HETATM    5  C   UNL     1      40.553 -14.268   5.255  1.00  0.00     0.253 C 
HETATM    6  O   UNL     1      40.033 -14.199   6.368  1.00  0.00    -0.267 OA
HETATM    7  C   UNL     1      41.651 -16.390   5.808  1.00  0.00     0.127 C 
HETATM    8  C   UNL     1      43.170 -16.500   5.889  1.00  0.00     0.029 C 
ENDROOT
BRANCH   5   9
HETATM    9  C   UNL     1      40.385 -13.091   4.369  1.00  0.00     0.034 A 
HETATM   10  C   UNL     1      39.259 -13.053   3.534  1.00  0.00     0.051 A 
HETATM   11  C   UNL     1      39.022 -11.889   2.792  1.00  0.00     0.086 A 
HETATM   12  C   UNL     1      39.901 -10.816   2.898  1.00  0.00     0.062 A 
HETATM   13  N   UNL     1      37.988 -11.589   1.939  1.00  0.00    -0.231 NA
HETATM   14  N   UNL     1      39.365  -9.856   2.078  1.00  0.00    -0.341 N 
HETATM   15  C   UNL     1      41.027 -10.824   3.724  1.00  0.00     0.033 A 
HETATM   16  H   UNL     1      39.725  -8.922   1.944  1.00  0.00     0.167 HD
HETATM   17  C   UNL     1      38.211 -10.356   1.529  1.00  0.00     0.128 A 
HETATM   18  C   UNL     1      41.239 -11.983   4.479  1.00  0.00     0.019 A 
BRANCH  17  19
HETATM   19  C   UNL     1      37.324  -9.550   0.652  1.00  0.00     0.242 C 
BRANCH  19  20
HETATM   20  O   UNL     1      36.003  -9.694   1.156  1.00  0.00    -0.393 OA
HETATM   21  H   UNL     1      35.966  -9.128   1.953  1.00  0.00     0.209 HD
ENDBRANCH  19  20
ENDBRANCH  17  19
ENDBRANCH   5   9
BRANCH   1  22
HETATM   22  C   UNL     1      43.812 -18.298   4.215  1.00  0.00    -0.051 A 
HETATM   23  C   UNL     1      43.658 -18.841   2.933  1.00  0.00     0.044 A 
HETATM   24  C   UNL     1      43.686 -20.222   2.741  1.00  0.00     0.066 A 
HETATM   25  C   UNL     1      43.868 -21.095   3.807  1.00  0.00     0.036 A 
HETATM   26  C   UNL     1      44.029 -20.575   5.087  1.00  0.00     0.003 A 
HETATM   27  C   UNL     1      44.004 -19.193   5.286  1.00  0.00     0.007 A 
BRANCH  24  28
HETATM   28  O   UNL     1      43.534 -20.685   1.467  1.00  0.00    -0.361 OA
HETATM   29  H   UNL     1      43.493 -21.655   1.495  1.00  0.00     0.217 HD
ENDBRANCH  24  28
ENDBRANCH   1  22
TORSDOF 5
ENDMDL
MODEL 5
REMARK VINA RESULT:      -8.5      5.279      9.324
REMARK  5 active torsions:
REMARK  status: ('A' for Active; 'I' for Inactive)
REMARK    1  A    between atoms: C_3  and  O_4 
REMARK    2  A    between atoms: C_6  and  C_7 
REMARK       I    between atoms: N_10  and  C_11 
REMARK    3  A    between atoms: C_11  and  C_12 
REMARK    4  A    between atoms: C_18  and  C_19 
REMARK    5  A    between atoms: C_19  and  O_20 
ROOT
HETATM    1  C   UNL     1      44.213 -10.921   6.607  1.00  0.00     0.022 C 
HETATM    2  C   UNL     1      44.732 -12.378   6.532  1.00  0.00     0.029 C 
HETATM    3  C   UNL     1      43.654 -13.444   6.745  1.00  0.00     0.127 C 
HETATM    4  N   UNL     1      42.479 -13.155   5.931  1.00  0.00    -0.348 N 
HETATM    5  C   UNL     1      41.859 -14.008   5.023  1.00  0.00     0.253 C 
HETATM    6  O   UNL     1      40.745 -13.787   4.549  1.00  0.00    -0.267 OA
HETATM    7  C   UNL     1      41.877 -11.855   6.199  1.00  0.00     0.127 C 
HETATM    8  C   UNL     1      42.880 -10.764   5.841  1.00  0.00     0.029 C 
ENDROOT
BRANCH   5   9
HETATM    9  C   UNL     1      42.556 -15.224   4.543  1.00  0.00     0.034 A 
HETATM   10  C   UNL     1      42.785 -16.258   5.463  1.00  0.00     0.051 A 
HETATM   11  C   UNL     1      43.323 -17.461   4.990  1.00  0.00     0.086 A 
HETATM   12  C   UNL     1      43.617 -17.597   3.638  1.00  0.00     0.062 A 
HETATM   13  N   UNL     1      43.606 -18.620   5.670  1.00  0.00    -0.231 NA
HETATM   14  N   UNL     1      44.090 -18.880   3.522  1.00  0.00    -0.341 N 
HETATM   15  C   UNL     1      43.397 -16.588   2.698  1.00  0.00     0.033 A 
HETATM   16  H   UNL     1      44.364 -19.335   2.662  1.00  0.00     0.167 HD
HETATM   17  C   UNL     1      44.058 -19.464   4.763  1.00  0.00     0.128 A 
HETATM   18  C   UNL     1      42.836 -15.400   3.178  1.00  0.00     0.019 A 
BRANCH  17  19
HETATM   19  C   UNL     1      44.424 -20.885   4.991  1.00  0.00     0.242 C 
BRANCH  19  20
HETATM   20  O   UNL     1      44.106 -21.589   3.799  1.00  0.00    -0.393 OA
HETATM   21  H   UNL     1      43.961 -22.517   4.076  1.00  0.00     0.209 HD
ENDBRANCH  19  20
ENDBRANCH  17  19
ENDBRANCH   5   9
BRANCH   1  22
HETATM   22  C   UNL     1      44.147 -10.276   7.987  1.00  0.00    -0.051 A 
HETATM   23  C   UNL     1      43.035  -9.579   8.474  1.00  0.00     0.044 A 
HETATM   24  C   UNL     1      43.050  -9.031   9.756  1.00  0.00     0.066 A 
HETATM   25  C   UNL     1      44.158  -9.159  10.584  1.00  0.00     0.036 A 
HETATM   26  C   UNL     1      45.271  -9.854  10.121  1.00  0.00     0.003 A 
HETATM   27  C   UNL     1      45.263 -10.408   8.839  1.00  0.00     0.007 A 
BRANCH  24  28
HETATM   28  O   UNL     1      41.932  -8.366  10.171  1.00  0.00    -0.361 OA
HETATM   29  H   UNL     1      42.121  -7.951  11.029  1.00  0.00     0.217 HD
ENDBRANCH  24  28
ENDBRANCH   1  22
TORSDOF 5
ENDMDL
MODEL 6
REMARK VINA RESULT:      -8.2      2.920      8.580
REMARK  5 active torsions:
REMARK  status: ('A' for Active; 'I' for Inactive)
REMARK    1  A    between atoms: C_3  and  O_4 
REMARK    2  A    between atoms: C_6  and  C_7 
REMARK       I    between atoms: N_10  and  C_11 
REMARK    3  A    between atoms: C_11  and  C_12 
REMARK    4  A    between atoms: C_18  and  C_19 
REMARK    5  A    between atoms: C_19  and  O_20 
ROOT
HETATM    1  C   UNL     1      39.519 -13.324   1.183  1.00  0.00     0.022 C 
HETATM    2  C   UNL     1      39.961 -14.756   1.573  1.00  0.00     0.029 C 
HETATM    3  C   UNL     1      41.470 -14.918   1.776  1.00  0.00     0.127 C 
HETATM    4  N   UNL     1      41.990 -13.850   2.622  1.00  0.00    -0.348 N 
HETATM    5  C   UNL     1      42.735 -13.994   3.789  1.00  0.00     0.253 C 
HETATM    6  O   UNL     1      43.336 -13.061   4.319  1.00  0.00    -0.267 OA
HETATM    7  C   UNL     1      41.755 -12.510   2.099  1.00  0.00     0.127 C 
HETATM    8  C   UNL     1      40.251 -12.263   2.036  1.00  0.00     0.029 C 
ENDROOT
BRANCH   5   9
HETATM    9  C   UNL     1      42.794 -15.303   4.482  1.00  0.00     0.034 A 
HETATM   10  C   UNL     1      43.304 -16.400   3.773  1.00  0.00     0.051 A 
HETATM   11  C   UNL     1      43.487 -17.607   4.459  1.00  0.00     0.086 A 
HETATM   12  C   UNL     1      43.158 -17.687   5.808  1.00  0.00     0.062 A 
HETATM   13  N   UNL     1      43.994 -18.801   4.010  1.00  0.00    -0.231 NA
HETATM   14  N   UNL     1      43.482 -18.972   6.161  1.00  0.00    -0.341 N 
HETATM   15  C   UNL     1      42.652 -16.611   6.541  1.00  0.00     0.033 A 
HETATM   16  H   UNL     1      43.410 -19.369   7.087  1.00  0.00     0.167 HD
HETATM   17  C   UNL     1      43.991 -19.606   5.054  1.00  0.00     0.128 A 
HETATM   18  C   UNL     1      42.497 -15.404   5.851  1.00  0.00     0.019 A 
BRANCH  17  19
HETATM   19  C   UNL     1      44.523 -20.991   5.097  1.00  0.00     0.242 C 
BRANCH  19  20
HETATM   20  O   UNL     1      44.173 -21.606   3.864  1.00  0.00    -0.393 OA
HETATM   21  H   UNL     1      43.605 -20.957   3.402  1.00  0.00     0.209 HD
ENDBRANCH  19  20
ENDBRANCH  17  19
ENDBRANCH   5   9
BRANCH   1  22
HETATM   22  C   UNL     1      39.544 -12.967  -0.299  1.00  0.00    -0.051 A 
HETATM   23  C   UNL     1      40.478 -13.473  -1.211  1.00  0.00     0.044 A 
HETATM   24  C   UNL     1      40.424 -13.107  -2.556  1.00  0.00     0.066 A 
HETATM   25  C   UNL     1      39.448 -12.238  -3.029  1.00  0.00     0.036 A 
HETATM   26  C   UNL     1      38.506 -11.730  -2.139  1.00  0.00     0.003 A 
HETATM   27  C   UNL     1      38.554 -12.094  -0.792  1.00  0.00     0.007 A 
BRANCH  24  28
HETATM   28  O   UNL     1      41.361 -13.638  -3.393  1.00  0.00    -0.361 OA
HETATM   29  H   UNL     1      41.146 -14.573  -3.544  1.00  0.00     0.217 HD
ENDBRANCH  24  28
ENDBRANCH   1  22
TORSDOF 5
ENDMDL
MODEL 7
REMARK VINA RESULT:      -7.8      4.339      7.231
REMARK  5 active torsions:
REMARK  status: ('A' for Active; 'I' for Inactive)
REMARK    1  A    between atoms: C_3  and  O_4 
REMARK    2  A    between atoms: C_6  and  C_7 
REMARK       I    between atoms: N_10  and  C_11 
REMARK    3  A    between atoms: C_11  and  C_12 
REMARK    4  A    between atoms: C_18  and  C_19 
REMARK    5  A    between atoms: C_19  and  O_20 
ROOT
HETATM    1  C   UNL     1      41.044 -13.671   0.408  1.00  0.00     0.022 C 
HETATM    2  C   UNL     1      41.228 -12.471   1.369  1.00  0.00     0.029 C 
HETATM    3  C   UNL     1      40.396 -12.556   2.652  1.00  0.00     0.127 C 
HETATM    4  N   UNL     1      40.529 -13.874   3.262  1.00  0.00    -0.348 N 
HETATM    5  C   UNL     1      40.910 -14.155   4.571  1.00  0.00     0.253 C 
HETATM    6  O   UNL     1      40.776 -15.265   5.084  1.00  0.00    -0.267 OA
HETATM    7  C   UNL     1      40.122 -14.973   2.396  1.00  0.00     0.127 C 
HETATM    8  C   UNL     1      41.043 -15.010   1.181  1.00  0.00     0.029 C 
ENDROOT
BRANCH   5   9
HETATM    9  C   UNL     1      41.555 -13.112   5.403  1.00  0.00     0.034 A 
HETATM   10  C   UNL     1      42.932 -13.222   5.645  1.00  0.00     0.051 A 
HETATM   11  C   UNL     1      43.575 -12.175   6.317  1.00  0.00     0.086 A 
HETATM   12  C   UNL     1      42.839 -11.068   6.727  1.00  0.00     0.062 A 
HETATM   13  N   UNL     1      44.901 -12.026   6.642  1.00  0.00    -0.231 NA
HETATM   14  N   UNL     1      43.764 -10.243   7.313  1.00  0.00    -0.341 N 
HETATM   15  C   UNL     1      41.468 -10.929   6.497  1.00  0.00     0.033 A 
HETATM   16  H   UNL     1      43.585  -9.323   7.690  1.00  0.00     0.167 HD
HETATM   17  C   UNL     1      44.993 -10.851   7.233  1.00  0.00     0.128 A 
HETATM   18  C   UNL     1      40.842 -11.970   5.802  1.00  0.00     0.019 A 
BRANCH  17  19
HETATM   19  C   UNL     1      46.243 -10.198   7.698  1.00  0.00     0.242 C 
BRANCH  19  20
HETATM   20  O   UNL     1      47.317 -10.827   7.011  1.00  0.00    -0.393 OA
HETATM   21  H   UNL     1      47.795 -10.103   6.559  1.00  0.00     0.209 HD
ENDBRANCH  19  20
ENDBRANCH  17  19
ENDBRANCH   5   9
BRANCH   1  22
HETATM   22  C   UNL     1      39.891 -13.597  -0.586  1.00  0.00    -0.051 A 
HETATM   23  C   UNL     1      39.526 -14.641  -1.445  1.00  0.00     0.044 A 
HETATM   24  C   UNL     1      38.447 -14.497  -2.316  1.00  0.00     0.066 A 
HETATM   25  C   UNL     1      37.704 -13.324  -2.358  1.00  0.00     0.036 A 
HETATM   26  C   UNL     1      38.046 -12.276  -1.508  1.00  0.00     0.003 A 
HETATM   27  C   UNL     1      39.125 -12.414  -0.631  1.00  0.00     0.007 A 
BRANCH  24  28
HETATM   28  O   UNL     1      38.143 -15.554  -3.124  1.00  0.00    -0.361 OA
HETATM   29  H   UNL     1      37.827 -16.286  -2.568  1.00  0.00     0.217 HD
ENDBRANCH  24  28
ENDBRANCH   1  22
TORSDOF 5
ENDMDL
MODEL 8
REMARK VINA RESULT:      -7.6      7.006      9.061
REMARK  5 active torsions:
REMARK  status: ('A' for Active; 'I' for Inactive)
REMARK    1  A    between atoms: C_3  and  O_4 
REMARK    2  A    between atoms: C_6  and  C_7 
REMARK       I    between atoms: N_10  and  C_11 
REMARK    3  A    between atoms: C_11  and  C_12 
REMARK    4  A    between atoms: C_18  and  C_19 
REMARK    5  A    between atoms: C_19  and  O_20 
ROOT
HETATM    1  C   UNL     1      42.563 -12.494   4.697  1.00  0.00     0.022 C 
HETATM    2  C   UNL     1      42.287 -12.608   6.217  1.00  0.00     0.029 C 
HETATM    3  C   UNL     1      43.544 -12.574   7.091  1.00  0.00     0.127 C 
HETATM    4  N   UNL     1      44.415 -11.474   6.693  1.00  0.00    -0.348 N 
HETATM    5  C   UNL     1      44.920 -10.468   7.512  1.00  0.00     0.253 C 
HETATM    6  O   UNL     1      45.829  -9.715   7.164  1.00  0.00    -0.267 OA
HETATM    7  C   UNL     1      44.845 -11.531   5.302  1.00  0.00     0.127 C 
HETATM    8  C   UNL     1      43.620 -11.405   4.402  1.00  0.00     0.029 C 
ENDROOT
BRANCH   5   9
HETATM    9  C   UNL     1      44.334 -10.228   8.851  1.00  0.00     0.034 A 
HETATM   10  C   UNL     1      42.996  -9.814   8.918  1.00  0.00     0.051 A 
HETATM   11  C   UNL     1      42.394  -9.712  10.179  1.00  0.00     0.086 A 
HETATM   12  C   UNL     1      43.131 -10.016  11.318  1.00  0.00     0.062 A 
HETATM   13  N   UNL     1      41.107  -9.366  10.509  1.00  0.00    -0.231 NA
HETATM   14  N   UNL     1      42.246  -9.842  12.351  1.00  0.00    -0.341 N 
HETATM   15  C   UNL     1      44.463 -10.435  11.283  1.00  0.00     0.033 A 
HETATM   16  H   UNL     1      42.434 -10.016  13.329  1.00  0.00     0.167 HD
HETATM   17  C   UNL     1      41.039  -9.460  11.823  1.00  0.00     0.128 A 
HETATM   18  C   UNL     1      45.046 -10.557  10.016  1.00  0.00     0.019 A 
BRANCH  17  19
HETATM   19  C   UNL     1      39.824  -9.264  12.654  1.00  0.00     0.242 C 
BRANCH  19  20
HETATM   20  O   UNL     1      38.951 -10.350  12.373  1.00  0.00    -0.393 OA
HETATM   21  H   UNL     1      38.890 -10.388  11.397  1.00  0.00     0.209 HD
ENDBRANCH  19  20
ENDBRANCH  17  19
ENDBRANCH   5   9
BRANCH   1  22
HETATM   22  C   UNL     1      42.865 -13.786   3.946  1.00  0.00    -0.051 A 
HETATM   23  C   UNL     1      42.876 -15.054   4.540  1.00  0.00     0.044 A 
HETATM   24  C   UNL     1      43.149 -16.190   3.778  1.00  0.00     0.066 A 
HETATM   25  C   UNL     1      43.412 -16.100   2.417  1.00  0.00     0.036 A 
HETATM   26  C   UNL     1      43.399 -14.850   1.807  1.00  0.00     0.003 A 
HETATM   27  C   UNL     1      43.125 -13.709   2.563  1.00  0.00     0.007 A 
BRANCH  24  28
HETATM   28  O   UNL     1      43.142 -17.395   4.418  1.00  0.00    -0.361 OA
HETATM   29  H   UNL     1      42.288 -17.500   4.870  1.00  0.00     0.217 HD
ENDBRANCH  24  28
ENDBRANCH   1  22
TORSDOF 5
ENDMDL
MODEL 9
REMARK VINA RESULT:      -7.6     15.339     17.323
REMARK  5 active torsions:
REMARK  status: ('A' for Active; 'I' for Inactive)
REMARK    1  A    between atoms: C_3  and  O_4 
REMARK    2  A    between atoms: C_6  and  C_7 
REMARK       I    between atoms: N_10  and  C_11 
REMARK    3  A    between atoms: C_11  and  C_12 
REMARK    4  A    between atoms: C_18  and  C_19 
REMARK    5  A    between atoms: C_19  and  O_20 
ROOT
HETATM    1  C   UNL     1      50.568 -30.001   3.235  1.00  0.00     0.022 C 
HETATM    2  C   UNL     1      50.194 -30.335   1.770  1.00  0.00     0.029 C 
HETATM    3  C   UNL     1      48.736 -30.762   1.572  1.00  0.00     0.127 C 
HETATM    4  N   UNL     1      47.835 -29.840   2.254  1.00  0.00    -0.348 N 
HETATM    5  C   UNL     1      46.760 -29.154   1.696  1.00  0.00     0.253 C 
HETATM    6  O   UNL     1      45.907 -28.581   2.373  1.00  0.00    -0.267 OA
HETATM    7  C   UNL     1      48.074 -29.728   3.687  1.00  0.00     0.127 C 
HETATM    8  C   UNL     1      49.468 -29.151   3.911  1.00  0.00     0.029 C 
ENDROOT
BRANCH   5   9
HETATM    9  C   UNL     1      46.624 -29.045   0.224  1.00  0.00     0.034 A 
HETATM   10  C   UNL     1      45.654 -29.836  -0.407  1.00  0.00     0.051 A 
HETATM   11  C   UNL     1      45.428 -29.644  -1.775  1.00  0.00     0.086 A 
HETATM   12  C   UNL     1      46.165 -28.688  -2.466  1.00  0.00     0.062 A 
HETATM   13  N   UNL     1      44.524 -30.258  -2.608  1.00  0.00    -0.231 NA
HETATM   14  N   UNL     1      45.679 -28.745  -3.747  1.00  0.00    -0.341 N 
HETATM   15  C   UNL     1      47.135 -27.883  -1.864  1.00  0.00     0.033 A 
HETATM   16  H   UNL     1      45.962 -28.153  -4.515  1.00  0.00     0.167 HD
HETATM   17  C   UNL     1      44.687 -29.693  -3.789  1.00  0.00     0.128 A 
HETATM   18  C   UNL     1      47.334 -28.067  -0.491  1.00  0.00     0.019 A 
BRANCH  17  19
HETATM   19  C   UNL     1      43.882 -29.959  -5.007  1.00  0.00     0.242 C 
BRANCH  19  20
HETATM   20  O   UNL     1      44.796 -30.317  -6.036  1.00  0.00    -0.393 OA
HETATM   21  H   UNL     1      45.420 -30.946  -5.622  1.00  0.00     0.209 HD
ENDBRANCH  19  20
ENDBRANCH  17  19
ENDBRANCH   5   9
BRANCH   1  22
HETATM   22  C   UNL     1      51.007 -31.160   4.122  1.00  0.00    -0.051 A 
HETATM   23  C   UNL     1      51.015 -32.499   3.716  1.00  0.00     0.044 A 
HETATM   24  C   UNL     1      51.446 -33.500   4.586  1.00  0.00     0.066 A 
HETATM   25  C   UNL     1      51.880 -33.202   5.872  1.00  0.00     0.036 A 
HETATM   26  C   UNL     1      51.886 -31.876   6.293  1.00  0.00     0.003 A 
HETATM   27  C   UNL     1      51.458 -30.868   5.426  1.00  0.00     0.007 A 
BRANCH  24  28
HETATM   28  O   UNL     1      51.431 -34.785   4.127  1.00  0.00    -0.361 OA
HETATM   29  H   UNL     1      50.946 -34.806   3.286  1.00  0.00     0.217 HD
ENDBRANCH  24  28
ENDBRANCH   1  22
TORSDOF 5
ENDMDL
MODEL 10
REMARK VINA RESULT:      -7.6      8.169     11.044
REMARK  5 active torsions:
REMARK  status: ('A' for Active; 'I' for Inactive)
REMARK    1  A    between atoms: C_3  and  O_4 
REMARK    2  A    between atoms: C_6  and  C_7 
REMARK       I    between atoms: N_10  and  C_11 
REMARK    3  A    between atoms: C_11  and  C_12 
REMARK    4  A    between atoms: C_18  and  C_19 
REMARK    5  A    between atoms: C_19  and  O_20 
ROOT
HETATM    1  C   UNL     1      43.375  -9.663  11.130  1.00  0.00     0.022 C 
HETATM    2  C   UNL     1      42.560 -10.168   9.913  1.00  0.00     0.029 C 
HETATM    3  C   UNL     1      43.134  -9.755   8.554  1.00  0.00     0.127 C 
HETATM    4  N   UNL     1      44.567 -10.019   8.502  1.00  0.00    -0.348 N 
HETATM    5  C   UNL     1      45.247 -10.764   7.543  1.00  0.00     0.253 C 
HETATM    6  O   UNL     1      46.471 -10.751   7.428  1.00  0.00    -0.267 OA
HETATM    7  C   UNL     1      45.335  -9.333   9.534  1.00  0.00     0.127 C 
HETATM    8  C   UNL     1      44.892  -9.846  10.900  1.00  0.00     0.029 C 
ENDROOT
BRANCH   5   9
HETATM    9  C   UNL     1      44.503 -11.665   6.630  1.00  0.00     0.034 A 
HETATM   10  C   UNL     1      43.896 -12.803   7.180  1.00  0.00     0.051 A 
HETATM   11  C   UNL     1      43.083 -13.588   6.353  1.00  0.00     0.086 A 
HETATM   12  C   UNL     1      42.904 -13.225   5.023  1.00  0.00     0.062 A 
HETATM   13  N   UNL     1      42.360 -14.717   6.652  1.00  0.00    -0.231 NA
HETATM   14  N   UNL     1      42.048 -14.174   4.524  1.00  0.00    -0.341 N 
HETATM   15  C   UNL     1      43.492 -12.096   4.448  1.00  0.00     0.033 A 
HETATM   16  H   UNL     1      41.668 -14.197   3.589  1.00  0.00     0.167 HD
HETATM   17  C   UNL     1      41.737 -15.046   5.538  1.00  0.00     0.128 A 
HETATM   18  C   UNL     1      44.282 -11.306   5.291  1.00  0.00     0.019 A 
BRANCH  17  19
HETATM   19  C   UNL     1      40.764 -16.155   5.372  1.00  0.00     0.242 C 
BRANCH  19  20
HETATM   20  O   UNL     1      39.741 -15.955   6.338  1.00  0.00    -0.393 OA
HETATM   21  H   UNL     1      39.318 -16.830   6.454  1.00  0.00     0.209 HD
ENDBRANCH  19  20
ENDBRANCH  17  19
ENDBRANCH   5   9
BRANCH   1  22
HETATM   22  C   UNL     1      43.051  -8.269  11.653  1.00  0.00    -0.051 A 
HETATM   23  C   UNL     1      42.604  -7.213  10.849  1.00  0.00     0.044 A 
HETATM   24  C   UNL     1      42.316  -5.969  11.409  1.00  0.00     0.066 A 
HETATM   25  C   UNL     1      42.459  -5.740  12.772  1.00  0.00     0.036 A 
HETATM   26  C   UNL     1      42.895  -6.778  13.590  1.00  0.00     0.003 A 
HETATM   27  C   UNL     1      43.184  -8.027  13.036  1.00  0.00     0.007 A 
BRANCH  24  28
HETATM   28  O   UNL     1      41.882  -4.984  10.571  1.00  0.00    -0.361 OA
HETATM   29  H   UNL     1      42.533  -4.877   9.858  1.00  0.00     0.217 HD
ENDBRANCH  24  28
ENDBRANCH   1  22
TORSDOF 5
ENDMDL
