MODEL 1
REMARK VINA RESULT:      -8.6      0.000      0.000
REMARK  6 active torsions:
REMARK  status: ('A' for Active; 'I' for Inactive)
REMARK    1  A    between atoms: C_2  and  C_3 
REMARK    2  A    between atoms: C_7  and  C_8 
REMARK       I    between atoms: C_8  and  N_9 
REMARK    3  A    between atoms: N_9  and  C_10 
REMARK    4  A    between atoms: C_10  and  C_11 
REMARK    5  A    between atoms: C_11  and  N_12 
REMARK    6  A    between atoms: C_15  and  C_16 
ROOT
HETATM    1  C   UNL     1      44.048 -12.747   6.492  1.00  0.00     0.150 C 
ENDROOT
BRANCH   1   2
HETATM    2  N   UNL     1      43.774 -11.958   7.670  1.00  0.00    -0.354 N 
HETATM    3  C   UNL     1      44.695 -11.090   8.223  1.00  0.00     0.272 C 
HETATM    4  O   UNL     1      45.792 -10.891   7.707  1.00  0.00    -0.266 OA
HETATM    5  H   UNL     1      42.942 -12.104   8.244  1.00  0.00     0.162 HD
BRANCH   3   6
HETATM    6  C   UNL     1      44.209 -10.419   9.438  1.00  0.00     0.152 A 
HETATM    7  N   UNL     1      43.929 -11.132  10.549  1.00  0.00    -0.169 NA
HETATM    8  N   UNL     1      43.516 -10.209  11.433  1.00  0.00    -0.281 N 
HETATM    9  C   UNL     1      43.491  -8.938  10.933  1.00  0.00     0.036 A 
HETATM   10  H   UNL     1      43.255 -10.515  12.366  1.00  0.00     0.189 HD
HETATM   11  C   UNL     1      43.942  -9.030   9.629  1.00  0.00    -0.002 A 
HETATM   12  C   UNL     1      44.104  -7.937   8.638  1.00  0.00     0.053 C 
BRANCH   9  13
HETATM   13  C   UNL     1      43.035  -7.779  11.753  1.00  0.00     0.055 C 
HETATM   14  C   UNL     1      43.171  -8.062  13.241  1.00  0.00     0.011 C 
ENDBRANCH   9  13
ENDBRANCH   3   6
ENDBRANCH   1   2
BRANCH   1  15
HETATM   15  C   UNL     1      42.771 -13.295   5.828  1.00  0.00     0.254 C 
BRANCH  15  16
HETATM   16  N   UNL     1      41.907 -14.073   6.805  1.00  0.00    -0.069 N 
HETATM   17  H   UNL     1      41.949 -13.587   7.711  1.00  0.00     0.280 HD
HETATM   18  C   UNL     1      42.442 -15.486   7.027  1.00  0.00     0.244 C 
HETATM   19  C   UNL     1      41.527 -16.401   6.201  1.00  0.00     0.046 C 
HETATM   20  C   UNL     1      40.179 -15.722   6.467  1.00  0.00     0.039 C 
HETATM   21  C   UNL     1      40.463 -14.229   6.377  1.00  0.00     0.235 C 
BRANCH  19  22
HETATM   22  C   UNL     1      41.988 -16.542   4.751  1.00  0.00    -0.046 A 
HETATM   23  C   UNL     1      43.136 -17.306   4.418  1.00  0.00    -0.055 A 
HETATM   24  C   UNL     1      43.950 -18.087   5.421  1.00  0.00     0.049 C 
HETATM   25  C   UNL     1      43.586 -17.346   3.084  1.00  0.00     0.007 A 
HETATM   26  C   UNL     1      42.892 -16.696   2.069  1.00  0.00     0.001 A 
HETATM   27  C   UNL     1      41.729 -16.006   2.372  1.00  0.00     0.001 A 
HETATM   28  C   UNL     1      41.280 -15.936   3.693  1.00  0.00     0.008 A 
ENDBRANCH  19  22
ENDBRANCH  15  16
ENDBRANCH   1  15
TORSDOF 6
ENDMDL
MODEL 2
REMARK VINA RESULT:      -8.1      1.743      2.823
REMARK  6 active torsions:
REMARK  status: ('A' for Active; 'I' for Inactive)
REMARK    1  A    between atoms: C_2  and  C_3 
REMARK    2  A    between atoms: C_7  and  C_8 
REMARK       I    between atoms: C_8  and  N_9 
REMARK    3  A    between atoms: N_9  and  C_10 
REMARK    4  A    between atoms: C_10  and  C_11 
REMARK    5  A    between atoms: C_11  and  N_12 
REMARK    6  A    between atoms: C_15  and  C_16 
ROOT
HETATM    1  C   UNL     1      43.573 -11.892   3.590  1.00  0.00     0.150 C 
ENDROOT
BRANCH   1   2
HETATM    2  N   UNL     1      43.608 -11.591   5.002  1.00  0.00    -0.354 N 
HETATM    3  C   UNL     1      44.778 -11.306   5.679  1.00  0.00     0.272 C 
HETATM    4  O   UNL     1      45.861 -11.232   5.104  1.00  0.00    -0.266 OA
HETATM    5  H   UNL     1      42.796 -11.715   5.609  1.00  0.00     0.162 HD
BRANCH   3   6
HETATM    6  C   UNL     1      44.577 -11.064   7.116  1.00  0.00     0.152 A 
HETATM    7  N   UNL     1      43.524 -11.609   7.761  1.00  0.00    -0.169 NA
HETATM    8  N   UNL     1      43.660 -11.178   9.026  1.00  0.00    -0.281 N 
HETATM    9  C   UNL     1      44.736 -10.359   9.218  1.00  0.00     0.036 A 
HETATM   10  H   UNL     1      42.974 -11.474   9.714  1.00  0.00     0.189 HD
HETATM   11  C   UNL     1      45.367 -10.262   7.993  1.00  0.00    -0.002 A 
HETATM   12  C   UNL     1      46.589  -9.489   7.650  1.00  0.00     0.053 C 
BRANCH   9  13
HETATM   13  C   UNL     1      45.039  -9.757  10.549  1.00  0.00     0.055 C 
HETATM   14  C   UNL     1      43.852  -8.977  11.091  1.00  0.00     0.011 C 
ENDBRANCH   9  13
ENDBRANCH   3   6
ENDBRANCH   1   2
BRANCH   1  15
HETATM   15  C   UNL     1      43.115 -13.334   3.298  1.00  0.00     0.254 C 
BRANCH  15  16
HETATM   16  N   UNL     1      41.608 -13.435   3.141  1.00  0.00    -0.069 N 
HETATM   17  H   UNL     1      41.227 -12.481   3.195  1.00  0.00     0.280 HD
HETATM   18  C   UNL     1      40.977 -14.237   4.277  1.00  0.00     0.244 C 
HETATM   19  C   UNL     1      40.671 -15.618   3.678  1.00  0.00     0.046 C 
HETATM   20  C   UNL     1      40.193 -15.192   2.286  1.00  0.00     0.039 C 
HETATM   21  C   UNL     1      41.156 -14.094   1.855  1.00  0.00     0.235 C 
BRANCH  19  22
HETATM   22  C   UNL     1      41.858 -16.576   3.769  1.00  0.00    -0.046 A 
HETATM   23  C   UNL     1      42.450 -16.892   5.019  1.00  0.00    -0.055 A 
HETATM   24  C   UNL     1      41.941 -16.385   6.346  1.00  0.00     0.049 C 
HETATM   25  C   UNL     1      43.596 -17.709   5.062  1.00  0.00     0.007 A 
HETATM   26  C   UNL     1      44.129 -18.266   3.904  1.00  0.00     0.001 A 
HETATM   27  C   UNL     1      43.516 -18.022   2.686  1.00  0.00     0.001 A 
HETATM   28  C   UNL     1      42.392 -17.195   2.620  1.00  0.00     0.008 A 
ENDBRANCH  19  22
ENDBRANCH  15  16
ENDBRANCH   1  15
TORSDOF 6
ENDMDL
MODEL 3
REMARK VINA RESULT:      -8.0      2.368      3.843
REMARK  6 active torsions:
REMARK  status: ('A' for Active; 'I' for Inactive)
REMARK    1  A    between atoms: C_2  and  C_3 
REMARK    2  A    between atoms: C_7  and  C_8 
REMARK       I    between atoms: C_8  and  N_9 
REMARK    3  A    between atoms: N_9  and  C_10 
REMARK    4  A    between atoms: C_10  and  C_11 
REMARK    5  A    between atoms: C_11  and  N_12 
REMARK    6  A    between atoms: C_15  and  C_16 
ROOT
HETATM    1  C   UNL     1      42.929 -12.201   3.009  1.00  0.00     0.150 C 
ENDROOT
BRANCH   1   2
HETATM    2  N   UNL     1      43.733 -11.646   4.072  1.00  0.00    -0.354 N 
HETATM    3  C   UNL     1      43.523 -11.943   5.405  1.00  0.00     0.272 C 
HETATM    4  O   UNL     1      42.670 -12.751   5.764  1.00  0.00    -0.266 OA
HETATM    5  H   UNL     1      44.405 -10.893   3.915  1.00  0.00     0.162 HD
BRANCH   3   6
HETATM    6  C   UNL     1      44.440 -11.237   6.312  1.00  0.00     0.152 A 
HETATM    7  N   UNL     1      45.773 -11.422   6.219  1.00  0.00    -0.169 NA
HETATM    8  N   UNL     1      46.279 -10.639   7.186  1.00  0.00    -0.281 N 
HETATM    9  C   UNL     1      45.331  -9.980   7.916  1.00  0.00     0.036 A 
HETATM   10  H   UNL     1      47.288 -10.605   7.303  1.00  0.00     0.189 HD
HETATM   11  C   UNL     1      44.111 -10.340   7.373  1.00  0.00    -0.002 A 
HETATM   12  C   UNL     1      42.756  -9.906   7.798  1.00  0.00     0.053 C 
BRANCH   9  13
HETATM   13  C   UNL     1      45.693  -9.085   9.051  1.00  0.00     0.055 C 
HETATM   14  C   UNL     1      45.383  -9.731  10.392  1.00  0.00     0.011 C 
ENDBRANCH   9  13
ENDBRANCH   3   6
ENDBRANCH   1   2
BRANCH   1  15
HETATM   15  C   UNL     1      43.276 -13.670   2.702  1.00  0.00     0.254 C 
BRANCH  15  16
HETATM   16  N   UNL     1      42.101 -14.423   2.102  1.00  0.00    -0.069 N 
HETATM   17  H   UNL     1      41.697 -13.828   1.366  1.00  0.00     0.280 HD
HETATM   18  C   UNL     1      41.004 -14.668   3.136  1.00  0.00     0.244 C 
HETATM   19  C   UNL     1      41.150 -16.142   3.540  1.00  0.00     0.046 C 
HETATM   20  C   UNL     1      41.476 -16.751   2.172  1.00  0.00     0.039 C 
HETATM   21  C   UNL     1      42.454 -15.778   1.528  1.00  0.00     0.235 C 
BRANCH  19  22
HETATM   22  C   UNL     1      42.153 -16.346   4.675  1.00  0.00    -0.046 A 
HETATM   23  C   UNL     1      41.784 -16.125   6.027  1.00  0.00    -0.055 A 
HETATM   24  C   UNL     1      40.392 -15.747   6.471  1.00  0.00     0.049 C 
HETATM   25  C   UNL     1      42.753 -16.236   7.043  1.00  0.00     0.007 A 
HETATM   26  C   UNL     1      44.059 -16.619   6.755  1.00  0.00     0.001 A 
HETATM   27  C   UNL     1      44.413 -16.906   5.446  1.00  0.00     0.001 A 
HETATM   28  C   UNL     1      43.471 -16.779   4.422  1.00  0.00     0.008 A 
ENDBRANCH  19  22
ENDBRANCH  15  16
ENDBRANCH   1  15
TORSDOF 6
ENDMDL
MODEL 4
REMARK VINA RESULT:      -7.9      4.463      7.915
REMARK  6 active torsions:
REMARK  status: ('A' for Active; 'I' for Inactive)
REMARK    1  A    between atoms: C_2  and  C_3 
REMARK    2  A    between atoms: C_7  and  C_8 
REMARK       I    between atoms: C_8  and  N_9 
REMARK    3  A    between atoms: N_9  and  C_10 
REMARK    4  A    between atoms: C_10  and  C_11 
REMARK    5  A    between atoms: C_11  and  N_12 
REMARK    6  A    between atoms: C_15  and  C_16 
ROOT
HETATM    1  C   UNL     1      41.309 -12.200   4.437  1.00  0.00     0.150 C 
ENDROOT
BRANCH   1   2
HETATM    2  N   UNL     1      41.207 -12.571   3.045  1.00  0.00    -0.354 N 
HETATM    3  C   UNL     1      39.997 -12.715   2.394  1.00  0.00     0.272 C 
HETATM    4  O   UNL     1      38.927 -12.476   2.948  1.00  0.00    -0.266 OA
HETATM    5  H   UNL     1      42.012 -12.891   2.503  1.00  0.00     0.162 HD
BRANCH   3   6
HETATM    6  C   UNL     1      40.135 -13.132   0.990  1.00  0.00     0.152 A 
HETATM    7  N   UNL     1      41.114 -13.986   0.623  1.00  0.00    -0.169 NA
HETATM    8  N   UNL     1      40.939 -14.131  -0.701  1.00  0.00    -0.281 N 
HETATM    9  C   UNL     1      39.910 -13.388  -1.207  1.00  0.00     0.036 A 
HETATM   10  H   UNL     1      41.565 -14.750  -1.207  1.00  0.00     0.189 HD
HETATM   11  C   UNL     1      39.353 -12.722  -0.131  1.00  0.00    -0.002 A 
HETATM   12  C   UNL     1      38.206 -11.779  -0.132  1.00  0.00     0.053 C 
BRANCH   9  13
HETATM   13  C   UNL     1      39.575 -13.393  -2.660  1.00  0.00     0.055 C 
HETATM   14  C   UNL     1      38.472 -14.392  -2.974  1.00  0.00     0.011 C 
ENDBRANCH   9  13
ENDBRANCH   3   6
ENDBRANCH   1   2
BRANCH   1  15
HETATM   15  C   UNL     1      42.304 -13.078   5.218  1.00  0.00     0.254 C 
BRANCH  15  16
HETATM   16  N   UNL     1      41.661 -13.739   6.425  1.00  0.00    -0.069 N 
HETATM   17  H   UNL     1      41.706 -13.069   7.204  1.00  0.00     0.280 HD
HETATM   18  C   UNL     1      42.427 -14.986   6.859  1.00  0.00     0.244 C 
HETATM   19  C   UNL     1      41.598 -16.171   6.344  1.00  0.00     0.046 C 
HETATM   20  C   UNL     1      40.189 -15.639   6.627  1.00  0.00     0.039 C 
HETATM   21  C   UNL     1      40.227 -14.176   6.209  1.00  0.00     0.235 C 
BRANCH  19  22
HETATM   22  C   UNL     1      41.947 -16.556   4.908  1.00  0.00    -0.046 A 
HETATM   23  C   UNL     1      43.174 -17.198   4.598  1.00  0.00    -0.055 A 
HETATM   24  C   UNL     1      44.192 -17.614   5.631  1.00  0.00     0.049 C 
HETATM   25  C   UNL     1      43.506 -17.461   3.255  1.00  0.00     0.007 A 
HETATM   26  C   UNL     1      42.625 -17.157   2.222  1.00  0.00     0.001 A 
HETATM   27  C   UNL     1      41.394 -16.595   2.519  1.00  0.00     0.001 A 
HETATM   28  C   UNL     1      41.057 -16.305   3.843  1.00  0.00     0.008 A 
ENDBRANCH  19  22
ENDBRANCH  15  16
ENDBRANCH   1  15
TORSDOF 6
ENDMDL
MODEL 5
REMARK VINA RESULT:      -7.8      2.299      3.480
REMARK  6 active torsions:
REMARK  status: ('A' for Active; 'I' for Inactive)
REMARK    1  A    between atoms: C_2  and  C_3 
REMARK    2  A    between atoms: C_7  and  C_8 
REMARK       I    between atoms: C_8  and  N_9 
REMARK    3  A    between atoms: N_9  and  C_10 
REMARK    4  A    between atoms: C_10  and  C_11 
REMARK    5  A    between atoms: C_11  and  N_12 
REMARK    6  A    between atoms: C_15  and  C_16 
ROOT
HETATM    1  C   UNL     1      41.082 -14.099   4.301  1.00  0.00     0.150 C 
ENDROOT
BRANCH   1   2
HETATM    2  N   UNL     1      41.517 -13.210   5.351  1.00  0.00    -0.354 N 
HETATM    3  C   UNL     1      42.290 -12.090   5.114  1.00  0.00     0.272 C 
HETATM    4  O   UNL     1      42.606 -11.747   3.977  1.00  0.00    -0.266 OA
HETATM    5  H   UNL     1      41.404 -13.435   6.342  1.00  0.00     0.162 HD
BRANCH   3   6
HETATM    6  C   UNL     1      42.642 -11.353   6.337  1.00  0.00     0.152 A 
HETATM    7  N   UNL     1      41.725 -10.584   6.960  1.00  0.00    -0.169 NA
HETATM    8  N   UNL     1      42.389 -10.074   8.011  1.00  0.00    -0.281 N 
HETATM    9  C   UNL     1      43.698 -10.457   8.076  1.00  0.00     0.036 A 
HETATM   10  H   UNL     1      41.889  -9.459   8.647  1.00  0.00     0.189 HD
HETATM   11  C   UNL     1      43.905 -11.300   7.000  1.00  0.00    -0.002 A 
HETATM   12  C   UNL     1      45.158 -11.991   6.606  1.00  0.00     0.053 C 
BRANCH   9  13
HETATM   13  C   UNL     1      44.607  -9.974   9.155  1.00  0.00     0.055 C 
HETATM   14  C   UNL     1      45.601  -8.950   8.630  1.00  0.00     0.011 C 
ENDBRANCH   9  13
ENDBRANCH   3   6
ENDBRANCH   1   2
BRANCH   1  15
HETATM   15  C   UNL     1      41.705 -15.504   4.411  1.00  0.00     0.254 C 
BRANCH  15  16
HETATM   16  N   UNL     1      42.541 -15.663   5.669  1.00  0.00    -0.069 N 
HETATM   17  H   UNL     1      42.514 -14.766   6.173  1.00  0.00     0.280 HD
HETATM   18  C   UNL     1      44.003 -15.952   5.339  1.00  0.00     0.244 C 
HETATM   19  C   UNL     1      44.185 -17.457   5.582  1.00  0.00     0.046 C 
HETATM   20  C   UNL     1      43.329 -17.617   6.843  1.00  0.00     0.039 C 
HETATM   21  C   UNL     1      42.085 -16.777   6.587  1.00  0.00     0.235 C 
BRANCH  19  22
HETATM   22  C   UNL     1      43.827 -18.298   4.358  1.00  0.00    -0.046 A 
HETATM   23  C   UNL     1      43.899 -19.714   4.396  1.00  0.00    -0.055 A 
HETATM   24  C   UNL     1      44.257 -20.509   5.629  1.00  0.00     0.049 C 
HETATM   25  C   UNL     1      43.648 -20.459   3.227  1.00  0.00     0.007 A 
HETATM   26  C   UNL     1      43.270 -19.835   2.043  1.00  0.00     0.001 A 
HETATM   27  C   UNL     1      43.127 -18.457   2.013  1.00  0.00     0.001 A 
HETATM   28  C   UNL     1      43.395 -17.700   3.157  1.00  0.00     0.008 A 
ENDBRANCH  19  22
ENDBRANCH  15  16
ENDBRANCH   1  15
TORSDOF 6
ENDMDL
MODEL 6
REMARK VINA RESULT:      -7.5      1.822      3.202
REMARK  6 active torsions:
REMARK  status: ('A' for Active; 'I' for Inactive)
REMARK    1  A    between atoms: C_2  and  C_3 
REMARK    2  A    between atoms: C_7  and  C_8 
REMARK       I    between atoms: C_8  and  N_9 
REMARK    3  A    between atoms: N_9  and  C_10 
REMARK    4  A    between atoms: C_10  and  C_11 
REMARK    5  A    between atoms: C_11  and  N_12 
REMARK    6  A    between atoms: C_15  and  C_16 
ROOT
HETATM    1  C   UNL     1      42.815 -12.615   3.941  1.00  0.00     0.150 C 
ENDROOT
BRANCH   1   2
HETATM    2  N   UNL     1      42.811 -12.051   5.271  1.00  0.00    -0.354 N 
HETATM    3  C   UNL     1      43.890 -11.372   5.802  1.00  0.00     0.272 C 
HETATM    4  O   UNL     1      44.907 -11.153   5.147  1.00  0.00    -0.266 OA
HETATM    5  H   UNL     1      42.069 -12.246   5.946  1.00  0.00     0.162 HD
BRANCH   3   6
HETATM    6  C   UNL     1      43.672 -10.916   7.183  1.00  0.00     0.152 A 
HETATM    7  N   UNL     1      44.230 -11.577   8.218  1.00  0.00    -0.169 NA
HETATM    8  N   UNL     1      43.819 -10.895   9.300  1.00  0.00    -0.281 N 
HETATM    9  C   UNL     1      42.999  -9.841   9.009  1.00  0.00     0.036 A 
HETATM   10  H   UNL     1      44.128 -11.207  10.215  1.00  0.00     0.189 HD
HETATM   11  C   UNL     1      42.881  -9.817   7.632  1.00  0.00    -0.002 A 
HETATM   12  C   UNL     1      42.099  -8.869   6.797  1.00  0.00     0.053 C 
BRANCH   9  13
HETATM   13  C   UNL     1      42.417  -8.979  10.077  1.00  0.00     0.055 C 
HETATM   14  C   UNL     1      42.335  -9.716  11.405  1.00  0.00     0.011 C 
ENDBRANCH   9  13
ENDBRANCH   3   6
ENDBRANCH   1   2
BRANCH   1  15
HETATM   15  C   UNL     1      41.723 -13.682   3.742  1.00  0.00     0.254 C 
BRANCH  15  16
HETATM   16  N   UNL     1      41.810 -14.342   2.377  1.00  0.00    -0.069 N 
HETATM   17  H   UNL     1      41.324 -13.730   1.707  1.00  0.00     0.280 HD
HETATM   18  C   UNL     1      41.093 -15.690   2.357  1.00  0.00     0.244 C 
HETATM   19  C   UNL     1      42.208 -16.743   2.427  1.00  0.00     0.046 C 
HETATM   20  C   UNL     1      43.245 -16.079   1.515  1.00  0.00     0.039 C 
HETATM   21  C   UNL     1      43.221 -14.605   1.897  1.00  0.00     0.235 C 
BRANCH  19  22
HETATM   22  C   UNL     1      42.618 -17.074   3.861  1.00  0.00    -0.046 A 
HETATM   23  C   UNL     1      43.579 -18.080   4.135  1.00  0.00    -0.055 A 
HETATM   24  C   UNL     1      44.320 -18.852   3.071  1.00  0.00     0.049 C 
HETATM   25  C   UNL     1      43.872 -18.422   5.470  1.00  0.00     0.007 A 
HETATM   26  C   UNL     1      43.280 -17.749   6.533  1.00  0.00     0.001 A 
HETATM   27  C   UNL     1      42.393 -16.715   6.277  1.00  0.00     0.001 A 
HETATM   28  C   UNL     1      42.072 -16.377   4.960  1.00  0.00     0.008 A 
ENDBRANCH  19  22
ENDBRANCH  15  16
ENDBRANCH   1  15
TORSDOF 6
ENDMDL
MODEL 7
REMARK VINA RESULT:      -7.4      5.683      8.859
REMARK  6 active torsions:
REMARK  status: ('A' for Active; 'I' for Inactive)
REMARK    1  A    between atoms: C_2  and  C_3 
REMARK    2  A    between atoms: C_7  and  C_8 
REMARK       I    between atoms: C_8  and  N_9 
REMARK    3  A    between atoms: N_9  and  C_10 
REMARK    4  A    between atoms: C_10  and  C_11 
REMARK    5  A    between atoms: C_11  and  N_12 
REMARK    6  A    between atoms: C_15  and  C_16 
ROOT
HETATM    1  C   UNL     1      40.047 -15.499   1.123  1.00  0.00     0.150 C 
ENDROOT
BRANCH   1   2
HETATM    2  N   UNL     1      39.376 -14.285   0.723  1.00  0.00    -0.354 N 
HETATM    3  C   UNL     1      39.619 -13.656  -0.483  1.00  0.00     0.272 C 
HETATM    4  O   UNL     1      40.383 -14.129  -1.321  1.00  0.00    -0.266 OA
HETATM    5  H   UNL     1      38.795 -13.742   1.365  1.00  0.00     0.162 HD
BRANCH   3   6
HETATM    6  C   UNL     1      38.847 -12.418  -0.663  1.00  0.00     0.152 A 
HETATM    7  N   UNL     1      39.076 -11.348   0.127  1.00  0.00    -0.169 NA
HETATM    8  N   UNL     1      38.203 -10.426  -0.313  1.00  0.00    -0.281 N 
HETATM    9  C   UNL     1      37.404 -10.863  -1.331  1.00  0.00     0.036 A 
HETATM   10  H   UNL     1      38.198  -9.513   0.134  1.00  0.00     0.189 HD
HETATM   11  C   UNL     1      37.796 -12.162  -1.594  1.00  0.00    -0.002 A 
HETATM   12  C   UNL     1      37.246 -13.097  -2.609  1.00  0.00     0.053 C 
BRANCH   9  13
HETATM   13  C   UNL     1      36.354  -9.995  -1.935  1.00  0.00     0.055 C 
HETATM   14  C   UNL     1      35.377  -9.488  -0.885  1.00  0.00     0.011 C 
ENDBRANCH   9  13
ENDBRANCH   3   6
ENDBRANCH   1   2
BRANCH   1  15
HETATM   15  C   UNL     1      40.108 -15.671   2.653  1.00  0.00     0.254 C 
BRANCH  15  16
HETATM   16  N   UNL     1      40.831 -14.520   3.330  1.00  0.00    -0.069 N 
HETATM   17  H   UNL     1      40.315 -13.658   3.109  1.00  0.00     0.280 HD
HETATM   18  C   UNL     1      42.248 -14.349   2.787  1.00  0.00     0.244 C 
HETATM   19  C   UNL     1      43.169 -14.954   3.857  1.00  0.00     0.046 C 
HETATM   20  C   UNL     1      42.449 -14.465   5.119  1.00  0.00     0.039 C 
HETATM   21  C   UNL     1      40.967 -14.664   4.832  1.00  0.00     0.235 C 
BRANCH  19  22
HETATM   22  C   UNL     1      43.370 -16.458   3.680  1.00  0.00    -0.046 A 
HETATM   23  C   UNL     1      43.968 -17.242   4.700  1.00  0.00    -0.055 A 
HETATM   24  C   UNL     1      44.388 -16.700   6.044  1.00  0.00     0.049 C 
HETATM   25  C   UNL     1      44.219 -18.609   4.473  1.00  0.00     0.007 A 
HETATM   26  C   UNL     1      43.837 -19.225   3.286  1.00  0.00     0.001 A 
HETATM   27  C   UNL     1      43.188 -18.485   2.311  1.00  0.00     0.001 A 
HETATM   28  C   UNL     1      42.951 -17.122   2.509  1.00  0.00     0.008 A 
ENDBRANCH  19  22
ENDBRANCH  15  16
ENDBRANCH   1  15
TORSDOF 6
ENDMDL
MODEL 8
REMARK VINA RESULT:      -7.4      1.347      2.141
REMARK  6 active torsions:
REMARK  status: ('A' for Active; 'I' for Inactive)
REMARK    1  A    between atoms: C_2  and  C_3 
REMARK    2  A    between atoms: C_7  and  C_8 
REMARK       I    between atoms: C_8  and  N_9 
REMARK    3  A    between atoms: N_9  and  C_10 
REMARK    4  A    between atoms: C_10  and  C_11 
REMARK    5  A    between atoms: C_11  and  N_12 
REMARK    6  A    between atoms: C_15  and  C_16 
ROOT
HETATM    1  C   UNL     1      43.891 -13.429   6.714  1.00  0.00     0.150 C 
ENDROOT
BRANCH   1   2
HETATM    2  N   UNL     1      43.463 -12.302   7.509  1.00  0.00    -0.354 N 
HETATM    3  C   UNL     1      44.276 -11.215   7.768  1.00  0.00     0.272 C 
HETATM    4  O   UNL     1      45.400 -11.114   7.283  1.00  0.00    -0.266 OA
HETATM    5  H   UNL     1      42.594 -12.308   8.046  1.00  0.00     0.162 HD
BRANCH   3   6
HETATM    6  C   UNL     1      43.642 -10.203   8.627  1.00  0.00     0.152 A 
HETATM    7  N   UNL     1      42.429  -9.704   8.315  1.00  0.00    -0.169 NA
HETATM    8  N   UNL     1      42.177  -8.823   9.299  1.00  0.00    -0.281 N 
HETATM    9  C   UNL     1      43.186  -8.714  10.213  1.00  0.00     0.036 A 
HETATM   10  H   UNL     1      41.295  -8.320   9.283  1.00  0.00     0.189 HD
HETATM   11  C   UNL     1      44.164  -9.604   9.813  1.00  0.00    -0.002 A 
HETATM   12  C   UNL     1      45.474  -9.877  10.458  1.00  0.00     0.053 C 
BRANCH   9  13
HETATM   13  C   UNL     1      43.106  -7.768  11.363  1.00  0.00     0.055 C 
HETATM   14  C   UNL     1      42.895  -8.505  12.677  1.00  0.00     0.011 C 
ENDBRANCH   9  13
ENDBRANCH   3   6
ENDBRANCH   1   2
BRANCH   1  15
HETATM   15  C   UNL     1      43.350 -13.383   5.273  1.00  0.00     0.254 C 
BRANCH  15  16
HETATM   16  N   UNL     1      41.835 -13.294   5.232  1.00  0.00    -0.069 N 
HETATM   17  H   UNL     1      41.557 -12.490   5.811  1.00  0.00     0.280 HD
HETATM   18  C   UNL     1      41.182 -14.533   5.839  1.00  0.00     0.244 C 
HETATM   19  C   UNL     1      40.706 -15.369   4.642  1.00  0.00     0.046 C 
HETATM   20  C   UNL     1      40.206 -14.245   3.729  1.00  0.00     0.039 C 
HETATM   21  C   UNL     1      41.254 -13.146   3.842  1.00  0.00     0.235 C 
BRANCH  19  22
HETATM   22  C   UNL     1      41.791 -16.302   4.106  1.00  0.00    -0.046 A 
HETATM   23  C   UNL     1      41.811 -16.695   2.744  1.00  0.00    -0.055 A 
HETATM   24  C   UNL     1      40.837 -16.194   1.706  1.00  0.00     0.049 C 
HETATM   25  C   UNL     1      42.772 -17.625   2.299  1.00  0.00     0.007 A 
HETATM   26  C   UNL     1      43.744 -18.124   3.159  1.00  0.00     0.001 A 
HETATM   27  C   UNL     1      43.777 -17.692   4.475  1.00  0.00     0.001 A 
HETATM   28  C   UNL     1      42.819 -16.788   4.940  1.00  0.00     0.008 A 
ENDBRANCH  19  22
ENDBRANCH  15  16
ENDBRANCH   1  15
TORSDOF 6
ENDMDL
MODEL 9
REMARK VINA RESULT:      -7.4      4.021      7.034
REMARK  6 active torsions:
REMARK  status: ('A' for Active; 'I' for Inactive)
REMARK    1  A    between atoms: C_2  and  C_3 
REMARK    2  A    between atoms: C_7  and  C_8 
REMARK       I    between atoms: C_8  and  N_9 
REMARK    3  A    between atoms: N_9  and  C_10 
REMARK    4  A    between atoms: C_10  and  C_11 
REMARK    5  A    between atoms: C_11  and  N_12 
REMARK    6  A    between atoms: C_15  and  C_16 
ROOT
HETATM    1  C   UNL     1      43.295 -11.820   4.888  1.00  0.00     0.150 C 
ENDROOT
BRANCH   1   2
HETATM    2  N   UNL     1      42.887 -11.785   3.503  1.00  0.00    -0.354 N 
HETATM    3  C   UNL     1      41.864 -10.978   3.043  1.00  0.00     0.272 C 
HETATM    4  O   UNL     1      41.276 -10.190   3.779  1.00  0.00    -0.266 OA
HETATM    5  H   UNL     1      43.228 -12.459   2.815  1.00  0.00     0.162 HD
BRANCH   3   6
HETATM    6  C   UNL     1      41.600 -11.134   1.604  1.00  0.00     0.152 A 
HETATM    7  N   UNL     1      41.955 -10.166   0.734  1.00  0.00    -0.169 NA
HETATM    8  N   UNL     1      41.562 -10.641  -0.459  1.00  0.00    -0.281 N 
HETATM    9  C   UNL     1      40.947 -11.859  -0.393  1.00  0.00     0.036 A 
HETATM   10  H   UNL     1      41.738 -10.078  -1.286  1.00  0.00     0.189 HD
HETATM   11  C   UNL     1      40.955 -12.220   0.941  1.00  0.00    -0.002 A 
HETATM   12  C   UNL     1      40.406 -13.455   1.558  1.00  0.00     0.053 C 
BRANCH   9  13
HETATM   13  C   UNL     1      40.416 -12.539  -1.609  1.00  0.00     0.055 C 
HETATM   14  C   UNL     1      40.990 -11.935  -2.881  1.00  0.00     0.011 C 
ENDBRANCH   9  13
ENDBRANCH   3   6
ENDBRANCH   1   2
BRANCH   1  15
HETATM   15  C   UNL     1      43.387 -13.252   5.448  1.00  0.00     0.254 C 
BRANCH  15  16
HETATM   16  N   UNL     1      42.283 -13.546   6.449  1.00  0.00    -0.069 N 
HETATM   17  H   UNL     1      42.347 -12.842   7.196  1.00  0.00     0.280 HD
HETATM   18  C   UNL     1      42.467 -14.915   7.102  1.00  0.00     0.244 C 
HETATM   19  C   UNL     1      41.453 -15.835   6.408  1.00  0.00     0.046 C 
HETATM   20  C   UNL     1      40.272 -14.868   6.285  1.00  0.00     0.039 C 
HETATM   21  C   UNL     1      40.888 -13.541   5.861  1.00  0.00     0.235 C 
BRANCH  19  22
HETATM   22  C   UNL     1      42.006 -16.462   5.129  1.00  0.00    -0.046 A 
HETATM   23  C   UNL     1      43.014 -17.459   5.177  1.00  0.00    -0.055 A 
HETATM   24  C   UNL     1      43.574 -18.031   6.456  1.00  0.00     0.049 C 
HETATM   25  C   UNL     1      43.565 -17.954   3.979  1.00  0.00     0.007 A 
HETATM   26  C   UNL     1      43.098 -17.529   2.740  1.00  0.00     0.001 A 
HETATM   27  C   UNL     1      42.064 -16.608   2.681  1.00  0.00     0.001 A 
HETATM   28  C   UNL     1      41.520 -16.088   3.859  1.00  0.00     0.008 A 
ENDBRANCH  19  22
ENDBRANCH  15  16
ENDBRANCH   1  15
TORSDOF 6
ENDMDL
MODEL 10
REMARK VINA RESULT:      -7.3     17.585     19.224
REMARK  6 active torsions:
REMARK  status: ('A' for Active; 'I' for Inactive)
REMARK    1  A    between atoms: C_2  and  C_3 
REMARK    2  A    between atoms: C_7  and  C_8 
REMARK       I    between atoms: C_8  and  N_9 
REMARK    3  A    between atoms: N_9  and  C_10 
REMARK    4  A    between atoms: C_10  and  C_11 
REMARK    5  A    between atoms: C_11  and  N_12 
REMARK    6  A    between atoms: C_15  and  C_16 
ROOT
HETATM    1  C   UNL     1      44.037 -30.216  -0.277  1.00  0.00     0.150 C 
ENDROOT
BRANCH   1   2
HETATM    2  N   UNL     1      45.239 -29.909   0.462  1.00  0.00    -0.354 N 
HETATM    3  C   UNL     1      45.220 -29.405   1.748  1.00  0.00     0.272 C 
HETATM    4  O   UNL     1      44.172 -29.242   2.368  1.00  0.00    -0.266 OA
HETATM    5  H   UNL     1      46.163 -29.906   0.027  1.00  0.00     0.162 HD
BRANCH   3   6
HETATM    6  C   UNL     1      46.561 -29.135   2.289  1.00  0.00     0.152 A 
HETATM    7  N   UNL     1      47.109 -27.908   2.180  1.00  0.00    -0.169 NA
HETATM    8  N   UNL     1      48.311 -28.034   2.768  1.00  0.00    -0.281 N 
HETATM    9  C   UNL     1      48.572 -29.295   3.224  1.00  0.00     0.036 A 
HETATM   10  H   UNL     1      48.914 -27.218   2.817  1.00  0.00     0.189 HD
HETATM   11  C   UNL     1      47.449 -30.048   2.935  1.00  0.00    -0.002 A 
HETATM   12  C   UNL     1      47.213 -31.486   3.218  1.00  0.00     0.053 C 
BRANCH   9  13
HETATM   13  C   UNL     1      49.865 -29.642   3.882  1.00  0.00     0.055 C 
HETATM   14  C   UNL     1      50.913 -30.063   2.863  1.00  0.00     0.011 C 
ENDBRANCH   9  13
ENDBRANCH   3   6
ENDBRANCH   1   2
BRANCH   1  15
HETATM   15  C   UNL     1      44.214 -31.408  -1.237  1.00  0.00     0.254 C 
BRANCH  15  16
HETATM   16  N   UNL     1      43.983 -31.016  -2.685  1.00  0.00    -0.069 N 
HETATM   17  H   UNL     1      43.147 -31.519  -3.012  1.00  0.00     0.280 HD
HETATM   18  C   UNL     1      45.146 -31.448  -3.576  1.00  0.00     0.244 C 
HETATM   19  C   UNL     1      45.953 -30.169  -3.839  1.00  0.00     0.046 C 
HETATM   20  C   UNL     1      44.803 -29.170  -4.004  1.00  0.00     0.039 C 
HETATM   21  C   UNL     1      43.806 -29.529  -2.911  1.00  0.00     0.235 C 
BRANCH  19  22
HETATM   22  C   UNL     1      46.993 -29.895  -2.754  1.00  0.00    -0.046 A 
HETATM   23  C   UNL     1      47.902 -30.903  -2.339  1.00  0.00    -0.055 A 
HETATM   24  C   UNL     1      47.976 -32.278  -2.955  1.00  0.00     0.049 C 
HETATM   25  C   UNL     1      48.790 -30.648  -1.276  1.00  0.00     0.007 A 
HETATM   26  C   UNL     1      48.838 -29.402  -0.660  1.00  0.00     0.001 A 
HETATM   27  C   UNL     1      48.004 -28.388  -1.104  1.00  0.00     0.001 A 
HETATM   28  C   UNL     1      47.100 -28.629  -2.142  1.00  0.00     0.008 A 
ENDBRANCH  19  22
ENDBRANCH  15  16
ENDBRANCH   1  15
TORSDOF 6
ENDMDL
