MODEL 1
REMARK VINA RESULT:      -8.2      0.000      0.000
REMARK  5 active torsions:
REMARK  status: ('A' for Active; 'I' for Inactive)
REMARK    1  A    between atoms: C_2  and  N_3 
REMARK    2  A    between atoms: C_2  and  C_19 
REMARK       I    between atoms: N_3  and  C_4 
REMARK    3  A    between atoms: C_4  and  C_5 
REMARK    4  A    between atoms: C_7  and  O_8 
REMARK    5  A    between atoms: O_8  and  C_9 
ROOT
HETATM    1  C   UNL     1      41.528 -15.013   2.228  1.00  0.00     0.146 A 
HETATM    2  O   UNL     1      41.434 -14.148   1.166  1.00  0.00    -0.282 OA
HETATM    3  C   UNL     1      40.130 -13.757   1.089  1.00  0.00     0.191 A 
HETATM    4  C   UNL     1      39.398 -14.317   2.110  1.00  0.00     0.067 A 
HETATM    5  C   UNL     1      40.288 -15.153   2.822  1.00  0.00     0.048 A 
ENDROOT
BRANCH   1   6
HETATM    6  C   UNL     1      42.805 -15.614   2.553  1.00  0.00     0.276 C 
HETATM    7  N   UNL     1      42.793 -16.377   3.697  1.00  0.00    -0.347 N 
HETATM    8  H   UNL     1      41.921 -16.436   4.210  1.00  0.00     0.163 HD
HETATM    9  O   UNL     1      43.811 -15.469   1.864  1.00  0.00    -0.265 OA
BRANCH   7  10
HETATM   10  C   UNL     1      43.981 -17.026   4.215  1.00  0.00     0.114 C 
HETATM   11  C   UNL     1      44.150 -16.729   5.706  1.00  0.00     0.037 C 
BRANCH  10  12
HETATM   12  C   UNL     1      43.936 -18.510   3.915  1.00  0.00    -0.033 A 
HETATM   13  C   UNL     1      43.664 -18.949   2.613  1.00  0.00     0.028 A 
HETATM   14  C   UNL     1      43.618 -20.310   2.358  1.00  0.00     0.116 A 
HETATM   15  N   UNL     1      43.816 -21.256   3.299  1.00  0.00    -0.273 NA
HETATM   16  C   UNL     1      44.064 -20.820   4.551  1.00  0.00     0.116 A 
HETATM   17  C   UNL     1      44.132 -19.481   4.905  1.00  0.00     0.028 A 
ENDBRANCH  10  12
ENDBRANCH   7  10
ENDBRANCH   1   6
BRANCH   3  18
HETATM   18  O   UNL     1      39.812 -12.891   0.132  1.00  0.00    -0.286 OA
BRANCH  18  19
HETATM   19  C   UNL     1      39.188 -13.290  -1.030  1.00  0.00     0.100 A 
HETATM   20  C   UNL     1      38.017 -12.628  -1.415  1.00  0.00     0.068 A 
HETATM   21 CL   UNL     1      37.407 -11.283  -0.519  1.00  0.00    -0.081 Cl
HETATM   22  C   UNL     1      37.308 -13.049  -2.543  1.00  0.00     0.026 A 
HETATM   23  C   UNL     1      37.760 -14.142  -3.285  1.00  0.00     0.002 A 
HETATM   24  C   UNL     1      38.920 -14.813  -2.899  1.00  0.00     0.003 A 
HETATM   25  C   UNL     1      39.629 -14.394  -1.771  1.00  0.00     0.039 A 
ENDBRANCH  18  19
ENDBRANCH   3  18
TORSDOF 5
ENDMDL
MODEL 2
REMARK VINA RESULT:      -8.2      3.446      7.758
REMARK  5 active torsions:
REMARK  status: ('A' for Active; 'I' for Inactive)
REMARK    1  A    between atoms: C_2  and  N_3 
REMARK    2  A    between atoms: C_2  and  C_19 
REMARK       I    between atoms: N_3  and  C_4 
REMARK    3  A    between atoms: C_4  and  C_5 
REMARK    4  A    between atoms: C_7  and  O_8 
REMARK    5  A    between atoms: O_8  and  C_9 
ROOT
HETATM    1  C   UNL     1      41.644 -15.292   5.947  1.00  0.00     0.146 A 
HETATM    2  O   UNL     1      42.538 -15.707   4.991  1.00  0.00    -0.282 OA
HETATM    3  C   UNL     1      43.386 -16.585   5.599  1.00  0.00     0.191 A 
HETATM    4  C   UNL     1      43.023 -16.775   6.911  1.00  0.00     0.067 A 
HETATM    5  C   UNL     1      41.925 -15.917   7.147  1.00  0.00     0.048 A 
ENDROOT
BRANCH   1   6
HETATM    6  C   UNL     1      40.617 -14.332   5.599  1.00  0.00     0.276 C 
HETATM    7  N   UNL     1      40.673 -13.893   4.297  1.00  0.00    -0.347 N 
HETATM    8  H   UNL     1      41.419 -14.255   3.714  1.00  0.00     0.163 HD
HETATM    9  O   UNL     1      39.759 -13.949   6.390  1.00  0.00    -0.265 OA
BRANCH   7  10
HETATM   10  C   UNL     1      39.761 -12.899   3.767  1.00  0.00     0.114 C 
HETATM   11  C   UNL     1      40.198 -11.493   4.178  1.00  0.00     0.037 C 
BRANCH  10  12
HETATM   12  C   UNL     1      39.634 -13.058   2.265  1.00  0.00    -0.033 A 
HETATM   13  C   UNL     1      40.129 -14.211   1.643  1.00  0.00     0.028 A 
HETATM   14  C   UNL     1      40.012 -14.335   0.267  1.00  0.00     0.116 A 
HETATM   15  N   UNL     1      39.448 -13.400  -0.525  1.00  0.00    -0.273 NA
HETATM   16  C   UNL     1      38.988 -12.289   0.087  1.00  0.00     0.116 A 
HETATM   17  C   UNL     1      39.056 -12.074   1.455  1.00  0.00     0.028 A 
ENDBRANCH  10  12
ENDBRANCH   7  10
ENDBRANCH   1   6
BRANCH   3  18
HETATM   18  O   UNL     1      44.332 -17.135   4.844  1.00  0.00    -0.286 OA
BRANCH  18  19
HETATM   19  C   UNL     1      44.141 -18.341   4.206  1.00  0.00     0.100 A 
HETATM   20  C   UNL     1      43.680 -18.327   2.885  1.00  0.00     0.068 A 
HETATM   21 CL   UNL     1      43.439 -16.845   2.032  1.00  0.00    -0.081 Cl
HETATM   22  C   UNL     1      43.397 -19.525   2.224  1.00  0.00     0.026 A 
HETATM   23  C   UNL     1      43.565 -20.744   2.884  1.00  0.00     0.002 A 
HETATM   24  C   UNL     1      44.013 -20.764   4.205  1.00  0.00     0.003 A 
HETATM   25  C   UNL     1      44.294 -19.567   4.867  1.00  0.00     0.039 A 
ENDBRANCH  18  19
ENDBRANCH   3  18
TORSDOF 5
ENDMDL
MODEL 3
REMARK VINA RESULT:      -8.1      3.317      8.075
REMARK  5 active torsions:
REMARK  status: ('A' for Active; 'I' for Inactive)
REMARK    1  A    between atoms: C_2  and  N_3 
REMARK    2  A    between atoms: C_2  and  C_19 
REMARK       I    between atoms: N_3  and  C_4 
REMARK    3  A    between atoms: C_4  and  C_5 
REMARK    4  A    between atoms: C_7  and  O_8 
REMARK    5  A    between atoms: O_8  and  C_9 
ROOT
HETATM    1  C   UNL     1      40.588 -14.612   3.127  1.00  0.00     0.146 A 
HETATM    2  O   UNL     1      41.710 -15.140   2.537  1.00  0.00    -0.282 OA
HETATM    3  C   UNL     1      42.239 -16.030   3.424  1.00  0.00     0.191 A 
HETATM    4  C   UNL     1      41.453 -16.117   4.549  1.00  0.00     0.067 A 
HETATM    5  C   UNL     1      40.409 -15.179   4.374  1.00  0.00     0.048 A 
ENDROOT
BRANCH   1   6
HETATM    6  C   UNL     1      39.811 -13.613   2.423  1.00  0.00     0.276 C 
HETATM    7  N   UNL     1      40.093 -13.523   1.079  1.00  0.00    -0.347 N 
HETATM    8  H   UNL     1      40.814 -14.133   0.712  1.00  0.00     0.163 HD
HETATM    9  O   UNL     1      38.963 -12.913   2.969  1.00  0.00    -0.265 OA
BRANCH   7  10
HETATM   10  C   UNL     1      39.455 -12.556   0.210  1.00  0.00     0.114 C 
HETATM   11  C   UNL     1      40.414 -11.410  -0.118  1.00  0.00     0.037 C 
BRANCH  10  12
HETATM   12  C   UNL     1      38.918 -13.243  -1.029  1.00  0.00    -0.033 A 
HETATM   13  C   UNL     1      37.830 -12.690  -1.716  1.00  0.00     0.028 A 
HETATM   14  C   UNL     1      37.347 -13.337  -2.842  1.00  0.00     0.116 A 
HETATM   15  N   UNL     1      37.861 -14.488  -3.324  1.00  0.00    -0.273 NA
HETATM   16  C   UNL     1      38.899 -15.017  -2.645  1.00  0.00     0.116 A 
HETATM   17  C   UNL     1      39.454 -14.443  -1.511  1.00  0.00     0.028 A 
ENDBRANCH  10  12
ENDBRANCH   7  10
ENDBRANCH   1   6
BRANCH   3  18
HETATM   18  O   UNL     1      43.334 -16.683   3.047  1.00  0.00    -0.286 OA
BRANCH  18  19
HETATM   19  C   UNL     1      43.441 -18.052   3.168  1.00  0.00     0.100 A 
HETATM   20  C   UNL     1      44.021 -18.571   4.332  1.00  0.00     0.068 A 
HETATM   21 CL   UNL     1      44.511 -17.541   5.629  1.00  0.00    -0.081 Cl
HETATM   22  C   UNL     1      44.221 -19.947   4.465  1.00  0.00     0.026 A 
HETATM   23  C   UNL     1      43.852 -20.810   3.433  1.00  0.00     0.002 A 
HETATM   24  C   UNL     1      43.285 -20.298   2.267  1.00  0.00     0.003 A 
HETATM   25  C   UNL     1      43.085 -18.922   2.130  1.00  0.00     0.039 A 
ENDBRANCH  18  19
ENDBRANCH   3  18
TORSDOF 5
ENDMDL
MODEL 4
REMARK VINA RESULT:      -8.0      5.305      7.960
REMARK  5 active torsions:
REMARK  status: ('A' for Active; 'I' for Inactive)
REMARK    1  A    between atoms: C_2  and  N_3 
REMARK    2  A    between atoms: C_2  and  C_19 
REMARK       I    between atoms: N_3  and  C_4 
REMARK    3  A    between atoms: C_4  and  C_5 
REMARK    4  A    between atoms: C_7  and  O_8 
REMARK    5  A    between atoms: O_8  and  C_9 
ROOT
HETATM    1  C   UNL     1      42.910 -13.765   5.310  1.00  0.00     0.146 A 
HETATM    2  O   UNL     1      43.041 -12.401   5.231  1.00  0.00    -0.282 OA
HETATM    3  C   UNL     1      43.513 -11.980   6.439  1.00  0.00     0.191 A 
HETATM    4  C   UNL     1      43.731 -13.052   7.272  1.00  0.00     0.067 A 
HETATM    5  C   UNL     1      43.310 -14.198   6.560  1.00  0.00     0.048 A 
ENDROOT
BRANCH   1   6
HETATM    6  C   UNL     1      42.408 -14.505   4.170  1.00  0.00     0.276 C 
HETATM    7  N   UNL     1      43.119 -15.647   3.882  1.00  0.00    -0.347 N 
HETATM    8  H   UNL     1      43.921 -15.857   4.465  1.00  0.00     0.163 HD
HETATM    9  O   UNL     1      41.426 -14.155   3.521  1.00  0.00    -0.265 OA
BRANCH   7  10
HETATM   10  C   UNL     1      42.803 -16.500   2.755  1.00  0.00     0.114 C 
HETATM   11  C   UNL     1      43.435 -15.955   1.473  1.00  0.00     0.037 C 
BRANCH  10  12
HETATM   12  C   UNL     1      43.216 -17.928   3.051  1.00  0.00    -0.033 A 
HETATM   13  C   UNL     1      43.822 -18.237   4.275  1.00  0.00     0.028 A 
HETATM   14  C   UNL     1      44.202 -19.547   4.525  1.00  0.00     0.116 A 
HETATM   15  N   UNL     1      44.027 -20.558   3.649  1.00  0.00    -0.273 NA
HETATM   16  C   UNL     1      43.454 -20.243   2.469  1.00  0.00     0.116 A 
HETATM   17  C   UNL     1      43.039 -18.965   2.127  1.00  0.00     0.028 A 
ENDBRANCH  10  12
ENDBRANCH   7  10
ENDBRANCH   1   6
BRANCH   3  18
HETATM   18  O   UNL     1      43.737 -10.677   6.581  1.00  0.00    -0.286 OA
BRANCH  18  19
HETATM   19  C   UNL     1      43.895 -10.099   7.822  1.00  0.00     0.100 A 
HETATM   20  C   UNL     1      45.178 -10.069   8.380  1.00  0.00     0.068 A 
HETATM   21 CL   UNL     1      46.552 -10.654   7.512  1.00  0.00    -0.081 Cl
HETATM   22  C   UNL     1      45.374  -9.564   9.668  1.00  0.00     0.026 A 
HETATM   23  C   UNL     1      44.287  -9.096  10.408  1.00  0.00     0.002 A 
HETATM   24  C   UNL     1      43.005  -9.134   9.861  1.00  0.00     0.003 A 
HETATM   25  C   UNL     1      42.807  -9.640   8.575  1.00  0.00     0.039 A 
ENDBRANCH  18  19
ENDBRANCH   3  18
TORSDOF 5
ENDMDL
MODEL 5
REMARK VINA RESULT:      -7.8      3.579      8.532
REMARK  5 active torsions:
REMARK  status: ('A' for Active; 'I' for Inactive)
REMARK    1  A    between atoms: C_2  and  N_3 
REMARK    2  A    between atoms: C_2  and  C_19 
REMARK       I    between atoms: N_3  and  C_4 
REMARK    3  A    between atoms: C_4  and  C_5 
REMARK    4  A    between atoms: C_7  and  O_8 
REMARK    5  A    between atoms: O_8  and  C_9 
ROOT
HETATM    1  C   UNL     1      40.545 -15.122   1.272  1.00  0.00     0.146 A 
HETATM    2  O   UNL     1      41.845 -15.554   1.189  1.00  0.00    -0.282 OA
HETATM    3  C   UNL     1      42.081 -16.311   2.298  1.00  0.00     0.191 A 
HETATM    4  C   UNL     1      40.944 -16.411   3.064  1.00  0.00     0.067 A 
HETATM    5  C   UNL     1      39.964 -15.618   2.424  1.00  0.00     0.048 A 
ENDROOT
BRANCH   1   6
HETATM    6  C   UNL     1      40.002 -14.273   0.231  1.00  0.00     0.276 C 
HETATM    7  N   UNL     1      39.459 -13.095   0.690  1.00  0.00    -0.347 N 
HETATM    8  H   UNL     1      39.468 -12.936   1.691  1.00  0.00     0.163 HD
HETATM    9  O   UNL     1      40.033 -14.568  -0.961  1.00  0.00    -0.265 OA
BRANCH   7  10
HETATM   10  C   UNL     1      38.827 -12.132  -0.188  1.00  0.00     0.114 C 
HETATM   11  C   UNL     1      37.658 -11.444   0.518  1.00  0.00     0.037 C 
BRANCH  10  12
HETATM   12  C   UNL     1      39.857 -11.150  -0.711  1.00  0.00    -0.033 A 
HETATM   13  C   UNL     1      39.898 -10.846  -2.078  1.00  0.00     0.028 A 
HETATM   14  C   UNL     1      40.852  -9.953  -2.539  1.00  0.00     0.116 A 
HETATM   15  N   UNL     1      41.762  -9.351  -1.745  1.00  0.00    -0.273 NA
HETATM   16  C   UNL     1      41.719  -9.663  -0.433  1.00  0.00     0.116 A 
HETATM   17  C   UNL     1      40.802 -10.542   0.124  1.00  0.00     0.028 A 
ENDBRANCH  10  12
ENDBRANCH   7  10
ENDBRANCH   1   6
BRANCH   3  18
HETATM   18  O   UNL     1      43.289 -16.855   2.414  1.00  0.00    -0.286 OA
BRANCH  18  19
HETATM   19  C   UNL     1      43.465 -18.131   2.902  1.00  0.00     0.100 A 
HETATM   20  C   UNL     1      43.974 -18.282   4.197  1.00  0.00     0.068 A 
HETATM   21 CL   UNL     1      44.290 -16.915   5.204  1.00  0.00    -0.081 Cl
HETATM   22  C   UNL     1      44.243 -19.555   4.705  1.00  0.00     0.026 A 
HETATM   23  C   UNL     1      44.015 -20.684   3.916  1.00  0.00     0.002 A 
HETATM   24  C   UNL     1      43.520 -20.540   2.621  1.00  0.00     0.003 A 
HETATM   25  C   UNL     1      43.252 -19.268   2.111  1.00  0.00     0.039 A 
ENDBRANCH  18  19
ENDBRANCH   3  18
TORSDOF 5
ENDMDL
MODEL 6
REMARK VINA RESULT:      -7.8      3.541      8.788
REMARK  5 active torsions:
REMARK  status: ('A' for Active; 'I' for Inactive)
REMARK    1  A    between atoms: C_2  and  N_3 
REMARK    2  A    between atoms: C_2  and  C_19 
REMARK       I    between atoms: N_3  and  C_4 
REMARK    3  A    between atoms: C_4  and  C_5 
REMARK    4  A    between atoms: C_7  and  O_8 
REMARK    5  A    between atoms: O_8  and  C_9 
ROOT
HETATM    1  C   UNL     1      40.783 -14.654   1.272  1.00  0.00     0.146 A 
HETATM    2  O   UNL     1      42.081 -15.046   1.483  1.00  0.00    -0.282 OA
HETATM    3  C   UNL     1      42.058 -15.957   2.498  1.00  0.00     0.191 A 
HETATM    4  C   UNL     1      40.766 -16.189   2.908  1.00  0.00     0.067 A 
HETATM    5  C   UNL     1      39.947 -15.326   2.144  1.00  0.00     0.048 A 
ENDROOT
BRANCH   1   6
HETATM    6  C   UNL     1      40.488 -13.668   0.252  1.00  0.00     0.276 C 
HETATM    7  N   UNL     1      39.226 -13.775  -0.286  1.00  0.00    -0.347 N 
HETATM    8  H   UNL     1      38.635 -14.524   0.055  1.00  0.00     0.163 HD
HETATM    9  O   UNL     1      41.286 -12.803  -0.097  1.00  0.00    -0.265 OA
BRANCH   7  10
HETATM   10  C   UNL     1      38.755 -12.911  -1.350  1.00  0.00     0.114 C 
HETATM   11  C   UNL     1      38.054 -13.727  -2.437  1.00  0.00     0.037 C 
BRANCH  10  12
HETATM   12  C   UNL     1      37.876 -11.816  -0.780  1.00  0.00    -0.033 A 
HETATM   13  C   UNL     1      37.146 -10.989  -1.644  1.00  0.00     0.028 A 
HETATM   14  C   UNL     1      36.355  -9.987  -1.107  1.00  0.00     0.116 A 
HETATM   15  N   UNL     1      36.243  -9.748   0.216  1.00  0.00    -0.273 NA
HETATM   16  C   UNL     1      36.961 -10.544   1.036  1.00  0.00     0.116 A 
HETATM   17  C   UNL     1      37.779 -11.573   0.595  1.00  0.00     0.028 A 
ENDBRANCH  10  12
ENDBRANCH   7  10
ENDBRANCH   1   6
BRANCH   3  18
HETATM   18  O   UNL     1      43.220 -16.492   2.859  1.00  0.00    -0.286 OA
BRANCH  18  19
HETATM   19  C   UNL     1      43.362 -17.846   3.068  1.00  0.00     0.100 A 
HETATM   20  C   UNL     1      43.944 -18.275   4.266  1.00  0.00     0.068 A 
HETATM   21 CL   UNL     1      44.395 -17.153   5.500  1.00  0.00    -0.081 Cl
HETATM   22  C   UNL     1      44.179 -19.634   4.488  1.00  0.00     0.026 A 
HETATM   23  C   UNL     1      43.843 -20.570   3.509  1.00  0.00     0.002 A 
HETATM   24  C   UNL     1      43.274 -20.148   2.309  1.00  0.00     0.003 A 
HETATM   25  C   UNL     1      43.039 -18.790   2.084  1.00  0.00     0.039 A 
ENDBRANCH  18  19
ENDBRANCH   3  18
TORSDOF 5
ENDMDL
MODEL 7
REMARK VINA RESULT:      -7.8      4.647      7.986
REMARK  5 active torsions:
REMARK  status: ('A' for Active; 'I' for Inactive)
REMARK    1  A    between atoms: C_2  and  N_3 
REMARK    2  A    between atoms: C_2  and  C_19 
REMARK       I    between atoms: N_3  and  C_4 
REMARK    3  A    between atoms: C_4  and  C_5 
REMARK    4  A    between atoms: C_7  and  O_8 
REMARK    5  A    between atoms: O_8  and  C_9 
ROOT
HETATM    1  C   UNL     1      41.678 -14.205   3.610  1.00  0.00     0.146 A 
HETATM    2  O   UNL     1      42.854 -14.825   3.266  1.00  0.00    -0.282 OA
HETATM    3  C   UNL     1      42.556 -16.135   3.036  1.00  0.00     0.191 A 
HETATM    4  C   UNL     1      41.206 -16.356   3.181  1.00  0.00     0.067 A 
HETATM    5  C   UNL     1      40.645 -15.122   3.585  1.00  0.00     0.048 A 
ENDROOT
BRANCH   1   6
HETATM    6  C   UNL     1      41.680 -12.792   3.931  1.00  0.00     0.276 C 
HETATM    7  N   UNL     1      42.257 -12.489   5.142  1.00  0.00    -0.347 N 
HETATM    8  H   UNL     1      42.604 -13.261   5.699  1.00  0.00     0.163 HD
HETATM    9  O   UNL     1      41.220 -11.933   3.183  1.00  0.00    -0.265 OA
BRANCH   7  10
HETATM   10  C   UNL     1      42.316 -11.139   5.663  1.00  0.00     0.114 C 
HETATM   11  C   UNL     1      41.052 -10.812   6.459  1.00  0.00     0.037 C 
BRANCH  10  12
HETATM   12  C   UNL     1      43.584 -10.949   6.472  1.00  0.00    -0.033 A 
HETATM   13  C   UNL     1      43.530 -10.284   7.704  1.00  0.00     0.028 A 
HETATM   14  C   UNL     1      44.700 -10.111   8.426  1.00  0.00     0.116 A 
HETATM   15  N   UNL     1      45.908 -10.543   8.010  1.00  0.00    -0.273 NA
HETATM   16  C   UNL     1      45.947 -11.170   6.816  1.00  0.00     0.116 A 
HETATM   17  C   UNL     1      44.832 -11.393   6.022  1.00  0.00     0.028 A 
ENDBRANCH  10  12
ENDBRANCH   7  10
ENDBRANCH   1   6
BRANCH   3  18
HETATM   18  O   UNL     1      43.556 -16.928   2.664  1.00  0.00    -0.286 OA
BRANCH  18  19
HETATM   19  C   UNL     1      43.620 -18.248   3.055  1.00  0.00     0.100 A 
HETATM   20  C   UNL     1      44.075 -18.536   4.346  1.00  0.00     0.068 A 
HETATM   21 CL   UNL     1      44.463 -17.279   5.465  1.00  0.00    -0.081 Cl
HETATM   22  C   UNL     1      44.231 -19.862   4.759  1.00  0.00     0.026 A 
HETATM   23  C   UNL     1      43.942 -20.906   3.879  1.00  0.00     0.002 A 
HETATM   24  C   UNL     1      43.499 -20.625   2.587  1.00  0.00     0.003 A 
HETATM   25  C   UNL     1      43.344 -19.300   2.172  1.00  0.00     0.039 A 
ENDBRANCH  18  19
ENDBRANCH   3  18
TORSDOF 5
ENDMDL
MODEL 8
REMARK VINA RESULT:      -7.8      6.556      8.994
REMARK  5 active torsions:
REMARK  status: ('A' for Active; 'I' for Inactive)
REMARK    1  A    between atoms: C_2  and  N_3 
REMARK    2  A    between atoms: C_2  and  C_19 
REMARK       I    between atoms: N_3  and  C_4 
REMARK    3  A    between atoms: C_4  and  C_5 
REMARK    4  A    between atoms: C_7  and  O_8 
REMARK    5  A    between atoms: O_8  and  C_9 
ROOT
HETATM    1  C   UNL     1      44.047 -12.759   6.788  1.00  0.00     0.146 A 
HETATM    2  O   UNL     1      44.200 -12.247   8.052  1.00  0.00    -0.282 OA
HETATM    3  C   UNL     1      45.090 -11.218   7.956  1.00  0.00     0.191 A 
HETATM    4  C   UNL     1      45.471 -11.032   6.648  1.00  0.00     0.067 A 
HETATM    5  C   UNL     1      44.829 -12.045   5.900  1.00  0.00     0.048 A 
ENDROOT
BRANCH   1   6
HETATM    6  C   UNL     1      43.163 -13.887   6.573  1.00  0.00     0.276 C 
HETATM    7  N   UNL     1      42.874 -14.132   5.251  1.00  0.00    -0.347 N 
HETATM    8  H   UNL     1      43.277 -13.508   4.562  1.00  0.00     0.163 HD
HETATM    9  O   UNL     1      42.719 -14.576   7.487  1.00  0.00    -0.265 OA
BRANCH   7  10
HETATM   10  C   UNL     1      41.974 -15.187   4.831  1.00  0.00     0.114 C 
HETATM   11  C   UNL     1      40.962 -14.659   3.813  1.00  0.00     0.037 C 
BRANCH  10  12
HETATM   12  C   UNL     1      42.766 -16.369   4.310  1.00  0.00    -0.033 A 
HETATM   13  C   UNL     1      42.604 -16.784   2.981  1.00  0.00     0.028 A 
HETATM   14  C   UNL     1      43.329 -17.873   2.525  1.00  0.00     0.116 A 
HETATM   15  N   UNL     1      44.191 -18.574   3.290  1.00  0.00    -0.273 NA
HETATM   16  C   UNL     1      44.327 -18.172   4.570  1.00  0.00     0.116 A 
HETATM   17  C   UNL     1      43.648 -17.094   5.119  1.00  0.00     0.028 A 
ENDBRANCH  10  12
ENDBRANCH   7  10
ENDBRANCH   1   6
BRANCH   3  18
HETATM   18  O   UNL     1      45.374 -10.556   9.073  1.00  0.00    -0.286 OA
BRANCH  18  19
HETATM   19  C   UNL     1      44.649  -9.453   9.467  1.00  0.00     0.100 A 
HETATM   20  C   UNL     1      43.860  -9.555  10.619  1.00  0.00     0.068 A 
HETATM   21 CL   UNL     1      43.855 -10.988  11.583  1.00  0.00    -0.081 Cl
HETATM   22  C   UNL     1      43.048  -8.488  11.013  1.00  0.00     0.026 A 
HETATM   23  C   UNL     1      43.013  -7.319  10.252  1.00  0.00     0.002 A 
HETATM   24  C   UNL     1      43.788  -7.216   9.097  1.00  0.00     0.003 A 
HETATM   25  C   UNL     1      44.599  -8.281   8.701  1.00  0.00     0.039 A 
ENDBRANCH  18  19
ENDBRANCH   3  18
TORSDOF 5
ENDMDL
MODEL 9
REMARK VINA RESULT:      -7.6      1.814      2.136
REMARK  5 active torsions:
REMARK  status: ('A' for Active; 'I' for Inactive)
REMARK    1  A    between atoms: C_2  and  N_3 
REMARK    2  A    between atoms: C_2  and  C_19 
REMARK       I    between atoms: N_3  and  C_4 
REMARK    3  A    between atoms: C_4  and  C_5 
REMARK    4  A    between atoms: C_7  and  O_8 
REMARK    5  A    between atoms: O_8  and  C_9 
ROOT
HETATM    1  C   UNL     1      41.037 -15.393   3.355  1.00  0.00     0.146 A 
HETATM    2  O   UNL     1      40.930 -15.718   2.026  1.00  0.00    -0.282 OA
HETATM    3  C   UNL     1      40.070 -14.819   1.468  1.00  0.00     0.191 A 
HETATM    4  C   UNL     1      39.662 -13.897   2.403  1.00  0.00     0.067 A 
HETATM    5  C   UNL     1      40.255 -14.286   3.627  1.00  0.00     0.048 A 
ENDROOT
BRANCH   1   6
HETATM    6  C   UNL     1      41.880 -16.190   4.223  1.00  0.00     0.276 C 
HETATM    7  N   UNL     1      43.189 -16.276   3.811  1.00  0.00    -0.347 N 
HETATM    8  H   UNL     1      43.440 -15.805   2.950  1.00  0.00     0.163 HD
HETATM    9  O   UNL     1      41.470 -16.732   5.246  1.00  0.00    -0.265 OA
BRANCH   7  10
HETATM   10  C   UNL     1      44.180 -17.062   4.519  1.00  0.00     0.114 C 
HETATM   11  C   UNL     1      44.065 -16.843   6.028  1.00  0.00     0.037 C 
BRANCH  10  12
HETATM   12  C   UNL     1      44.063 -18.522   4.128  1.00  0.00    -0.033 A 
HETATM   13  C   UNL     1      43.842 -18.868   2.788  1.00  0.00     0.028 A 
HETATM   14  C   UNL     1      43.727 -20.207   2.450  1.00  0.00     0.116 A 
HETATM   15  N   UNL     1      43.811 -21.215   3.343  1.00  0.00    -0.273 NA
HETATM   16  C   UNL     1      44.011 -20.867   4.631  1.00  0.00     0.116 A 
HETATM   17  C   UNL     1      44.140 -19.557   5.067  1.00  0.00     0.028 A 
ENDBRANCH  10  12
ENDBRANCH   7  10
ENDBRANCH   1   6
BRANCH   3  18
HETATM   18  O   UNL     1      39.834 -14.935   0.165  1.00  0.00    -0.286 OA
BRANCH  18  19
HETATM   19  C   UNL     1      40.101 -13.909  -0.715  1.00  0.00     0.100 A 
HETATM   20  C   UNL     1      39.682 -14.048  -2.043  1.00  0.00     0.068 A 
HETATM   21 CL   UNL     1      38.772 -15.422  -2.560  1.00  0.00    -0.081 Cl
HETATM   22  C   UNL     1      39.999 -13.070  -2.988  1.00  0.00     0.026 A 
HETATM   23  C   UNL     1      40.746 -11.952  -2.613  1.00  0.00     0.002 A 
HETATM   24  C   UNL     1      41.176 -11.813  -1.294  1.00  0.00     0.003 A 
HETATM   25  C   UNL     1      40.861 -12.791  -0.348  1.00  0.00     0.039 A 
ENDBRANCH  18  19
ENDBRANCH   3  18
TORSDOF 5
ENDMDL
MODEL 10
REMARK VINA RESULT:      -7.5      2.232      2.963
REMARK  5 active torsions:
REMARK  status: ('A' for Active; 'I' for Inactive)
REMARK    1  A    between atoms: C_2  and  N_3 
REMARK    2  A    between atoms: C_2  and  C_19 
REMARK       I    between atoms: N_3  and  C_4 
REMARK    3  A    between atoms: C_4  and  C_5 
REMARK    4  A    between atoms: C_7  and  O_8 
REMARK    5  A    between atoms: O_8  and  C_9 
ROOT
HETATM    1  C   UNL     1      42.560 -14.103   4.661  1.00  0.00     0.146 A 
HETATM    2  O   UNL     1      41.409 -14.446   3.996  1.00  0.00    -0.282 OA
HETATM    3  C   UNL     1      40.926 -13.304   3.429  1.00  0.00     0.191 A 
HETATM    4  C   UNL     1      41.769 -12.247   3.679  1.00  0.00     0.067 A 
HETATM    5  C   UNL     1      42.803 -12.752   4.501  1.00  0.00     0.048 A 
ENDROOT
BRANCH   1   6
HETATM    6  C   UNL     1      43.300 -15.117   5.384  1.00  0.00     0.276 C 
HETATM    7  N   UNL     1      43.285 -16.357   4.788  1.00  0.00    -0.347 N 
HETATM    8  H   UNL     1      42.755 -16.456   3.930  1.00  0.00     0.163 HD
HETATM    9  O   UNL     1      43.903 -14.892   6.429  1.00  0.00    -0.265 OA
BRANCH   7  10
HETATM   10  C   UNL     1      43.929 -17.514   5.377  1.00  0.00     0.114 C 
HETATM   11  C   UNL     1      43.323 -17.830   6.745  1.00  0.00     0.037 C 
BRANCH  10  12
HETATM   12  C   UNL     1      43.863 -18.688   4.421  1.00  0.00    -0.033 A 
HETATM   13  C   UNL     1      44.032 -19.991   4.907  1.00  0.00     0.028 A 
HETATM   14  C   UNL     1      43.979 -21.052   4.018  1.00  0.00     0.116 A 
HETATM   15  N   UNL     1      43.777 -20.910   2.692  1.00  0.00    -0.273 NA
HETATM   16  C   UNL     1      43.629 -19.649   2.236  1.00  0.00     0.116 A 
HETATM   17  C   UNL     1      43.665 -18.524   3.046  1.00  0.00     0.028 A 
ENDBRANCH  10  12
ENDBRANCH   7  10
ENDBRANCH   1   6
BRANCH   3  18
HETATM   18  O   UNL     1      39.813 -13.409   2.709  1.00  0.00    -0.286 OA
BRANCH  18  19
HETATM   19  C   UNL     1      39.827 -13.320   1.334  1.00  0.00     0.100 A 
HETATM   20  C   UNL     1      39.928 -14.504   0.594  1.00  0.00     0.068 A 
HETATM   21 CL   UNL     1      39.944 -16.049   1.366  1.00  0.00    -0.081 Cl
HETATM   22  C   UNL     1      40.025 -14.457  -0.799  1.00  0.00     0.026 A 
HETATM   23  C   UNL     1      40.031 -13.227  -1.458  1.00  0.00     0.002 A 
HETATM   24  C   UNL     1      39.941 -12.044  -0.726  1.00  0.00     0.003 A 
HETATM   25  C   UNL     1      39.847 -12.088   0.667  1.00  0.00     0.039 A 
ENDBRANCH  18  19
ENDBRANCH   3  18
TORSDOF 5
ENDMDL
