MODEL 1
REMARK VINA RESULT:      -7.8      0.000      0.000
REMARK  8 active torsions:
REMARK  status: ('A' for Active; 'I' for Inactive)
REMARK    1  A    between atoms: C_2  and  N_3 
REMARK       I    between atoms: N_3  and  C_4 
REMARK    2  A    between atoms: C_4  and  C_5 
REMARK    3  A    between atoms: C_5  and  O_6 
REMARK    4  A    between atoms: O_6  and  C_7 
REMARK    5  A    between atoms: C_8  and  O_9 
REMARK    6  A    between atoms: C_12  and  C_13 
REMARK    7  A    between atoms: C_13  and  N_14 
REMARK    8  A    between atoms: N_14  and  C_15 
ROOT
HETATM    1  C   UNL     1      41.899 -10.843   6.157  1.00  0.00     0.102 A 
HETATM    2  C   UNL     1      43.081 -11.596   6.253  1.00  0.00     0.102 A 
HETATM    3  C   UNL     1      43.458 -12.428   5.187  1.00  0.00     0.048 A 
HETATM    4  C   UNL     1      42.707 -12.495   4.008  1.00  0.00    -0.042 A 
HETATM    5  C   UNL     1      41.534 -11.741   3.921  1.00  0.00     0.011 A 
HETATM    6  C   UNL     1      41.139 -10.920   4.981  1.00  0.00     0.040 A 
ENDROOT
BRANCH   4   7
HETATM    7  C   UNL     1      43.145 -13.366   2.856  1.00  0.00     0.131 C 
BRANCH   7   8
HETATM    8  N   UNL     1      42.253 -14.512   2.746  1.00  0.00    -0.289 NA
HETATM    9  H   UNL     1      41.322 -14.297   3.098  1.00  0.00     0.128 HD
BRANCH   8  10
HETATM   10  C   UNL     1      42.707 -15.763   3.193  1.00  0.00     0.010 A 
HETATM   11  C   UNL     1      42.639 -16.853   2.306  1.00  0.00     0.055 A 
HETATM   12  C   UNL     1      43.145 -18.061   2.729  1.00  0.00     0.065 A 
HETATM   13  C   UNL     1      43.744 -18.220   3.974  1.00  0.00     0.063 A 
HETATM   14  N   UNL     1      43.184 -19.290   2.078  1.00  0.00    -0.306 N 
HETATM   15  N   UNL     1      44.151 -19.542   4.092  1.00  0.00    -0.307 N 
HETATM   16  C   UNL     1      43.874 -17.177   4.855  1.00  0.00     0.034 A 
HETATM   17  C   UNL     1      43.808 -20.226   2.916  1.00  0.00     0.325 A 
HETATM   18  H   UNL     1      44.621 -19.971   4.872  1.00  0.00     0.170 HD
HETATM   19  O   UNL     1      44.012 -21.401   2.672  1.00  0.00    -0.247 OA
HETATM   20  C   UNL     1      43.358 -15.939   4.444  1.00  0.00     0.026 A 
HETATM   21  H   UNL     1      42.836 -19.506   1.158  1.00  0.00     0.170 HD
ENDBRANCH   8  10
ENDBRANCH   7   8
ENDBRANCH   4   7
BRANCH   2  22
HETATM   22  O   UNL     1      43.964 -11.667   7.300  1.00  0.00    -0.353 OA
HETATM   23  C   UNL     1      45.344 -11.455   7.045  1.00  0.00     0.210 C 
ENDBRANCH   2  22
BRANCH   1  24
HETATM   24  O   UNL     1      41.560 -10.014   7.194  1.00  0.00    -0.339 OA
BRANCH  24  25
HETATM   25  C   UNL     1      42.153  -8.719   7.242  1.00  0.00     0.278 C 
BRANCH  25  26
HETATM   26  C   UNL     1      43.126  -8.500   8.408  1.00  0.00     0.242 C 
HETATM   27  N   UNL     1      43.159  -9.533   9.321  1.00  0.00    -0.351 N 
HETATM   28  H   UNL     1      42.453 -10.252   9.192  1.00  0.00     0.163 HD
HETATM   29  O   UNL     1      43.808  -7.483   8.490  1.00  0.00    -0.271 OA
BRANCH  27  30
HETATM   30  C   UNL     1      43.959  -9.566  10.551  1.00  0.00     0.022 C 
HETATM   31  C   UNL     1      43.606  -8.374  11.453  1.00  0.00     0.037 C 
HETATM   32  C   UNL     1      45.465  -9.567  10.243  1.00  0.00     0.037 C 
HETATM   33  C   UNL     1      43.624 -10.868  11.301  1.00  0.00     0.037 C 
ENDBRANCH  27  30
ENDBRANCH  25  26
ENDBRANCH  24  25
ENDBRANCH   1  24
TORSDOF 8
ENDMDL
MODEL 2
REMARK VINA RESULT:      -7.8      1.396      2.559
REMARK  8 active torsions:
REMARK  status: ('A' for Active; 'I' for Inactive)
REMARK    1  A    between atoms: C_2  and  N_3 
REMARK       I    between atoms: N_3  and  C_4 
REMARK    2  A    between atoms: C_4  and  C_5 
REMARK    3  A    between atoms: C_5  and  O_6 
REMARK    4  A    between atoms: O_6  and  C_7 
REMARK    5  A    between atoms: C_8  and  O_9 
REMARK    6  A    between atoms: C_12  and  C_13 
REMARK    7  A    between atoms: C_13  and  N_14 
REMARK    8  A    between atoms: N_14  and  C_15 
ROOT
HETATM    1  C   UNL     1      44.297 -10.682   7.294  1.00  0.00     0.102 A 
HETATM    2  C   UNL     1      42.909 -10.534   7.128  1.00  0.00     0.102 A 
HETATM    3  C   UNL     1      42.186 -11.524   6.443  1.00  0.00     0.048 A 
HETATM    4  C   UNL     1      42.807 -12.680   5.956  1.00  0.00    -0.042 A 
HETATM    5  C   UNL     1      44.187 -12.819   6.128  1.00  0.00     0.011 A 
HETATM    6  C   UNL     1      44.921 -11.835   6.795  1.00  0.00     0.040 A 
ENDROOT
BRANCH   4   7
HETATM    7  C   UNL     1      42.011 -13.752   5.255  1.00  0.00     0.131 C 
BRANCH   7   8
HETATM    8  N   UNL     1      42.805 -14.320   4.173  1.00  0.00    -0.289 NA
HETATM    9  H   UNL     1      42.458 -14.030   3.262  1.00  0.00     0.128 HD
BRANCH   8  10
HETATM   10  C   UNL     1      43.106 -15.691   4.209  1.00  0.00     0.010 A 
HETATM   11  C   UNL     1      42.905 -16.449   3.041  1.00  0.00     0.055 A 
HETATM   12  C   UNL     1      43.261 -17.778   3.065  1.00  0.00     0.065 A 
HETATM   13  C   UNL     1      43.840 -18.371   4.181  1.00  0.00     0.063 A 
HETATM   14  N   UNL     1      43.150 -18.750   2.076  1.00  0.00    -0.306 N 
HETATM   15  N   UNL     1      44.084 -19.705   3.885  1.00  0.00    -0.307 N 
HETATM   16  C   UNL     1      44.097 -17.663   5.328  1.00  0.00     0.034 A 
HETATM   17  C   UNL     1      43.658 -19.959   2.572  1.00  0.00     0.325 A 
HETATM   18  H   UNL     1      44.501 -20.400   4.482  1.00  0.00     0.170 HD
HETATM   19  O   UNL     1      43.718 -21.022   1.981  1.00  0.00    -0.247 OA
HETATM   20  C   UNL     1      43.734 -16.308   5.325  1.00  0.00     0.026 A 
HETATM   21  H   UNL     1      42.775 -18.638   1.148  1.00  0.00     0.170 HD
ENDBRANCH   8  10
ENDBRANCH   7   8
ENDBRANCH   4   7
BRANCH   2  22
HETATM   22  O   UNL     1      42.108  -9.499   7.534  1.00  0.00    -0.353 OA
HETATM   23  C   UNL     1      41.771  -8.488   6.596  1.00  0.00     0.210 C 
ENDBRANCH   2  22
BRANCH   1  24
HETATM   24  O   UNL     1      44.983  -9.722   7.990  1.00  0.00    -0.339 OA
BRANCH  24  25
HETATM   25  C   UNL     1      45.491 -10.058   9.278  1.00  0.00     0.278 C 
BRANCH  25  26
HETATM   26  C   UNL     1      44.459 -10.001  10.412  1.00  0.00     0.242 C 
HETATM   27  N   UNL     1      43.641  -8.892  10.379  1.00  0.00    -0.351 N 
HETATM   28  H   UNL     1      43.894  -8.182   9.698  1.00  0.00     0.163 HD
HETATM   29  O   UNL     1      44.387 -10.888  11.257  1.00  0.00    -0.271 OA
BRANCH  27  30
HETATM   30  C   UNL     1      42.604  -8.561  11.365  1.00  0.00     0.022 C 
HETATM   31  C   UNL     1      43.238  -8.257  12.729  1.00  0.00     0.037 C 
HETATM   32  C   UNL     1      41.576  -9.696  11.500  1.00  0.00     0.037 C 
HETATM   33  C   UNL     1      41.866  -7.303  10.872  1.00  0.00     0.037 C 
ENDBRANCH  27  30
ENDBRANCH  25  26
ENDBRANCH  24  25
ENDBRANCH   1  24
TORSDOF 8
ENDMDL
MODEL 3
REMARK VINA RESULT:      -7.5      2.591      9.488
REMARK  8 active torsions:
REMARK  status: ('A' for Active; 'I' for Inactive)
REMARK    1  A    between atoms: C_2  and  N_3 
REMARK       I    between atoms: N_3  and  C_4 
REMARK    2  A    between atoms: C_4  and  C_5 
REMARK    3  A    between atoms: C_5  and  O_6 
REMARK    4  A    between atoms: O_6  and  C_7 
REMARK    5  A    between atoms: C_8  and  O_9 
REMARK    6  A    between atoms: C_12  and  C_13 
REMARK    7  A    between atoms: C_13  and  N_14 
REMARK    8  A    between atoms: N_14  and  C_15 
ROOT
HETATM    1  C   UNL     1      43.506 -12.096   6.318  1.00  0.00     0.102 A 
HETATM    2  C   UNL     1      42.778 -10.902   6.179  1.00  0.00     0.102 A 
HETATM    3  C   UNL     1      43.144  -9.779   6.938  1.00  0.00     0.048 A 
HETATM    4  C   UNL     1      44.246  -9.804   7.801  1.00  0.00    -0.042 A 
HETATM    5  C   UNL     1      44.964 -10.996   7.930  1.00  0.00     0.011 A 
HETATM    6  C   UNL     1      44.602 -12.126   7.192  1.00  0.00     0.040 A 
ENDROOT
BRANCH   4   7
HETATM    7  C   UNL     1      44.649  -8.578   8.582  1.00  0.00     0.131 C 
BRANCH   7   8
HETATM    8  N   UNL     1      43.457  -7.897   9.070  1.00  0.00    -0.289 NA
HETATM    9  H   UNL     1      43.589  -6.889   9.100  1.00  0.00     0.128 HD
BRANCH   8  10
HETATM   10  C   UNL     1      42.833  -8.382  10.230  1.00  0.00     0.010 A 
HETATM   11  C   UNL     1      41.626  -9.092  10.092  1.00  0.00     0.055 A 
HETATM   12  C   UNL     1      41.054  -9.618  11.228  1.00  0.00     0.065 A 
HETATM   13  C   UNL     1      41.647  -9.500  12.480  1.00  0.00     0.063 A 
HETATM   14  N   UNL     1      39.869 -10.331  11.382  1.00  0.00    -0.306 N 
HETATM   15  N   UNL     1      40.830 -10.136  13.406  1.00  0.00    -0.307 N 
HETATM   16  C   UNL     1      42.844  -8.856  12.659  1.00  0.00     0.034 A 
HETATM   17  C   UNL     1      39.714 -10.661  12.737  1.00  0.00     0.325 A 
HETATM   18  H   UNL     1      40.985 -10.231  14.396  1.00  0.00     0.170 HD
HETATM   19  O   UNL     1      38.792 -11.281  13.235  1.00  0.00    -0.247 OA
HETATM   20  C   UNL     1      43.439  -8.307  11.513  1.00  0.00     0.026 A 
HETATM   21  H   UNL     1      39.211 -10.587  10.664  1.00  0.00     0.170 HD
ENDBRANCH   8  10
ENDBRANCH   7   8
ENDBRANCH   4   7
BRANCH   2  22
HETATM   22  O   UNL     1      41.686 -10.656   5.388  1.00  0.00    -0.353 OA
HETATM   23  C   UNL     1      41.890 -10.141   4.082  1.00  0.00     0.210 C 
ENDBRANCH   2  22
BRANCH   1  24
HETATM   24  O   UNL     1      43.154 -13.174   5.548  1.00  0.00    -0.339 OA
BRANCH  24  25
HETATM   25  C   UNL     1      43.325 -14.478   6.097  1.00  0.00     0.278 C 
BRANCH  25  26
HETATM   26  C   UNL     1      42.846 -15.623   5.195  1.00  0.00     0.242 C 
HETATM   27  N   UNL     1      43.202 -15.489   3.870  1.00  0.00    -0.351 N 
HETATM   28  H   UNL     1      43.622 -14.599   3.619  1.00  0.00     0.163 HD
HETATM   29  O   UNL     1      42.206 -16.568   5.647  1.00  0.00    -0.271 OA
BRANCH  27  30
HETATM   30  C   UNL     1      42.835 -16.408   2.786  1.00  0.00     0.022 C 
HETATM   31  C   UNL     1      41.309 -16.495   2.649  1.00  0.00     0.037 C 
HETATM   32  C   UNL     1      43.426 -17.809   3.013  1.00  0.00     0.037 C 
HETATM   33  C   UNL     1      43.418 -15.850   1.474  1.00  0.00     0.037 C 
ENDBRANCH  27  30
ENDBRANCH  25  26
ENDBRANCH  24  25
ENDBRANCH   1  24
TORSDOF 8
ENDMDL
MODEL 4
REMARK VINA RESULT:      -7.4      2.862      3.998
REMARK  8 active torsions:
REMARK  status: ('A' for Active; 'I' for Inactive)
REMARK    1  A    between atoms: C_2  and  N_3 
REMARK       I    between atoms: N_3  and  C_4 
REMARK    2  A    between atoms: C_4  and  C_5 
REMARK    3  A    between atoms: C_5  and  O_6 
REMARK    4  A    between atoms: O_6  and  C_7 
REMARK    5  A    between atoms: C_8  and  O_9 
REMARK    6  A    between atoms: C_12  and  C_13 
REMARK    7  A    between atoms: C_13  and  N_14 
REMARK    8  A    between atoms: N_14  and  C_15 
ROOT
HETATM    1  C   UNL     1      42.509 -11.238   6.535  1.00  0.00     0.102 A 
HETATM    2  C   UNL     1      43.588 -12.057   6.909  1.00  0.00     0.102 A 
HETATM    3  C   UNL     1      43.625 -13.392   6.474  1.00  0.00     0.048 A 
HETATM    4  C   UNL     1      42.634 -13.918   5.638  1.00  0.00    -0.042 A 
HETATM    5  C   UNL     1      41.566 -13.096   5.270  1.00  0.00     0.011 A 
HETATM    6  C   UNL     1      41.509 -11.770   5.707  1.00  0.00     0.040 A 
ENDROOT
BRANCH   4   7
HETATM    7  C   UNL     1      42.707 -15.343   5.149  1.00  0.00     0.131 C 
BRANCH   7   8
HETATM    8  N   UNL     1      43.092 -15.357   3.744  1.00  0.00    -0.289 NA
HETATM    9  H   UNL     1      43.891 -14.751   3.570  1.00  0.00     0.128 HD
BRANCH   8  10
HETATM   10  C   UNL     1      42.092 -15.201   2.771  1.00  0.00     0.010 A 
HETATM   11  C   UNL     1      42.264 -14.207   1.790  1.00  0.00     0.055 A 
HETATM   12  C   UNL     1      41.310 -14.103   0.804  1.00  0.00     0.065 A 
HETATM   13  C   UNL     1      40.220 -14.963   0.732  1.00  0.00     0.063 A 
HETATM   14  N   UNL     1      41.218 -13.209  -0.259  1.00  0.00    -0.306 N 
HETATM   15  N   UNL     1      39.456 -14.600  -0.370  1.00  0.00    -0.307 N 
HETATM   16  C   UNL     1      40.032 -15.974   1.638  1.00  0.00     0.034 A 
HETATM   17  C   UNL     1      40.065 -13.505  -1.000  1.00  0.00     0.325 A 
HETATM   18  H   UNL     1      38.607 -15.032  -0.696  1.00  0.00     0.170 HD
HETATM   19  O   UNL     1      39.670 -12.926  -1.995  1.00  0.00    -0.247 OA
HETATM   20  C   UNL     1      40.991 -16.092   2.656  1.00  0.00     0.026 A 
HETATM   21  H   UNL     1      41.856 -12.464  -0.487  1.00  0.00     0.170 HD
ENDBRANCH   8  10
ENDBRANCH   7   8
ENDBRANCH   4   7
BRANCH   2  22
HETATM   22  O   UNL     1      44.661 -11.743   7.701  1.00  0.00    -0.353 OA
HETATM   23  C   UNL     1      45.793 -11.128   7.105  1.00  0.00     0.210 C 
ENDBRANCH   2  22
BRANCH   1  24
HETATM   24  O   UNL     1      42.502  -9.930   6.943  1.00  0.00    -0.339 OA
BRANCH  24  25
HETATM   25  C   UNL     1      41.491  -9.515   7.856  1.00  0.00     0.278 C 
BRANCH  25  26
HETATM   26  C   UNL     1      41.945  -9.418   9.318  1.00  0.00     0.242 C 
HETATM   27  N   UNL     1      43.291  -9.644   9.510  1.00  0.00    -0.351 N 
HETATM   28  H   UNL     1      43.799  -9.972   8.695  1.00  0.00     0.163 HD
HETATM   29  O   UNL     1      41.153  -9.152  10.218  1.00  0.00    -0.271 OA
BRANCH  27  30
HETATM   30  C   UNL     1      43.982  -9.661  10.805  1.00  0.00     0.022 C 
HETATM   31  C   UNL     1      43.650 -10.948  11.574  1.00  0.00     0.037 C 
HETATM   32  C   UNL     1      43.619  -8.431  11.653  1.00  0.00     0.037 C 
HETATM   33  C   UNL     1      45.498  -9.625  10.536  1.00  0.00     0.037 C 
ENDBRANCH  27  30
ENDBRANCH  25  26
ENDBRANCH  24  25
ENDBRANCH   1  24
TORSDOF 8
ENDMDL
MODEL 5
REMARK VINA RESULT:      -7.3      3.390      4.926
REMARK  8 active torsions:
REMARK  status: ('A' for Active; 'I' for Inactive)
REMARK    1  A    between atoms: C_2  and  N_3 
REMARK       I    between atoms: N_3  and  C_4 
REMARK    2  A    between atoms: C_4  and  C_5 
REMARK    3  A    between atoms: C_5  and  O_6 
REMARK    4  A    between atoms: O_6  and  C_7 
REMARK    5  A    between atoms: C_8  and  O_9 
REMARK    6  A    between atoms: C_12  and  C_13 
REMARK    7  A    between atoms: C_13  and  N_14 
REMARK    8  A    between atoms: N_14  and  C_15 
ROOT
HETATM    1  C   UNL     1      43.731 -13.124   6.596  1.00  0.00     0.102 A 
HETATM    2  C   UNL     1      43.447 -12.721   5.280  1.00  0.00     0.102 A 
HETATM    3  C   UNL     1      42.654 -13.542   4.462  1.00  0.00     0.048 A 
HETATM    4  C   UNL     1      42.100 -14.735   4.939  1.00  0.00    -0.042 A 
HETATM    5  C   UNL     1      42.386 -15.127   6.250  1.00  0.00     0.011 A 
HETATM    6  C   UNL     1      43.186 -14.326   7.070  1.00  0.00     0.040 A 
ENDROOT
BRANCH   4   7
HETATM    7  C   UNL     1      41.220 -15.589   4.060  1.00  0.00     0.131 C 
BRANCH   7   8
HETATM    8  N   UNL     1      39.980 -14.877   3.775  1.00  0.00    -0.289 NA
HETATM    9  H   UNL     1      39.166 -15.466   3.936  1.00  0.00     0.128 HD
BRANCH   8  10
HETATM   10  C   UNL     1      39.880 -14.156   2.575  1.00  0.00     0.010 A 
HETATM   11  C   UNL     1      40.318 -14.772   1.388  1.00  0.00     0.055 A 
HETATM   12  C   UNL     1      40.158 -14.083   0.208  1.00  0.00     0.065 A 
HETATM   13  C   UNL     1      39.551 -12.833   0.154  1.00  0.00     0.063 A 
HETATM   14  N   UNL     1      40.519 -14.438  -1.089  1.00  0.00    -0.306 N 
HETATM   15  N   UNL     1      39.539 -12.416  -1.170  1.00  0.00    -0.307 N 
HETATM   16  C   UNL     1      39.069 -12.212   1.277  1.00  0.00     0.034 A 
HETATM   17  C   UNL     1      40.140 -13.407  -1.961  1.00  0.00     0.325 A 
HETATM   18  H   UNL     1      39.164 -11.557  -1.539  1.00  0.00     0.170 HD
HETATM   19  O   UNL     1      40.301 -13.377  -3.167  1.00  0.00    -0.247 OA
HETATM   20  C   UNL     1      39.229 -12.896   2.491  1.00  0.00     0.026 A 
HETATM   21  H   UNL     1      40.974 -15.285  -1.387  1.00  0.00     0.170 HD
ENDBRANCH   8  10
ENDBRANCH   7   8
ENDBRANCH   4   7
BRANCH   2  22
HETATM   22  O   UNL     1      43.871 -11.595   4.623  1.00  0.00    -0.353 OA
HETATM   23  C   UNL     1      43.279 -11.267   3.376  1.00  0.00     0.210 C 
ENDBRANCH   2  22
BRANCH   1  24
HETATM   24  O   UNL     1      44.482 -12.297   7.390  1.00  0.00    -0.339 OA
BRANCH  24  25
HETATM   25  C   UNL     1      43.916 -11.053   7.792  1.00  0.00     0.278 C 
BRANCH  25  26
HETATM   26  C   UNL     1      44.122 -10.701   9.271  1.00  0.00     0.242 C 
HETATM   27  N   UNL     1      42.964 -10.376   9.944  1.00  0.00    -0.351 N 
HETATM   28  H   UNL     1      42.135 -10.279   9.364  1.00  0.00     0.163 HD
HETATM   29  O   UNL     1      45.237 -10.724   9.784  1.00  0.00    -0.271 OA
BRANCH  27  30
HETATM   30  C   UNL     1      42.876  -9.953  11.347  1.00  0.00     0.022 C 
HETATM   31  C   UNL     1      43.660  -8.652  11.566  1.00  0.00     0.037 C 
HETATM   32  C   UNL     1      43.392 -11.047  12.296  1.00  0.00     0.037 C 
HETATM   33  C   UNL     1      41.394  -9.697  11.674  1.00  0.00     0.037 C 
ENDBRANCH  27  30
ENDBRANCH  25  26
ENDBRANCH  24  25
ENDBRANCH   1  24
TORSDOF 8
ENDMDL
MODEL 6
REMARK VINA RESULT:      -7.3      2.010      2.440
REMARK  8 active torsions:
REMARK  status: ('A' for Active; 'I' for Inactive)
REMARK    1  A    between atoms: C_2  and  N_3 
REMARK       I    between atoms: N_3  and  C_4 
REMARK    2  A    between atoms: C_4  and  C_5 
REMARK    3  A    between atoms: C_5  and  O_6 
REMARK    4  A    between atoms: O_6  and  C_7 
REMARK    5  A    between atoms: C_8  and  O_9 
REMARK    6  A    between atoms: C_12  and  C_13 
REMARK    7  A    between atoms: C_13  and  N_14 
REMARK    8  A    between atoms: N_14  and  C_15 
ROOT
HETATM    1  C   UNL     1      42.848 -10.463   7.249  1.00  0.00     0.102 A 
HETATM    2  C   UNL     1      43.967 -11.297   7.088  1.00  0.00     0.102 A 
HETATM    3  C   UNL     1      44.064 -12.109   5.946  1.00  0.00     0.048 A 
HETATM    4  C   UNL     1      43.093 -12.076   4.939  1.00  0.00    -0.042 A 
HETATM    5  C   UNL     1      41.985 -11.242   5.108  1.00  0.00     0.011 A 
HETATM    6  C   UNL     1      41.868 -10.440   6.246  1.00  0.00     0.040 A 
ENDROOT
BRANCH   4   7
HETATM    7  C   UNL     1      43.230 -12.927   3.701  1.00  0.00     0.131 C 
BRANCH   7   8
HETATM    8  N   UNL     1      42.290 -14.038   3.767  1.00  0.00    -0.289 NA
HETATM    9  H   UNL     1      41.700 -13.980   4.594  1.00  0.00     0.128 HD
BRANCH   8  10
HETATM   10  C   UNL     1      42.772 -15.340   3.555  1.00  0.00     0.010 A 
HETATM   11  C   UNL     1      43.124 -16.111   4.677  1.00  0.00     0.055 A 
HETATM   12  C   UNL     1      43.536 -17.407   4.464  1.00  0.00     0.065 A 
HETATM   13  C   UNL     1      43.577 -17.975   3.196  1.00  0.00     0.063 A 
HETATM   14  N   UNL     1      43.960 -18.370   5.375  1.00  0.00    -0.306 N 
HETATM   15  N   UNL     1      44.026 -19.283   3.321  1.00  0.00    -0.307 N 
HETATM   16  C   UNL     1      43.202 -17.277   2.077  1.00  0.00     0.034 A 
HETATM   17  C   UNL     1      44.271 -19.546   4.677  1.00  0.00     0.325 A 
HETATM   18  H   UNL     1      44.158 -19.959   2.587  1.00  0.00     0.170 HD
HETATM   19  O   UNL     1      44.674 -20.591   5.154  1.00  0.00    -0.247 OA
HETATM   20  C   UNL     1      42.785 -15.952   2.272  1.00  0.00     0.026 A 
HETATM   21  H   UNL     1      44.040 -18.273   6.374  1.00  0.00     0.170 HD
ENDBRANCH   8  10
ENDBRANCH   7   8
ENDBRANCH   4   7
BRANCH   2  22
HETATM   22  O   UNL     1      45.030 -11.471   7.936  1.00  0.00    -0.353 OA
HETATM   23  C   UNL     1      46.191 -10.676   7.747  1.00  0.00     0.210 C 
ENDBRANCH   2  22
BRANCH   1  24
HETATM   24  O   UNL     1      42.782  -9.656   8.355  1.00  0.00    -0.339 OA
BRANCH  24  25
HETATM   25  C   UNL     1      41.500  -9.216   8.793  1.00  0.00     0.278 C 
BRANCH  25  26
HETATM   26  C   UNL     1      41.417  -8.858  10.283  1.00  0.00     0.242 C 
HETATM   27  N   UNL     1      40.643  -9.719  11.031  1.00  0.00    -0.351 N 
HETATM   28  H   UNL     1      40.116 -10.406  10.500  1.00  0.00     0.163 HD
HETATM   29  O   UNL     1      42.008  -7.885  10.740  1.00  0.00    -0.271 OA
BRANCH  27  30
HETATM   30  C   UNL     1      40.353  -9.587  12.464  1.00  0.00     0.022 C 
HETATM   31  C   UNL     1      39.569  -8.295  12.736  1.00  0.00     0.037 C 
HETATM   32  C   UNL     1      41.642  -9.609  13.302  1.00  0.00     0.037 C 
HETATM   33  C   UNL     1      39.488 -10.788  12.886  1.00  0.00     0.037 C 
ENDBRANCH  27  30
ENDBRANCH  25  26
ENDBRANCH  24  25
ENDBRANCH   1  24
TORSDOF 8
ENDMDL
MODEL 7
REMARK VINA RESULT:      -7.2      1.631      2.490
REMARK  8 active torsions:
REMARK  status: ('A' for Active; 'I' for Inactive)
REMARK    1  A    between atoms: C_2  and  N_3 
REMARK       I    between atoms: N_3  and  C_4 
REMARK    2  A    between atoms: C_4  and  C_5 
REMARK    3  A    between atoms: C_5  and  O_6 
REMARK    4  A    between atoms: O_6  and  C_7 
REMARK    5  A    between atoms: C_8  and  O_9 
REMARK    6  A    between atoms: C_12  and  C_13 
REMARK    7  A    between atoms: C_13  and  N_14 
REMARK    8  A    between atoms: N_14  and  C_15 
ROOT
HETATM    1  C   UNL     1      43.176 -11.142   5.440  1.00  0.00     0.102 A 
HETATM    2  C   UNL     1      41.808 -11.054   5.752  1.00  0.00     0.102 A 
HETATM    3  C   UNL     1      40.862 -11.596   4.867  1.00  0.00     0.048 A 
HETATM    4  C   UNL     1      41.249 -12.264   3.700  1.00  0.00    -0.042 A 
HETATM    5  C   UNL     1      42.611 -12.348   3.399  1.00  0.00     0.011 A 
HETATM    6  C   UNL     1      43.563 -11.799   4.264  1.00  0.00     0.040 A 
ENDROOT
BRANCH   4   7
HETATM    7  C   UNL     1      40.222 -12.874   2.778  1.00  0.00     0.131 C 
BRANCH   7   8
HETATM    8  N   UNL     1      39.691 -14.091   3.378  1.00  0.00    -0.289 NA
HETATM    9  H   UNL     1      39.033 -13.882   4.125  1.00  0.00     0.128 HD
BRANCH   8  10
HETATM   10  C   UNL     1      40.588 -15.111   3.735  1.00  0.00     0.010 A 
HETATM   11  C   UNL     1      41.213 -15.839   2.707  1.00  0.00     0.055 A 
HETATM   12  C   UNL     1      42.138 -16.794   3.065  1.00  0.00     0.065 A 
HETATM   13  C   UNL     1      42.490 -17.027   4.389  1.00  0.00     0.063 A 
HETATM   14  N   UNL     1      42.877 -17.664   2.268  1.00  0.00    -0.306 N 
HETATM   15  N   UNL     1      43.441 -18.038   4.412  1.00  0.00    -0.307 N 
HETATM   16  C   UNL     1      41.940 -16.313   5.423  1.00  0.00     0.034 A 
HETATM   17  C   UNL     1      43.694 -18.448   3.095  1.00  0.00     0.325 A 
HETATM   18  H   UNL     1      43.899 -18.431   5.218  1.00  0.00     0.170 HD
HETATM   19  O   UNL     1      44.471 -19.315   2.739  1.00  0.00    -0.247 OA
HETATM   20  C   UNL     1      40.991 -15.339   5.079  1.00  0.00     0.026 A 
HETATM   21  H   UNL     1      42.854 -17.742   1.265  1.00  0.00     0.170 HD
ENDBRANCH   8  10
ENDBRANCH   7   8
ENDBRANCH   4   7
BRANCH   2  22
HETATM   22  O   UNL     1      41.218 -10.462   6.839  1.00  0.00    -0.353 OA
HETATM   23  C   UNL     1      39.802 -10.463   6.932  1.00  0.00     0.210 C 
ENDBRANCH   2  22
BRANCH   1  24
HETATM   24  O   UNL     1      44.087 -10.633   6.328  1.00  0.00    -0.339 OA
BRANCH  24  25
HETATM   25  C   UNL     1      44.503 -11.458   7.413  1.00  0.00     0.278 C 
BRANCH  25  26
HETATM   26  C   UNL     1      44.433 -10.790   8.792  1.00  0.00     0.242 C 
HETATM   27  N   UNL     1      43.185 -10.311   9.128  1.00  0.00    -0.351 N 
HETATM   28  H   UNL     1      42.494 -10.336   8.385  1.00  0.00     0.163 HD
HETATM   29  O   UNL     1      45.422 -10.710   9.515  1.00  0.00    -0.271 OA
BRANCH  27  30
HETATM   30  C   UNL     1      42.847  -9.587  10.359  1.00  0.00     0.022 C 
HETATM   31  C   UNL     1      43.544  -8.220  10.388  1.00  0.00     0.037 C 
HETATM   32  C   UNL     1      43.224 -10.398  11.610  1.00  0.00     0.037 C 
HETATM   33  C   UNL     1      41.323  -9.365  10.376  1.00  0.00     0.037 C 
ENDBRANCH  27  30
ENDBRANCH  25  26
ENDBRANCH  24  25
ENDBRANCH   1  24
TORSDOF 8
ENDMDL
MODEL 8
REMARK VINA RESULT:      -7.1      4.547      7.233
REMARK  8 active torsions:
REMARK  status: ('A' for Active; 'I' for Inactive)
REMARK    1  A    between atoms: C_2  and  N_3 
REMARK       I    between atoms: N_3  and  C_4 
REMARK    2  A    between atoms: C_4  and  C_5 
REMARK    3  A    between atoms: C_5  and  O_6 
REMARK    4  A    between atoms: O_6  and  C_7 
REMARK    5  A    between atoms: C_8  and  O_9 
REMARK    6  A    between atoms: C_12  and  C_13 
REMARK    7  A    between atoms: C_13  and  N_14 
REMARK    8  A    between atoms: N_14  and  C_15 
ROOT
HETATM    1  C   UNL     1      39.256 -11.368   2.586  1.00  0.00     0.102 A 
HETATM    2  C   UNL     1      40.492 -10.715   2.448  1.00  0.00     0.102 A 
HETATM    3  C   UNL     1      41.677 -11.408   2.744  1.00  0.00     0.048 A 
HETATM    4  C   UNL     1      41.661 -12.752   3.134  1.00  0.00    -0.042 A 
HETATM    5  C   UNL     1      40.427 -13.394   3.267  1.00  0.00     0.011 A 
HETATM    6  C   UNL     1      39.240 -12.711   2.989  1.00  0.00     0.040 A 
ENDROOT
BRANCH   4   7
HETATM    7  C   UNL     1      42.945 -13.494   3.414  1.00  0.00     0.131 C 
BRANCH   7   8
HETATM    8  N   UNL     1      42.764 -14.361   4.571  1.00  0.00    -0.289 NA
HETATM    9  H   UNL     1      43.153 -13.944   5.414  1.00  0.00     0.128 HD
BRANCH   8  10
HETATM   10  C   UNL     1      43.099 -15.719   4.452  1.00  0.00     0.010 A 
HETATM   11  C   UNL     1      42.814 -16.373   3.240  1.00  0.00     0.055 A 
HETATM   12  C   UNL     1      43.203 -17.686   3.109  1.00  0.00     0.065 A 
HETATM   13  C   UNL     1      43.891 -18.360   4.111  1.00  0.00     0.063 A 
HETATM   14  N   UNL     1      43.028 -18.568   2.046  1.00  0.00    -0.306 N 
HETATM   15  N   UNL     1      44.139 -19.654   3.671  1.00  0.00    -0.307 N 
HETATM   16  C   UNL     1      44.230 -17.753   5.293  1.00  0.00     0.034 A 
HETATM   17  C   UNL     1      43.606 -19.800   2.382  1.00  0.00     0.325 A 
HETATM   18  H   UNL     1      44.623 -20.387   4.164  1.00  0.00     0.170 HD
HETATM   19  O   UNL     1      43.638 -20.802   1.691  1.00  0.00    -0.247 OA
HETATM   20  C   UNL     1      43.837 -16.415   5.448  1.00  0.00     0.026 A 
HETATM   21  H   UNL     1      42.571 -18.383   1.168  1.00  0.00     0.170 HD
ENDBRANCH   8  10
ENDBRANCH   7   8
ENDBRANCH   4   7
BRANCH   2  22
HETATM   22  O   UNL     1      40.733  -9.419   2.069  1.00  0.00    -0.353 OA
HETATM   23  C   UNL     1      40.838  -9.120   0.686  1.00  0.00     0.210 C 
ENDBRANCH   2  22
BRANCH   1  24
HETATM   24  O   UNL     1      38.111 -10.687   2.265  1.00  0.00    -0.339 OA
BRANCH  24  25
HETATM   25  C   UNL     1      37.186 -11.307   1.376  1.00  0.00     0.278 C 
BRANCH  25  26
HETATM   26  C   UNL     1      37.679 -11.446  -0.071  1.00  0.00     0.242 C 
HETATM   27  N   UNL     1      38.066 -12.722  -0.418  1.00  0.00    -0.351 N 
HETATM   28  H   UNL     1      38.106 -13.390   0.347  1.00  0.00     0.163 HD
HETATM   29  O   UNL     1      37.707 -10.483  -0.832  1.00  0.00    -0.271 OA
BRANCH  27  30
HETATM   30  C   UNL     1      38.622 -13.128  -1.715  1.00  0.00     0.022 C 
HETATM   31  C   UNL     1      39.756 -12.181  -2.132  1.00  0.00     0.037 C 
HETATM   32  C   UNL     1      37.537 -13.165  -2.803  1.00  0.00     0.037 C 
HETATM   33  C   UNL     1      39.195 -14.549  -1.562  1.00  0.00     0.037 C 
ENDBRANCH  27  30
ENDBRANCH  25  26
ENDBRANCH  24  25
ENDBRANCH   1  24
TORSDOF 8
ENDMDL
MODEL 9
REMARK VINA RESULT:      -7.0      4.184      5.522
REMARK  8 active torsions:
REMARK  status: ('A' for Active; 'I' for Inactive)
REMARK    1  A    between atoms: C_2  and  N_3 
REMARK       I    between atoms: N_3  and  C_4 
REMARK    2  A    between atoms: C_4  and  C_5 
REMARK    3  A    between atoms: C_5  and  O_6 
REMARK    4  A    between atoms: O_6  and  C_7 
REMARK    5  A    between atoms: C_8  and  O_9 
REMARK    6  A    between atoms: C_12  and  C_13 
REMARK    7  A    between atoms: C_13  and  N_14 
REMARK    8  A    between atoms: N_14  and  C_15 
ROOT
HETATM    1  C   UNL     1      42.790 -12.595   6.168  1.00  0.00     0.102 A 
HETATM    2  C   UNL     1      42.668 -13.777   5.418  1.00  0.00     0.102 A 
HETATM    3  C   UNL     1      41.670 -13.870   4.434  1.00  0.00     0.048 A 
HETATM    4  C   UNL     1      40.819 -12.797   4.150  1.00  0.00    -0.042 A 
HETATM    5  C   UNL     1      40.949 -11.625   4.900  1.00  0.00     0.011 A 
HETATM    6  C   UNL     1      41.928 -11.524   5.892  1.00  0.00     0.040 A 
ENDROOT
BRANCH   4   7
HETATM    7  C   UNL     1      39.776 -12.899   3.065  1.00  0.00     0.131 C 
BRANCH   7   8
HETATM    8  N   UNL     1      40.344 -13.576   1.906  1.00  0.00    -0.289 NA
HETATM    9  H   UNL     1      41.353 -13.457   1.862  1.00  0.00     0.128 HD
BRANCH   8  10
HETATM   10  C   UNL     1      39.736 -13.390   0.654  1.00  0.00     0.010 A 
HETATM   11  C   UNL     1      39.801 -14.439  -0.281  1.00  0.00     0.055 A 
HETATM   12  C   UNL     1      39.149 -14.273  -1.482  1.00  0.00     0.065 A 
HETATM   13  C   UNL     1      38.411 -13.132  -1.774  1.00  0.00     0.063 A 
HETATM   14  N   UNL     1      39.071 -15.124  -2.580  1.00  0.00    -0.306 N 
HETATM   15  N   UNL     1      37.880 -13.275  -3.049  1.00  0.00    -0.307 N 
HETATM   16  C   UNL     1      38.282 -12.102  -0.878  1.00  0.00     0.034 A 
HETATM   17  C   UNL     1      38.283 -14.515  -3.567  1.00  0.00     0.325 A 
HETATM   18  H   UNL     1      37.294 -12.625  -3.546  1.00  0.00     0.170 HD
HETATM   19  O   UNL     1      38.003 -14.972  -4.661  1.00  0.00    -0.247 OA
HETATM   20  C   UNL     1      38.945 -12.250   0.349  1.00  0.00     0.026 A 
HETATM   21  H   UNL     1      39.494 -16.032  -2.681  1.00  0.00     0.170 HD
ENDBRANCH   8  10
ENDBRANCH   7   8
ENDBRANCH   4   7
BRANCH   2  22
HETATM   22  O   UNL     1      43.399 -14.932   5.522  1.00  0.00    -0.353 OA
HETATM   23  C   UNL     1      42.918 -16.105   4.885  1.00  0.00     0.210 C 
ENDBRANCH   2  22
BRANCH   1  24
HETATM   24  O   UNL     1      43.787 -12.510   7.104  1.00  0.00    -0.339 OA
BRANCH  24  25
HETATM   25  C   UNL     1      44.433 -11.253   7.287  1.00  0.00     0.278 C 
BRANCH  25  26
HETATM   26  C   UNL     1      44.452 -10.745   8.735  1.00  0.00     0.242 C 
HETATM   27  N   UNL     1      43.225 -10.332   9.207  1.00  0.00    -0.351 N 
HETATM   28  H   UNL     1      42.483 -10.288   8.515  1.00  0.00     0.163 HD
HETATM   29  O   UNL     1      45.488 -10.727   9.393  1.00  0.00    -0.271 OA
BRANCH  27  30
HETATM   30  C   UNL     1      42.965  -9.758  10.533  1.00  0.00     0.022 C 
HETATM   31  C   UNL     1      43.631  -8.381  10.662  1.00  0.00     0.037 C 
HETATM   32  C   UNL     1      43.454 -10.689  11.654  1.00  0.00     0.037 C 
HETATM   33  C   UNL     1      41.442  -9.586  10.685  1.00  0.00     0.037 C 
ENDBRANCH  27  30
ENDBRANCH  25  26
ENDBRANCH  24  25
ENDBRANCH   1  24
TORSDOF 8
ENDMDL
MODEL 10
REMARK VINA RESULT:      -6.9      2.614     10.270
REMARK  8 active torsions:
REMARK  status: ('A' for Active; 'I' for Inactive)
REMARK    1  A    between atoms: C_2  and  N_3 
REMARK       I    between atoms: N_3  and  C_4 
REMARK    2  A    between atoms: C_4  and  C_5 
REMARK    3  A    between atoms: C_5  and  O_6 
REMARK    4  A    between atoms: O_6  and  C_7 
REMARK    5  A    between atoms: C_8  and  O_9 
REMARK    6  A    between atoms: C_12  and  C_13 
REMARK    7  A    between atoms: C_13  and  N_14 
REMARK    8  A    between atoms: N_14  and  C_15 
ROOT
HETATM    1  C   UNL     1      43.735 -12.091   6.278  1.00  0.00     0.102 A 
HETATM    2  C   UNL     1      42.873 -11.016   6.553  1.00  0.00     0.102 A 
HETATM    3  C   UNL     1      43.341  -9.933   7.314  1.00  0.00     0.048 A 
HETATM    4  C   UNL     1      44.662  -9.876   7.771  1.00  0.00    -0.042 A 
HETATM    5  C   UNL     1      45.513 -10.949   7.490  1.00  0.00     0.011 A 
HETATM    6  C   UNL     1      45.055 -12.040   6.746  1.00  0.00     0.040 A 
ENDROOT
BRANCH   4   7
HETATM    7  C   UNL     1      45.162  -8.688   8.556  1.00  0.00     0.131 C 
BRANCH   7   8
HETATM    8  N   UNL     1      44.143  -7.647   8.564  1.00  0.00    -0.289 NA
HETATM    9  H   UNL     1      44.480  -6.791   8.127  1.00  0.00     0.128 HD
BRANCH   8  10
HETATM   10  C   UNL     1      43.453  -7.390   9.759  1.00  0.00     0.010 A 
HETATM   11  C   UNL     1      43.494  -8.362  10.775  1.00  0.00     0.055 A 
HETATM   12  C   UNL     1      42.868  -8.077  11.967  1.00  0.00     0.065 A 
HETATM   13  C   UNL     1      42.239  -6.859  12.202  1.00  0.00     0.063 A 
HETATM   14  N   UNL     1      42.734  -8.854  13.114  1.00  0.00    -0.306 N 
HETATM   15  N   UNL     1      41.716  -6.884  13.488  1.00  0.00    -0.307 N 
HETATM   16  C   UNL     1      42.210  -5.864  11.259  1.00  0.00     0.034 A 
HETATM   17  C   UNL     1      42.016  -8.124  14.072  1.00  0.00     0.325 A 
HETATM   18  H   UNL     1      41.209  -6.152  13.958  1.00  0.00     0.170 HD
HETATM   19  O   UNL     1      41.712  -8.493  15.192  1.00  0.00    -0.247 OA
HETATM   20  C   UNL     1      42.837  -6.139  10.035  1.00  0.00     0.026 A 
HETATM   21  H   UNL     1      43.083  -9.786  13.265  1.00  0.00     0.170 HD
ENDBRANCH   8  10
ENDBRANCH   7   8
ENDBRANCH   4   7
BRANCH   2  22
HETATM   22  O   UNL     1      41.559 -10.864   6.193  1.00  0.00    -0.353 OA
HETATM   23  C   UNL     1      40.725 -10.035   6.988  1.00  0.00     0.210 C 
ENDBRANCH   2  22
BRANCH   1  24
HETATM   24  O   UNL     1      43.271 -13.127   5.509  1.00  0.00    -0.339 OA
BRANCH  24  25
HETATM   25  C   UNL     1      43.100 -14.400   6.126  1.00  0.00     0.278 C 
BRANCH  25  26
HETATM   26  C   UNL     1      42.617 -15.510   5.184  1.00  0.00     0.242 C 
HETATM   27  N   UNL     1      43.128 -15.433   3.906  1.00  0.00    -0.351 N 
HETATM   28  H   UNL     1      43.654 -14.590   3.696  1.00  0.00     0.163 HD
HETATM   29  O   UNL     1      41.845 -16.384   5.568  1.00  0.00    -0.271 OA
BRANCH  27  30
HETATM   30  C   UNL     1      42.797 -16.332   2.794  1.00  0.00     0.022 C 
HETATM   31  C   UNL     1      43.428 -15.827   1.489  1.00  0.00     0.037 C 
HETATM   32  C   UNL     1      41.276 -16.479   2.623  1.00  0.00     0.037 C 
HETATM   33  C   UNL     1      43.377 -17.721   3.118  1.00  0.00     0.037 C 
ENDBRANCH  27  30
ENDBRANCH  25  26
ENDBRANCH  24  25
ENDBRANCH   1  24
TORSDOF 8
ENDMDL
