MODEL 1
REMARK VINA RESULT:      -9.6      0.000      0.000
REMARK  3 active torsions:
REMARK  status: ('A' for Active; 'I' for Inactive)
REMARK    1  A    between atoms: C_9  and  C_10 
REMARK       I    between atoms: C_10  and  N_11 
REMARK    2  A    between atoms: N_11  and  C_12 
REMARK    3  A    between atoms: C_12  and  C_13 
ROOT
HETATM    1  C   UNL     1      43.243 -12.298   5.917  1.00  0.00     0.273 C 
HETATM    2  N   UNL     1      43.654 -13.457   5.297  1.00  0.00    -0.347 N 
HETATM    3  O   UNL     1      42.071 -11.935   5.961  1.00  0.00    -0.266 OA
HETATM    4  H   UNL     1      44.660 -13.603   5.290  1.00  0.00     0.163 HD
ENDROOT
BRANCH   2   5
HETATM    5  C   UNL     1      42.772 -14.275   4.493  1.00  0.00     0.114 C 
HETATM    6  C   UNL     1      42.781 -13.826   3.028  1.00  0.00     0.037 C 
BRANCH   5   7
HETATM    7  C   UNL     1      43.137 -15.745   4.602  1.00  0.00    -0.034 A 
HETATM    8  C   UNL     1      43.000 -16.585   3.483  1.00  0.00     0.041 A 
HETATM    9  C   UNL     1      43.368 -17.930   3.557  1.00  0.00     0.069 A 
HETATM   10  C   UNL     1      43.870 -18.460   4.746  1.00  0.00     0.096 A 
HETATM   11  N   UNL     1      43.260 -18.732   2.421  1.00  0.00    -0.323 N 
HETATM   12  O   UNL     1      44.286 -19.753   4.892  1.00  0.00    -0.340 OA
HETATM   13  C   UNL     1      44.015 -17.637   5.860  1.00  0.00     0.040 A 
HETATM   14  C   UNL     1      43.944 -20.620   3.821  1.00  0.00     0.278 C 
HETATM   15  C   UNL     1      43.575 -20.060   2.448  1.00  0.00     0.246 C 
HETATM   16  O   UNL     1      43.510 -20.753   1.436  1.00  0.00    -0.271 OA
HETATM   17  C   UNL     1      43.655 -16.290   5.790  1.00  0.00     0.012 A 
HETATM   18  H   UNL     1      42.963 -18.348   1.535  1.00  0.00     0.169 HD
ENDBRANCH   5   7
ENDBRANCH   2   5
BRANCH   1  19
HETATM   19  C   UNL     1      44.357 -11.529   6.493  1.00  0.00     0.157 A 
HETATM   20  C   UNL     1      44.444 -10.976   7.806  1.00  0.00     0.029 A 
HETATM   21  C   UNL     1      43.625 -10.947   8.952  1.00  0.00     0.023 A 
HETATM   22  C   UNL     1      45.672 -10.328   7.844  1.00  0.00     0.063 A 
HETATM   23  C   UNL     1      44.064 -10.266  10.100  1.00  0.00    -0.061 A 
HETATM   24  C   UNL     1      43.208 -10.221  11.333  1.00  0.00     0.048 C 
HETATM   25  C   UNL     1      45.308  -9.625  10.096  1.00  0.00     0.009 A 
HETATM   26  C   UNL     1      46.139  -9.642   8.969  1.00  0.00     0.032 A 
HETATM   27  N   UNL     1      46.225 -10.528   6.611  1.00  0.00    -0.277 N 
HETATM   28  H   UNL     1      47.124 -10.196   6.282  1.00  0.00     0.189 HD
HETATM   29  N   UNL     1      45.460 -11.240   5.764  1.00  0.00    -0.168 NA
ENDBRANCH   1  19
TORSDOF 3
ENDMDL
MODEL 2
REMARK VINA RESULT:      -9.2      4.455      7.947
REMARK  3 active torsions:
REMARK  status: ('A' for Active; 'I' for Inactive)
REMARK    1  A    between atoms: C_9  and  C_10 
REMARK       I    between atoms: C_10  and  N_11 
REMARK    2  A    between atoms: N_11  and  C_12 
REMARK    3  A    between atoms: C_12  and  C_13 
ROOT
HETATM    1  C   UNL     1      43.062 -15.274   3.809  1.00  0.00     0.273 C 
HETATM    2  N   UNL     1      42.063 -14.503   4.361  1.00  0.00    -0.347 N 
HETATM    3  O   UNL     1      43.609 -15.008   2.742  1.00  0.00    -0.266 OA
HETATM    4  H   UNL     1      41.665 -14.873   5.220  1.00  0.00     0.163 HD
ENDROOT
BRANCH   2   5
HETATM    5  C   UNL     1      41.441 -13.401   3.660  1.00  0.00     0.114 C 
HETATM    6  C   UNL     1      42.420 -12.240   3.468  1.00  0.00     0.037 C 
BRANCH   5   7
HETATM    7  C   UNL     1      40.878 -13.852   2.322  1.00  0.00    -0.034 A 
HETATM    8  C   UNL     1      41.144 -13.101   1.164  1.00  0.00     0.041 A 
HETATM    9  C   UNL     1      40.667 -13.523  -0.079  1.00  0.00     0.069 A 
HETATM   10  C   UNL     1      39.914 -14.693  -0.186  1.00  0.00     0.096 A 
HETATM   11  N   UNL     1      40.977 -12.782  -1.218  1.00  0.00    -0.323 N 
HETATM   12  O   UNL     1      39.442 -15.194  -1.366  1.00  0.00    -0.340 OA
HETATM   13  C   UNL     1      39.649 -15.448   0.954  1.00  0.00     0.040 A 
HETATM   14  C   UNL     1      39.544 -14.316  -2.476  1.00  0.00     0.278 C 
HETATM   15  C   UNL     1      40.510 -13.132  -2.452  1.00  0.00     0.246 C 
HETATM   16  O   UNL     1      40.815 -12.494  -3.457  1.00  0.00    -0.271 OA
HETATM   17  C   UNL     1      40.129 -15.035   2.198  1.00  0.00     0.012 A 
HETATM   18  H   UNL     1      41.577 -11.970  -1.168  1.00  0.00     0.169 HD
ENDBRANCH   5   7
ENDBRANCH   2   5
BRANCH   1  19
HETATM   19  C   UNL     1      43.385 -16.460   4.618  1.00  0.00     0.157 A 
HETATM   20  C   UNL     1      43.548 -17.803   4.164  1.00  0.00     0.029 A 
HETATM   21  C   UNL     1      43.495 -18.468   2.923  1.00  0.00     0.023 A 
HETATM   22  C   UNL     1      43.815 -18.541   5.309  1.00  0.00     0.063 A 
HETATM   23  C   UNL     1      43.708 -19.857   2.873  1.00  0.00    -0.061 A 
HETATM   24  C   UNL     1      43.656 -20.588   1.563  1.00  0.00     0.048 C 
HETATM   25  C   UNL     1      43.973 -20.563   4.052  1.00  0.00     0.009 A 
HETATM   26  C   UNL     1      44.032 -19.922   5.295  1.00  0.00     0.032 A 
HETATM   27  N   UNL     1      43.802 -17.637   6.334  1.00  0.00    -0.277 N 
HETATM   28  H   UNL     1      43.961 -17.824   7.317  1.00  0.00     0.189 HD
HETATM   29  N   UNL     1      43.537 -16.372   5.960  1.00  0.00    -0.168 NA
ENDBRANCH   1  19
TORSDOF 3
ENDMDL
MODEL 3
REMARK VINA RESULT:      -9.2      2.458      9.052
REMARK  3 active torsions:
REMARK  status: ('A' for Active; 'I' for Inactive)
REMARK    1  A    between atoms: C_9  and  C_10 
REMARK       I    between atoms: C_10  and  N_11 
REMARK    2  A    between atoms: N_11  and  C_12 
REMARK    3  A    between atoms: C_12  and  C_13 
ROOT
HETATM    1  C   UNL     1      43.237 -15.575   4.734  1.00  0.00     0.273 C 
HETATM    2  N   UNL     1      43.424 -14.548   5.633  1.00  0.00    -0.347 N 
HETATM    3  O   UNL     1      42.941 -15.395   3.556  1.00  0.00    -0.266 OA
HETATM    4  H   UNL     1      43.610 -14.846   6.587  1.00  0.00     0.163 HD
ENDROOT
BRANCH   2   5
HETATM    5  C   UNL     1      43.125 -13.167   5.323  1.00  0.00     0.114 C 
HETATM    6  C   UNL     1      41.621 -12.893   5.399  1.00  0.00     0.037 C 
BRANCH   5   7
HETATM    7  C   UNL     1      43.886 -12.224   6.240  1.00  0.00    -0.034 A 
HETATM    8  C   UNL     1      43.355 -11.893   7.499  1.00  0.00     0.041 A 
HETATM    9  C   UNL     1      44.061 -11.059   8.369  1.00  0.00     0.069 A 
HETATM   10  C   UNL     1      45.299 -10.536   7.995  1.00  0.00     0.096 A 
HETATM   11  N   UNL     1      43.531 -10.778   9.627  1.00  0.00    -0.323 N 
HETATM   12  O   UNL     1      46.069  -9.744   8.799  1.00  0.00    -0.340 OA
HETATM   13  C   UNL     1      45.838 -10.860   6.753  1.00  0.00     0.040 A 
HETATM   14  C   UNL     1      45.422  -9.261   9.966  1.00  0.00     0.278 C 
HETATM   15  C   UNL     1      44.164  -9.943  10.503  1.00  0.00     0.246 C 
HETATM   16  O   UNL     1      43.709  -9.727  11.623  1.00  0.00    -0.271 OA
HETATM   17  C   UNL     1      45.140 -11.699   5.882  1.00  0.00     0.012 A 
HETATM   18  H   UNL     1      42.669 -11.202   9.939  1.00  0.00     0.169 HD
ENDBRANCH   5   7
ENDBRANCH   2   5
BRANCH   1  19
HETATM   19  C   UNL     1      43.401 -16.905   5.340  1.00  0.00     0.157 A 
HETATM   20  C   UNL     1      43.564 -18.153   4.667  1.00  0.00     0.029 A 
HETATM   21  C   UNL     1      43.643 -18.581   3.327  1.00  0.00     0.023 A 
HETATM   22  C   UNL     1      43.649 -19.101   5.678  1.00  0.00     0.063 A 
HETATM   23  C   UNL     1      43.801 -19.949   3.045  1.00  0.00    -0.061 A 
HETATM   24  C   UNL     1      43.887 -20.428   1.625  1.00  0.00     0.048 C 
HETATM   25  C   UNL     1      43.881 -20.871   4.095  1.00  0.00     0.009 A 
HETATM   26  C   UNL     1      43.806 -20.468   5.433  1.00  0.00     0.032 A 
HETATM   27  N   UNL     1      43.542 -18.396   6.845  1.00  0.00    -0.277 N 
HETATM   28  H   UNL     1      43.565 -18.766   7.787  1.00  0.00     0.189 HD
HETATM   29  N   UNL     1      43.382 -17.071   6.683  1.00  0.00    -0.168 NA
ENDBRANCH   1  19
TORSDOF 3
ENDMDL
MODEL 4
REMARK VINA RESULT:      -8.9      4.661      7.841
REMARK  3 active torsions:
REMARK  status: ('A' for Active; 'I' for Inactive)
REMARK    1  A    between atoms: C_9  and  C_10 
REMARK       I    between atoms: C_10  and  N_11 
REMARK    2  A    between atoms: N_11  and  C_12 
REMARK    3  A    between atoms: C_12  and  C_13 
ROOT
HETATM    1  C   UNL     1      40.873 -13.366   0.955  1.00  0.00     0.273 C 
HETATM    2  N   UNL     1      40.939 -14.351   1.916  1.00  0.00    -0.347 N 
HETATM    3  O   UNL     1      41.519 -12.323   1.012  1.00  0.00    -0.266 OA
HETATM    4  H   UNL     1      40.308 -15.134   1.767  1.00  0.00     0.163 HD
ENDROOT
BRANCH   2   5
HETATM    5  C   UNL     1      41.642 -14.183   3.169  1.00  0.00     0.114 C 
HETATM    6  C   UNL     1      40.704 -13.679   4.269  1.00  0.00     0.037 C 
BRANCH   5   7
HETATM    7  C   UNL     1      42.319 -15.474   3.594  1.00  0.00    -0.034 A 
HETATM    8  C   UNL     1      42.313 -16.584   2.731  1.00  0.00     0.041 A 
HETATM    9  C   UNL     1      42.966 -17.765   3.092  1.00  0.00     0.069 A 
HETATM   10  C   UNL     1      43.626 -17.861   4.317  1.00  0.00     0.096 A 
HETATM   11  N   UNL     1      42.979 -18.838   2.201  1.00  0.00    -0.323 N 
HETATM   12  O   UNL     1      44.317 -18.965   4.729  1.00  0.00    -0.340 OA
HETATM   13  C   UNL     1      43.643 -16.767   5.178  1.00  0.00     0.040 A 
HETATM   14  C   UNL     1      44.119 -20.129   3.940  1.00  0.00     0.278 C 
HETATM   15  C   UNL     1      43.574 -20.026   2.516  1.00  0.00     0.246 C 
HETATM   16  O   UNL     1      43.612 -20.955   1.714  1.00  0.00    -0.271 OA
HETATM   17  C   UNL     1      42.998 -15.582   4.820  1.00  0.00     0.012 A 
HETATM   18  H   UNL     1      42.564 -18.762   1.283  1.00  0.00     0.169 HD
ENDBRANCH   5   7
ENDBRANCH   2   5
BRANCH   1  19
HETATM   19  C   UNL     1      39.930 -13.684  -0.129  1.00  0.00     0.157 A 
HETATM   20  C   UNL     1      39.077 -12.780  -0.830  1.00  0.00     0.029 A 
HETATM   21  C   UNL     1      38.823 -11.395  -0.802  1.00  0.00     0.023 A 
HETATM   22  C   UNL     1      38.373 -13.572  -1.728  1.00  0.00     0.063 A 
HETATM   23  C   UNL     1      37.865 -10.849  -1.674  1.00  0.00    -0.061 A 
HETATM   24  C   UNL     1      37.576  -9.376  -1.661  1.00  0.00     0.048 C 
HETATM   25  C   UNL     1      37.176 -11.684  -2.563  1.00  0.00     0.009 A 
HETATM   26  C   UNL     1      37.415 -13.062  -2.609  1.00  0.00     0.032 A 
HETATM   27  N   UNL     1      38.829 -14.844  -1.524  1.00  0.00    -0.277 N 
HETATM   28  H   UNL     1      38.536 -15.685  -2.008  1.00  0.00     0.189 HD
HETATM   29  N   UNL     1      39.762 -14.955  -0.561  1.00  0.00    -0.168 NA
ENDBRANCH   1  19
TORSDOF 3
ENDMDL
MODEL 5
REMARK VINA RESULT:      -8.6      3.918      8.928
REMARK  3 active torsions:
REMARK  status: ('A' for Active; 'I' for Inactive)
REMARK    1  A    between atoms: C_9  and  C_10 
REMARK       I    between atoms: C_10  and  N_11 
REMARK    2  A    between atoms: N_11  and  C_12 
REMARK    3  A    between atoms: C_12  and  C_13 
ROOT
HETATM    1  C   UNL     1      42.947 -15.076   3.412  1.00  0.00     0.273 C 
HETATM    2  N   UNL     1      41.891 -14.366   3.941  1.00  0.00    -0.347 N 
HETATM    3  O   UNL     1      43.468 -14.808   2.332  1.00  0.00    -0.266 OA
HETATM    4  H   UNL     1      41.526 -14.735   4.814  1.00  0.00     0.163 HD
ENDROOT
BRANCH   2   5
HETATM    5  C   UNL     1      41.182 -13.344   3.203  1.00  0.00     0.114 C 
HETATM    6  C   UNL     1      39.820 -13.850   2.721  1.00  0.00     0.037 C 
BRANCH   5   7
HETATM    7  C   UNL     1      41.019 -12.082   4.034  1.00  0.00    -0.034 A 
HETATM    8  C   UNL     1      40.308 -12.131   5.245  1.00  0.00     0.041 A 
HETATM    9  C   UNL     1      40.183 -10.989   6.040  1.00  0.00     0.069 A 
HETATM   10  C   UNL     1      40.757  -9.783   5.638  1.00  0.00     0.096 A 
HETATM   11  N   UNL     1      39.506 -11.073   7.256  1.00  0.00    -0.323 N 
HETATM   12  O   UNL     1      40.713  -8.632   6.372  1.00  0.00    -0.340 OA
HETATM   13  C   UNL     1      41.469  -9.724   4.442  1.00  0.00     0.040 A 
HETATM   14  C   UNL     1      39.820  -8.655   7.475  1.00  0.00     0.278 C 
HETATM   15  C   UNL     1      39.327  -9.980   8.055  1.00  0.00     0.246 C 
HETATM   16  O   UNL     1      38.760 -10.068   9.141  1.00  0.00    -0.271 OA
HETATM   17  C   UNL     1      41.603 -10.863   3.647  1.00  0.00     0.012 A 
HETATM   18  H   UNL     1      39.143 -11.953   7.594  1.00  0.00     0.169 HD
ENDBRANCH   5   7
ENDBRANCH   2   5
BRANCH   1  19
HETATM   19  C   UNL     1      43.364 -16.202   4.261  1.00  0.00     0.157 A 
HETATM   20  C   UNL     1      43.516 -17.569   3.879  1.00  0.00     0.029 A 
HETATM   21  C   UNL     1      43.370 -18.314   2.692  1.00  0.00     0.023 A 
HETATM   22  C   UNL     1      43.897 -18.228   5.041  1.00  0.00     0.063 A 
HETATM   23  C   UNL     1      43.609 -19.699   2.710  1.00  0.00    -0.061 A 
HETATM   24  C   UNL     1      43.459 -20.514   1.458  1.00  0.00     0.048 C 
HETATM   25  C   UNL     1      43.990 -20.324   3.904  1.00  0.00     0.009 A 
HETATM   26  C   UNL     1      44.142 -19.603   5.094  1.00  0.00     0.032 A 
HETATM   27  N   UNL     1      43.953 -17.260   6.004  1.00  0.00    -0.277 N 
HETATM   28  H   UNL     1      44.201 -17.381   6.979  1.00  0.00     0.189 HD
HETATM   29  N   UNL     1      43.630 -16.027   5.576  1.00  0.00    -0.168 NA
ENDBRANCH   1  19
TORSDOF 3
ENDMDL
MODEL 6
REMARK VINA RESULT:      -8.6      3.305      8.539
REMARK  3 active torsions:
REMARK  status: ('A' for Active; 'I' for Inactive)
REMARK    1  A    between atoms: C_9  and  C_10 
REMARK       I    between atoms: C_10  and  N_11 
REMARK    2  A    between atoms: N_11  and  C_12 
REMARK    3  A    between atoms: C_12  and  C_13 
ROOT
HETATM    1  C   UNL     1      42.407 -12.187   3.046  1.00  0.00     0.273 C 
HETATM    2  N   UNL     1      41.881 -12.166   4.319  1.00  0.00    -0.347 N 
HETATM    3  O   UNL     1      42.912 -11.205   2.508  1.00  0.00    -0.266 OA
HETATM    4  H   UNL     1      41.446 -13.036   4.614  1.00  0.00     0.163 HD
ENDROOT
BRANCH   2   5
HETATM    5  C   UNL     1      41.716 -10.949   5.083  1.00  0.00     0.114 C 
HETATM    6  C   UNL     1      40.289 -10.821   5.623  1.00  0.00     0.037 C 
BRANCH   5   7
HETATM    7  C   UNL     1      42.725 -10.873   6.216  1.00  0.00    -0.034 A 
HETATM    8  C   UNL     1      42.468 -10.050   7.326  1.00  0.00     0.041 A 
HETATM    9  C   UNL     1      43.367  -9.999   8.394  1.00  0.00     0.069 A 
HETATM   10  C   UNL     1      44.536 -10.760   8.369  1.00  0.00     0.096 A 
HETATM   11  N   UNL     1      43.069  -9.206   9.501  1.00  0.00    -0.323 N 
HETATM   12  O   UNL     1      45.448 -10.795   9.385  1.00  0.00    -0.340 OA
HETATM   13  C   UNL     1      44.799 -11.583   7.277  1.00  0.00     0.040 A 
HETATM   14  C   UNL     1      45.270  -9.807  10.389  1.00  0.00     0.278 C 
HETATM   15  C   UNL     1      43.928  -9.095  10.557  1.00  0.00     0.246 C 
HETATM   16  O   UNL     1      43.644  -8.422  11.544  1.00  0.00    -0.271 OA
HETATM   17  C   UNL     1      43.901 -11.642   6.209  1.00  0.00     0.012 A 
HETATM   18  H   UNL     1      42.196  -8.702   9.566  1.00  0.00     0.169 HD
ENDBRANCH   5   7
ENDBRANCH   2   5
BRANCH   1  19
HETATM   19  C   UNL     1      42.276 -13.498   2.392  1.00  0.00     0.157 A 
HETATM   20  C   UNL     1      42.681 -14.768   2.902  1.00  0.00     0.029 A 
HETATM   21  C   UNL     1      43.276 -15.243   4.088  1.00  0.00     0.023 A 
HETATM   22  C   UNL     1      42.366 -15.677   1.900  1.00  0.00     0.063 A 
HETATM   23  C   UNL     1      43.540 -16.616   4.228  1.00  0.00    -0.061 A 
HETATM   24  C   UNL     1      44.175 -17.146   5.481  1.00  0.00     0.048 C 
HETATM   25  C   UNL     1      43.209 -17.498   3.192  1.00  0.00     0.009 A 
HETATM   26  C   UNL     1      42.616 -17.048   2.007  1.00  0.00     0.032 A 
HETATM   27  N   UNL     1      41.813 -14.932   0.897  1.00  0.00    -0.277 N 
HETATM   28  H   UNL     1      41.464 -15.267   0.007  1.00  0.00     0.189 HD
HETATM   29  N   UNL     1      41.749 -13.613   1.151  1.00  0.00    -0.168 NA
ENDBRANCH   1  19
TORSDOF 3
ENDMDL
MODEL 7
REMARK VINA RESULT:      -8.5     16.091     17.573
REMARK  3 active torsions:
REMARK  status: ('A' for Active; 'I' for Inactive)
REMARK    1  A    between atoms: C_9  and  C_10 
REMARK       I    between atoms: C_10  and  N_11 
REMARK    2  A    between atoms: N_11  and  C_12 
REMARK    3  A    between atoms: C_12  and  C_13 
ROOT
HETATM    1  C   UNL     1      42.937 -29.564   1.380  1.00  0.00     0.273 C 
HETATM    2  N   UNL     1      42.765 -30.811   1.941  1.00  0.00    -0.347 N 
HETATM    3  O   UNL     1      42.003 -28.840   1.045  1.00  0.00    -0.266 OA
HETATM    4  H   UNL     1      43.627 -31.321   2.116  1.00  0.00     0.163 HD
ENDROOT
BRANCH   2   5
HETATM    5  C   UNL     1      41.476 -31.460   2.035  1.00  0.00     0.114 C 
HETATM    6  C   UNL     1      41.450 -32.762   1.229  1.00  0.00     0.037 C 
BRANCH   5   7
HETATM    7  C   UNL     1      41.099 -31.721   3.483  1.00  0.00    -0.034 A 
HETATM    8  C   UNL     1      42.017 -31.431   4.507  1.00  0.00     0.041 A 
HETATM    9  C   UNL     1      41.670 -31.629   5.846  1.00  0.00     0.069 A 
HETATM   10  C   UNL     1      40.410 -32.123   6.183  1.00  0.00     0.096 A 
HETATM   11  N   UNL     1      42.584 -31.296   6.845  1.00  0.00    -0.323 N 
HETATM   12  O   UNL     1      39.980 -32.310   7.466  1.00  0.00    -0.340 OA
HETATM   13  C   UNL     1      39.490 -32.409   5.178  1.00  0.00     0.040 A 
HETATM   14  C   UNL     1      40.988 -32.210   8.460  1.00  0.00     0.278 C 
HETATM   15  C   UNL     1      42.309 -31.499   8.167  1.00  0.00     0.246 C 
HETATM   16  O   UNL     1      43.105 -31.172   9.044  1.00  0.00    -0.271 OA
HETATM   17  C   UNL     1      39.829 -32.207   3.838  1.00  0.00     0.012 A 
HETATM   18  H   UNL     1      43.475 -30.874   6.621  1.00  0.00     0.169 HD
ENDBRANCH   5   7
ENDBRANCH   2   5
BRANCH   1  19
HETATM   19  C   UNL     1      44.353 -29.206   1.200  1.00  0.00     0.157 A 
HETATM   20  C   UNL     1      45.001 -28.807  -0.007  1.00  0.00     0.029 A 
HETATM   21  C   UNL     1      44.616 -28.599  -1.346  1.00  0.00     0.023 A 
HETATM   22  C   UNL     1      46.330 -28.609   0.346  1.00  0.00     0.063 A 
HETATM   23  C   UNL     1      45.578 -28.202  -2.290  1.00  0.00    -0.061 A 
HETATM   24  C   UNL     1      45.191 -27.975  -3.723  1.00  0.00     0.048 C 
HETATM   25  C   UNL     1      46.908 -28.015  -1.892  1.00  0.00     0.009 A 
HETATM   26  C   UNL     1      47.312 -28.215  -0.567  1.00  0.00     0.032 A 
HETATM   27  N   UNL     1      46.394 -28.883   1.683  1.00  0.00    -0.277 N 
HETATM   28  H   UNL     1      47.213 -28.841   2.278  1.00  0.00     0.189 HD
HETATM   29  N   UNL     1      45.225 -29.256   2.233  1.00  0.00    -0.168 NA
ENDBRANCH   1  19
TORSDOF 3
ENDMDL
MODEL 8
REMARK VINA RESULT:      -8.5      5.426      8.989
REMARK  3 active torsions:
REMARK  status: ('A' for Active; 'I' for Inactive)
REMARK    1  A    between atoms: C_9  and  C_10 
REMARK       I    between atoms: C_10  and  N_11 
REMARK    2  A    between atoms: N_11  and  C_12 
REMARK    3  A    between atoms: C_12  and  C_13 
ROOT
HETATM    1  C   UNL     1      40.646 -15.246   2.846  1.00  0.00     0.273 C 
HETATM    2  N   UNL     1      40.652 -13.880   2.668  1.00  0.00    -0.347 N 
HETATM    3  O   UNL     1      39.770 -15.982   2.399  1.00  0.00    -0.266 OA
HETATM    4  H   UNL     1      41.409 -13.393   3.140  1.00  0.00     0.163 HD
ENDROOT
BRANCH   2   5
HETATM    5  C   UNL     1      39.542 -13.158   2.085  1.00  0.00     0.114 C 
HETATM    6  C   UNL     1      39.185 -11.923   2.917  1.00  0.00     0.037 C 
BRANCH   5   7
HETATM    7  C   UNL     1      39.838 -12.766   0.648  1.00  0.00    -0.034 A 
HETATM    8  C   UNL     1      40.177 -11.437   0.342  1.00  0.00     0.041 A 
HETATM    9  C   UNL     1      40.491 -11.069  -0.969  1.00  0.00     0.069 A 
HETATM   10  C   UNL     1      40.464 -12.016  -1.993  1.00  0.00     0.096 A 
HETATM   11  N   UNL     1      40.862  -9.753  -1.240  1.00  0.00    -0.323 N 
HETATM   12  O   UNL     1      40.791 -11.748  -3.292  1.00  0.00    -0.340 OA
HETATM   13  C   UNL     1      40.135 -13.338  -1.701  1.00  0.00     0.040 A 
HETATM   14  C   UNL     1      40.923 -10.371  -3.608  1.00  0.00     0.278 C 
HETATM   15  C   UNL     1      41.147  -9.334  -2.508  1.00  0.00     0.246 C 
HETATM   16  O   UNL     1      41.506  -8.181  -2.735  1.00  0.00    -0.271 OA
HETATM   17  C   UNL     1      39.827 -13.712  -0.392  1.00  0.00     0.012 A 
HETATM   18  H   UNL     1      40.952  -9.071  -0.500  1.00  0.00     0.169 HD
ENDBRANCH   5   7
ENDBRANCH   2   5
BRANCH   1  19
HETATM   19  C   UNL     1      41.782 -15.726   3.648  1.00  0.00     0.157 A 
HETATM   20  C   UNL     1      42.533 -16.924   3.462  1.00  0.00     0.029 A 
HETATM   21  C   UNL     1      42.522 -17.998   2.550  1.00  0.00     0.023 A 
HETATM   22  C   UNL     1      43.469 -16.927   4.488  1.00  0.00     0.063 A 
HETATM   23  C   UNL     1      43.449 -19.044   2.700  1.00  0.00    -0.061 A 
HETATM   24  C   UNL     1      43.456 -20.199   1.741  1.00  0.00     0.048 C 
HETATM   25  C   UNL     1      44.375 -19.008   3.750  1.00  0.00     0.009 A 
HETATM   26  C   UNL     1      44.405 -17.951   4.666  1.00  0.00     0.032 A 
HETATM   27  N   UNL     1      43.237 -15.780   5.193  1.00  0.00    -0.277 N 
HETATM   28  H   UNL     1      43.736 -15.453   6.012  1.00  0.00     0.189 HD
HETATM   29  N   UNL     1      42.222 -15.033   4.724  1.00  0.00    -0.168 NA
ENDBRANCH   1  19
TORSDOF 3
ENDMDL
MODEL 9
REMARK VINA RESULT:      -8.5      2.747      9.387
REMARK  3 active torsions:
REMARK  status: ('A' for Active; 'I' for Inactive)
REMARK    1  A    between atoms: C_9  and  C_10 
REMARK       I    between atoms: C_10  and  N_11 
REMARK    2  A    between atoms: N_11  and  C_12 
REMARK    3  A    between atoms: C_12  and  C_13 
ROOT
HETATM    1  C   UNL     1      43.250 -13.684   6.229  1.00  0.00     0.273 C 
HETATM    2  N   UNL     1      43.883 -12.467   6.100  1.00  0.00    -0.347 N 
HETATM    3  O   UNL     1      43.166 -14.293   7.292  1.00  0.00    -0.266 OA
HETATM    4  H   UNL     1      43.923 -12.106   5.151  1.00  0.00     0.163 HD
ENDROOT
BRANCH   2   5
HETATM    5  C   UNL     1      44.658 -11.868   7.165  1.00  0.00     0.114 C 
HETATM    6  C   UNL     1      45.944 -11.234   6.627  1.00  0.00     0.037 C 
BRANCH   5   7
HETATM    7  C   UNL     1      43.837 -10.842   7.929  1.00  0.00    -0.034 A 
HETATM    8  C   UNL     1      44.183 -10.516   9.251  1.00  0.00     0.041 A 
HETATM    9  C   UNL     1      43.462  -9.546   9.953  1.00  0.00     0.069 A 
HETATM   10  C   UNL     1      42.385  -8.895   9.352  1.00  0.00     0.096 A 
HETATM   11  N   UNL     1      43.850  -9.213  11.250  1.00  0.00    -0.323 N 
HETATM   12  O   UNL     1      41.653  -7.912   9.955  1.00  0.00    -0.340 OA
HETATM   13  C   UNL     1      42.036  -9.206   8.040  1.00  0.00     0.040 A 
HETATM   14  C   UNL     1      41.887  -7.753  11.346  1.00  0.00     0.278 C 
HETATM   15  C   UNL     1      43.161  -8.296  11.992  1.00  0.00     0.246 C 
HETATM   16  O   UNL     1      43.528  -7.981  13.121  1.00  0.00    -0.271 OA
HETATM   17  C   UNL     1      42.757 -10.169   7.332  1.00  0.00     0.012 A 
HETATM   18  H   UNL     1      44.668  -9.625  11.676  1.00  0.00     0.169 HD
ENDBRANCH   5   7
ENDBRANCH   2   5
BRANCH   1  19
HETATM   19  C   UNL     1      42.710 -14.187   4.956  1.00  0.00     0.157 A 
HETATM   20  C   UNL     1      42.941 -15.462   4.358  1.00  0.00     0.029 A 
HETATM   21  C   UNL     1      43.665 -16.624   4.691  1.00  0.00     0.023 A 
HETATM   22  C   UNL     1      42.236 -15.433   3.162  1.00  0.00     0.063 A 
HETATM   23  C   UNL     1      43.660 -17.720   3.810  1.00  0.00    -0.061 A 
HETATM   24  C   UNL     1      44.425 -18.968   4.144  1.00  0.00     0.048 C 
HETATM   25  C   UNL     1      42.937 -17.647   2.614  1.00  0.00     0.009 A 
HETATM   26  C   UNL     1      42.210 -16.504   2.263  1.00  0.00     0.032 A 
HETATM   27  N   UNL     1      41.648 -14.200   3.118  1.00  0.00    -0.277 N 
HETATM   28  H   UNL     1      41.053 -13.831   2.386  1.00  0.00     0.189 HD
HETATM   29  N   UNL     1      41.917 -13.416   4.177  1.00  0.00    -0.168 NA
ENDBRANCH   1  19
TORSDOF 3
ENDMDL
MODEL 10
REMARK VINA RESULT:      -8.5      4.776      8.282
REMARK  3 active torsions:
REMARK  status: ('A' for Active; 'I' for Inactive)
REMARK    1  A    between atoms: C_9  and  C_10 
REMARK       I    between atoms: C_10  and  N_11 
REMARK    2  A    between atoms: N_11  and  C_12 
REMARK    3  A    between atoms: C_12  and  C_13 
ROOT
HETATM    1  C   UNL     1      41.154 -15.229   3.607  1.00  0.00     0.273 C 
HETATM    2  N   UNL     1      41.295 -13.859   3.641  1.00  0.00    -0.347 N 
HETATM    3  O   UNL     1      40.187 -15.796   3.107  1.00  0.00    -0.266 OA
HETATM    4  H   UNL     1      42.119 -13.528   4.135  1.00  0.00     0.163 HD
ENDROOT
BRANCH   2   5
HETATM    5  C   UNL     1      40.242 -12.950   3.245  1.00  0.00     0.114 C 
HETATM    6  C   UNL     1      40.188 -11.727   4.165  1.00  0.00     0.037 C 
BRANCH   5   7
HETATM    7  C   UNL     1      40.405 -12.521   1.796  1.00  0.00    -0.034 A 
HETATM    8  C   UNL     1      39.871 -13.316   0.768  1.00  0.00     0.041 A 
HETATM    9  C   UNL     1      39.978 -12.915  -0.566  1.00  0.00     0.069 A 
HETATM   10  C   UNL     1      40.624 -11.724  -0.895  1.00  0.00     0.096 A 
HETATM   11  N   UNL     1      39.405 -13.702  -1.564  1.00  0.00    -0.323 N 
HETATM   12  O   UNL     1      40.740 -11.243  -2.168  1.00  0.00    -0.340 OA
HETATM   13  C   UNL     1      41.153 -10.925   0.116  1.00  0.00     0.040 A 
HETATM   14  C   UNL     1      40.382 -12.157  -3.193  1.00  0.00     0.278 C 
HETATM   15  C   UNL     1      39.508 -13.373  -2.885  1.00  0.00     0.246 C 
HETATM   16  O   UNL     1      38.972 -14.052  -3.757  1.00  0.00    -0.271 OA
HETATM   17  C   UNL     1      41.043 -11.317   1.451  1.00  0.00     0.012 A 
HETATM   18  H   UNL     1      38.875 -14.532  -1.338  1.00  0.00     0.169 HD
ENDBRANCH   5   7
ENDBRANCH   2   5
BRANCH   1  19
HETATM   19  C   UNL     1      42.269 -15.936   4.256  1.00  0.00     0.157 A 
HETATM   20  C   UNL     1      42.871 -17.166   3.852  1.00  0.00     0.029 A 
HETATM   21  C   UNL     1      42.693 -18.085   2.800  1.00  0.00     0.023 A 
HETATM   22  C   UNL     1      43.851 -17.417   4.803  1.00  0.00     0.063 A 
HETATM   23  C   UNL     1      43.504 -19.232   2.738  1.00  0.00    -0.061 A 
HETATM   24  C   UNL     1      43.332 -20.227   1.626  1.00  0.00     0.048 C 
HETATM   25  C   UNL     1      44.480 -19.448   3.718  1.00  0.00     0.009 A 
HETATM   26  C   UNL     1      44.674 -18.547   4.771  1.00  0.00     0.032 A 
HETATM   27  N   UNL     1      43.785 -16.369   5.678  1.00  0.00    -0.277 N 
HETATM   28  H   UNL     1      44.358 -16.221   6.500  1.00  0.00     0.189 HD
HETATM   29  N   UNL     1      42.837 -15.460   5.388  1.00  0.00    -0.168 NA
ENDBRANCH   1  19
TORSDOF 3
ENDMDL
