MODEL 1
REMARK VINA RESULT:      -7.4      0.000      0.000
REMARK  7 active torsions:
REMARK  status: ('A' for Active; 'I' for Inactive)
REMARK    1  A    between atoms: C_5  and  N_6 
REMARK    2  A    between atoms: N_6  and  C_9 
REMARK    3  A    between atoms: C_9  and  C_10 
REMARK    4  A    between atoms: C_10  and  C_11 
REMARK    5  A    between atoms: C_10  and  C_13 
REMARK    6  A    between atoms: C_11  and  O_12 
REMARK    7  A    between atoms: C_13  and  C_14 
ROOT
HETATM    1  N   UNL     1      41.867 -14.843   1.745  1.00  0.00    -0.066 N 
HETATM    2  H   UNL     1      42.775 -14.656   2.215  1.00  0.00     0.278 HD
HETATM    3  H   UNL     1      42.100 -14.967   0.741  1.00  0.00     0.278 HD
ENDROOT
BRANCH   1   4
HETATM    4  C   UNL     1      41.278 -16.104   2.250  1.00  0.00     0.220 C 
HETATM    5  C   UNL     1      42.311 -16.963   2.910  1.00  0.00    -0.021 A 
HETATM    6  C   UNL     1      42.268 -16.842   4.313  1.00  0.00    -0.040 A 
HETATM    7  C   UNL     1      43.253 -17.760   2.273  1.00  0.00     0.010 A 
HETATM    8  C   UNL     1      43.215 -17.495   5.100  1.00  0.00    -0.055 A 
HETATM    9  C   UNL     1      41.160 -15.895   4.711  1.00  0.00     0.018 C 
HETATM   10  C   UNL     1      43.265 -17.373   6.594  1.00  0.00     0.049 C 
HETATM   11  C   UNL     1      44.151 -18.318   4.451  1.00  0.00     0.007 A 
HETATM   12  C   UNL     1      44.170 -18.451   3.056  1.00  0.00     0.001 A 
HETATM   13  C   UNL     1      40.318 -15.844   3.414  1.00  0.00     0.047 C 
HETATM   14  C   UNL     1      40.288 -16.308   5.890  1.00  0.00     0.015 C 
ENDBRANCH   1   4
BRANCH   1  15
HETATM   15  C   UNL     1      41.028 -13.621   1.851  1.00  0.00     0.240 C 
BRANCH  15  16
HETATM   16  C   UNL     1      41.615 -12.641   2.886  1.00  0.00     0.040 C 
BRANCH  16  17
HETATM   17  C   UNL     1      41.322 -11.192   2.466  1.00  0.00     0.170 C 
BRANCH  17  18
HETATM   18  O   UNL     1      42.534 -10.576   2.023  1.00  0.00    -0.400 OA
HETATM   19  H   UNL     1      43.203 -11.291   1.975  1.00  0.00     0.209 HD
ENDBRANCH  17  18
ENDBRANCH  16  17
BRANCH  16  20
HETATM   20  C   UNL     1      43.132 -12.801   3.129  1.00  0.00     0.067 C 
BRANCH  20  21
HETATM   21  C   UNL     1      43.542 -12.541   4.554  1.00  0.00     0.034 A 
HETATM   22  N   UNL     1      44.142 -11.342   4.794  1.00  0.00    -0.266 NA
HETATM   23  C   UNL     1      44.487 -11.088   6.082  1.00  0.00     0.117 A 
HETATM   24  C   UNL     1      44.305 -11.980   7.124  1.00  0.00     0.019 A 
HETATM   25  C   UNL     1      43.720 -13.208   6.844  1.00  0.00     0.003 A 
HETATM   26  C   UNL     1      43.329 -13.498   5.541  1.00  0.00     0.027 A 
ENDBRANCH  20  21
ENDBRANCH  16  20
ENDBRANCH  15  16
ENDBRANCH   1  15
TORSDOF 7
ENDMDL
MODEL 2
REMARK VINA RESULT:      -7.3      2.229      4.007
REMARK  7 active torsions:
REMARK  status: ('A' for Active; 'I' for Inactive)
REMARK    1  A    between atoms: C_5  and  N_6 
REMARK    2  A    between atoms: N_6  and  C_9 
REMARK    3  A    between atoms: C_9  and  C_10 
REMARK    4  A    between atoms: C_10  and  C_11 
REMARK    5  A    between atoms: C_10  and  C_13 
REMARK    6  A    between atoms: C_11  and  O_12 
REMARK    7  A    between atoms: C_13  and  C_14 
ROOT
HETATM    1  N   UNL     1      43.617 -15.386   6.215  1.00  0.00    -0.066 N 
HETATM    2  H   UNL     1      44.570 -15.767   6.372  1.00  0.00     0.278 HD
HETATM    3  H   UNL     1      43.680 -14.848   5.329  1.00  0.00     0.278 HD
ENDROOT
BRANCH   1   4
HETATM    4  C   UNL     1      42.647 -16.490   6.027  1.00  0.00     0.220 C 
HETATM    5  C   UNL     1      42.463 -16.813   4.577  1.00  0.00    -0.021 A 
HETATM    6  C   UNL     1      43.218 -17.939   4.196  1.00  0.00    -0.040 A 
HETATM    7  C   UNL     1      41.698 -16.100   3.663  1.00  0.00     0.010 A 
HETATM    8  C   UNL     1      43.250 -18.340   2.861  1.00  0.00    -0.055 A 
HETATM    9  C   UNL     1      43.961 -18.486   5.392  1.00  0.00     0.018 C 
HETATM   10  C   UNL     1      44.071 -19.496   2.371  1.00  0.00     0.049 C 
HETATM   11  C   UNL     1      42.455 -17.629   1.945  1.00  0.00     0.007 A 
HETATM   12  C   UNL     1      41.688 -16.526   2.339  1.00  0.00     0.001 A 
HETATM   13  C   UNL     1      43.200 -17.814   6.560  1.00  0.00     0.047 C 
HETATM   14  C   UNL     1      43.967 -19.999   5.568  1.00  0.00     0.015 C 
ENDBRANCH   1   4
BRANCH   1  15
HETATM   15  C   UNL     1      43.321 -14.411   7.297  1.00  0.00     0.240 C 
BRANCH  15  16
HETATM   16  C   UNL     1      43.373 -12.966   6.762  1.00  0.00     0.040 C 
BRANCH  16  17
HETATM   17  C   UNL     1      42.695 -12.889   5.385  1.00  0.00     0.170 C 
BRANCH  17  18
HETATM   18  O   UNL     1      41.310 -13.216   5.522  1.00  0.00    -0.400 OA
HETATM   19  H   UNL     1      41.122 -13.212   6.485  1.00  0.00     0.209 HD
ENDBRANCH  17  18
ENDBRANCH  16  17
BRANCH  16  20
HETATM   20  C   UNL     1      44.795 -12.373   6.660  1.00  0.00     0.067 C 
BRANCH  20  21
HETATM   21  C   UNL     1      45.049 -11.252   7.633  1.00  0.00     0.034 A 
HETATM   22  N   UNL     1      44.265 -11.238   8.747  1.00  0.00    -0.266 NA
HETATM   23  C   UNL     1      44.510 -10.249   9.643  1.00  0.00     0.117 A 
HETATM   24  C   UNL     1      45.458  -9.257   9.464  1.00  0.00     0.019 A 
HETATM   25  C   UNL     1      46.220  -9.277   8.303  1.00  0.00     0.003 A 
HETATM   26  C   UNL     1      46.019 -10.290   7.371  1.00  0.00     0.027 A 
ENDBRANCH  20  21
ENDBRANCH  16  20
ENDBRANCH  15  16
ENDBRANCH   1  15
TORSDOF 7
ENDMDL
MODEL 3
REMARK VINA RESULT:      -7.2      2.257      4.617
REMARK  7 active torsions:
REMARK  status: ('A' for Active; 'I' for Inactive)
REMARK    1  A    between atoms: C_5  and  N_6 
REMARK    2  A    between atoms: N_6  and  C_9 
REMARK    3  A    between atoms: C_9  and  C_10 
REMARK    4  A    between atoms: C_10  and  C_11 
REMARK    5  A    between atoms: C_10  and  C_13 
REMARK    6  A    between atoms: C_11  and  O_12 
REMARK    7  A    between atoms: C_13  and  C_14 
ROOT
HETATM    1  N   UNL     1      42.153 -16.868   6.011  1.00  0.00    -0.066 N 
HETATM    2  H   UNL     1      41.389 -17.083   5.342  1.00  0.00     0.278 HD
HETATM    3  H   UNL     1      42.064 -17.576   6.765  1.00  0.00     0.278 HD
ENDROOT
BRANCH   1   4
HETATM    4  C   UNL     1      43.471 -17.037   5.359  1.00  0.00     0.220 C 
HETATM    5  C   UNL     1      43.696 -18.458   4.946  1.00  0.00    -0.021 A 
HETATM    6  C   UNL     1      43.435 -18.649   3.575  1.00  0.00    -0.040 A 
HETATM    7  C   UNL     1      44.067 -19.510   5.773  1.00  0.00     0.010 A 
HETATM    8  C   UNL     1      43.499 -19.926   3.022  1.00  0.00    -0.055 A 
HETATM    9  C   UNL     1      43.033 -17.336   2.944  1.00  0.00     0.018 C 
HETATM   10  C   UNL     1      43.183 -20.215   1.584  1.00  0.00     0.049 C 
HETATM   11  C   UNL     1      43.897 -20.983   3.859  1.00  0.00     0.007 A 
HETATM   12  C   UNL     1      44.179 -20.779   5.216  1.00  0.00     0.001 A 
HETATM   13  C   UNL     1      43.520 -16.322   4.006  1.00  0.00     0.047 C 
HETATM   14  C   UNL     1      43.639 -17.009   1.585  1.00  0.00     0.015 C 
ENDBRANCH   1   4
BRANCH   1  15
HETATM   15  C   UNL     1      41.874 -15.542   6.624  1.00  0.00     0.240 C 
BRANCH  15  16
HETATM   16  C   UNL     1      41.861 -14.435   5.551  1.00  0.00     0.040 C 
BRANCH  16  17
HETATM   17  C   UNL     1      42.276 -13.093   6.173  1.00  0.00     0.170 C 
BRANCH  17  18
HETATM   18  O   UNL     1      43.076 -13.338   7.333  1.00  0.00    -0.400 OA
HETATM   19  H   UNL     1      43.729 -12.608   7.375  1.00  0.00     0.209 HD
ENDBRANCH  17  18
ENDBRANCH  16  17
BRANCH  16  20
HETATM   20  C   UNL     1      40.507 -14.261   4.829  1.00  0.00     0.067 C 
BRANCH  20  21
HETATM   21  C   UNL     1      40.583 -14.501   3.345  1.00  0.00     0.034 A 
HETATM   22  N   UNL     1      41.367 -13.640   2.639  1.00  0.00    -0.266 NA
HETATM   23  C   UNL     1      41.465 -13.869   1.305  1.00  0.00     0.117 A 
HETATM   24  C   UNL     1      40.792 -14.879   0.640  1.00  0.00     0.019 A 
HETATM   25  C   UNL     1      39.973 -15.722   1.380  1.00  0.00     0.003 A 
HETATM   26  C   UNL     1      39.866 -15.537   2.755  1.00  0.00     0.027 A 
ENDBRANCH  20  21
ENDBRANCH  16  20
ENDBRANCH  15  16
ENDBRANCH   1  15
TORSDOF 7
ENDMDL
MODEL 4
REMARK VINA RESULT:      -7.1      2.842      5.253
REMARK  7 active torsions:
REMARK  status: ('A' for Active; 'I' for Inactive)
REMARK    1  A    between atoms: C_5  and  N_6 
REMARK    2  A    between atoms: N_6  and  C_9 
REMARK    3  A    between atoms: C_9  and  C_10 
REMARK    4  A    between atoms: C_10  and  C_11 
REMARK    5  A    between atoms: C_10  and  C_13 
REMARK    6  A    between atoms: C_11  and  O_12 
REMARK    7  A    between atoms: C_13  and  C_14 
ROOT
HETATM    1  N   UNL     1      41.681 -15.498   1.395  1.00  0.00    -0.066 N 
HETATM    2  H   UNL     1      42.352 -14.865   1.873  1.00  0.00     0.278 HD
HETATM    3  H   UNL     1      42.224 -15.951   0.636  1.00  0.00     0.278 HD
ENDROOT
BRANCH   1   4
HETATM    4  C   UNL     1      41.211 -16.548   2.328  1.00  0.00     0.220 C 
HETATM    5  C   UNL     1      42.360 -17.281   2.947  1.00  0.00    -0.021 A 
HETATM    6  C   UNL     1      42.640 -16.808   4.244  1.00  0.00    -0.040 A 
HETATM    7  C   UNL     1      43.124 -18.275   2.349  1.00  0.00     0.010 A 
HETATM    8  C   UNL     1      43.737 -17.304   4.947  1.00  0.00    -0.055 A 
HETATM    9  C   UNL     1      41.662 -15.718   4.613  1.00  0.00     0.018 C 
HETATM   10  C   UNL     1      44.128 -16.813   6.309  1.00  0.00     0.049 C 
HETATM   11  C   UNL     1      44.492 -18.327   4.346  1.00  0.00     0.007 A 
HETATM   12  C   UNL     1      44.189 -18.808   3.066  1.00  0.00     0.001 A 
HETATM   13  C   UNL     1      40.546 -15.938   3.565  1.00  0.00     0.047 C 
HETATM   14  C   UNL     1      41.080 -15.760   6.020  1.00  0.00     0.015 C 
ENDBRANCH   1   4
BRANCH   1  15
HETATM   15  C   UNL     1      40.636 -14.663   0.746  1.00  0.00     0.240 C 
BRANCH  15  16
HETATM   16  C   UNL     1      41.008 -13.168   0.818  1.00  0.00     0.040 C 
BRANCH  16  17
HETATM   17  C   UNL     1      40.146 -12.461   1.876  1.00  0.00     0.170 C 
BRANCH  17  18
HETATM   18  O   UNL     1      38.873 -13.107   1.955  1.00  0.00    -0.400 OA
HETATM   19  H   UNL     1      38.233 -12.504   1.521  1.00  0.00     0.209 HD
ENDBRANCH  17  18
ENDBRANCH  16  17
BRANCH  16  20
HETATM   20  C   UNL     1      40.883 -12.413  -0.524  1.00  0.00     0.067 C 
BRANCH  20  21
HETATM   21  C   UNL     1      39.781 -12.937  -1.407  1.00  0.00     0.034 A 
HETATM   22  N   UNL     1      38.534 -12.449  -1.159  1.00  0.00    -0.266 NA
HETATM   23  C   UNL     1      37.541 -12.892  -1.972  1.00  0.00     0.117 A 
HETATM   24  C   UNL     1      37.722 -13.823  -2.980  1.00  0.00     0.019 A 
HETATM   25  C   UNL     1      38.999 -14.327  -3.189  1.00  0.00     0.003 A 
HETATM   26  C   UNL     1      40.049 -13.879  -2.395  1.00  0.00     0.027 A 
ENDBRANCH  20  21
ENDBRANCH  16  20
ENDBRANCH  15  16
ENDBRANCH   1  15
TORSDOF 7
ENDMDL
MODEL 5
REMARK VINA RESULT:      -7.1      1.974      3.313
REMARK  7 active torsions:
REMARK  status: ('A' for Active; 'I' for Inactive)
REMARK    1  A    between atoms: C_5  and  N_6 
REMARK    2  A    between atoms: N_6  and  C_9 
REMARK    3  A    between atoms: C_9  and  C_10 
REMARK    4  A    between atoms: C_10  and  C_11 
REMARK    5  A    between atoms: C_10  and  C_13 
REMARK    6  A    between atoms: C_11  and  O_12 
REMARK    7  A    between atoms: C_13  and  C_14 
ROOT
HETATM    1  N   UNL     1      42.248 -13.523   4.719  1.00  0.00    -0.066 N 
HETATM    2  H   UNL     1      43.233 -13.697   4.438  1.00  0.00     0.278 HD
HETATM    3  H   UNL     1      41.791 -13.124   3.877  1.00  0.00     0.278 HD
ENDROOT
BRANCH   1   4
HETATM    4  C   UNL     1      41.577 -14.797   5.061  1.00  0.00     0.220 C 
HETATM    5  C   UNL     1      41.946 -15.883   4.099  1.00  0.00    -0.021 A 
HETATM    6  C   UNL     1      42.945 -16.725   4.625  1.00  0.00    -0.040 A 
HETATM    7  C   UNL     1      41.439 -16.059   2.818  1.00  0.00     0.010 A 
HETATM    8  C   UNL     1      43.487 -17.741   3.839  1.00  0.00    -0.055 A 
HETATM    9  C   UNL     1      43.311 -16.276   6.020  1.00  0.00     0.018 C 
HETATM   10  C   UNL     1      44.589 -18.643   4.310  1.00  0.00     0.049 C 
HETATM   11  C   UNL     1      42.954 -17.929   2.552  1.00  0.00     0.007 A 
HETATM   12  C   UNL     1      41.942 -17.102   2.048  1.00  0.00     0.001 A 
HETATM   13  C   UNL     1      42.108 -15.371   6.377  1.00  0.00     0.047 C 
HETATM   14  C   UNL     1      43.484 -17.364   7.073  1.00  0.00     0.015 C 
ENDBRANCH   1   4
BRANCH   1  15
HETATM   15  C   UNL     1      42.243 -12.461   5.761  1.00  0.00     0.240 C 
BRANCH  15  16
HETATM   16  C   UNL     1      43.522 -11.605   5.676  1.00  0.00     0.040 C 
BRANCH  16  17
HETATM   17  C   UNL     1      44.053 -11.590   4.234  1.00  0.00     0.170 C 
BRANCH  17  18
HETATM   18  O   UNL     1      43.202 -10.773   3.427  1.00  0.00    -0.400 OA
HETATM   19  H   UNL     1      42.631 -11.389   2.921  1.00  0.00     0.209 HD
ENDBRANCH  17  18
ENDBRANCH  16  17
BRANCH  16  20
HETATM   20  C   UNL     1      44.654 -12.050   6.628  1.00  0.00     0.067 C 
BRANCH  20  21
HETATM   21  C   UNL     1      44.908 -11.081   7.752  1.00  0.00     0.034 A 
HETATM   22  N   UNL     1      44.149 -11.250   8.870  1.00  0.00    -0.266 NA
HETATM   23  C   UNL     1      44.396 -10.400   9.900  1.00  0.00     0.117 A 
HETATM   24  C   UNL     1      45.321  -9.372   9.852  1.00  0.00     0.019 A 
HETATM   25  C   UNL     1      46.057  -9.202   8.687  1.00  0.00     0.003 A 
HETATM   26  C   UNL     1      45.854 -10.069   7.618  1.00  0.00     0.027 A 
ENDBRANCH  20  21
ENDBRANCH  16  20
ENDBRANCH  15  16
ENDBRANCH   1  15
TORSDOF 7
ENDMDL
MODEL 6
REMARK VINA RESULT:      -7.1      1.654      2.018
REMARK  7 active torsions:
REMARK  status: ('A' for Active; 'I' for Inactive)
REMARK    1  A    between atoms: C_5  and  N_6 
REMARK    2  A    between atoms: N_6  and  C_9 
REMARK    3  A    between atoms: C_9  and  C_10 
REMARK    4  A    between atoms: C_10  and  C_11 
REMARK    5  A    between atoms: C_10  and  C_13 
REMARK    6  A    between atoms: C_11  and  O_12 
REMARK    7  A    between atoms: C_13  and  C_14 
ROOT
HETATM    1  N   UNL     1      41.772 -15.295   1.440  1.00  0.00    -0.066 N 
HETATM    2  H   UNL     1      42.268 -14.627   2.062  1.00  0.00     0.278 HD
HETATM    3  H   UNL     1      42.500 -15.660   0.795  1.00  0.00     0.278 HD
ENDROOT
BRANCH   1   4
HETATM    4  C   UNL     1      41.231 -16.427   2.227  1.00  0.00     0.220 C 
HETATM    5  C   UNL     1      42.328 -17.214   2.874  1.00  0.00    -0.021 A 
HETATM    6  C   UNL     1      42.491 -16.864   4.228  1.00  0.00    -0.040 A 
HETATM    7  C   UNL     1      43.149 -18.149   2.255  1.00  0.00     0.010 A 
HETATM    8  C   UNL     1      43.526 -17.424   4.975  1.00  0.00    -0.055 A 
HETATM    9  C   UNL     1      41.476 -15.812   4.610  1.00  0.00     0.018 C 
HETATM   10  C   UNL     1      43.794 -17.061   6.406  1.00  0.00     0.049 C 
HETATM   11  C   UNL     1      44.338 -18.386   4.351  1.00  0.00     0.007 A 
HETATM   12  C   UNL     1      44.152 -18.746   3.010  1.00  0.00     0.001 A 
HETATM   13  C   UNL     1      40.456 -15.934   3.452  1.00  0.00     0.047 C 
HETATM   14  C   UNL     1      40.774 -15.985   5.951  1.00  0.00     0.015 C 
ENDBRANCH   1   4
BRANCH   1  15
HETATM   15  C   UNL     1      40.802 -14.530   0.613  1.00  0.00     0.240 C 
BRANCH  15  16
HETATM   16  C   UNL     1      40.427 -13.201   1.300  1.00  0.00     0.040 C 
BRANCH  16  17
HETATM   17  C   UNL     1      39.536 -12.361   0.372  1.00  0.00     0.170 C 
BRANCH  17  18
HETATM   18  O   UNL     1      38.662 -13.230  -0.355  1.00  0.00    -0.400 OA
HETATM   19  H   UNL     1      38.901 -13.128  -1.301  1.00  0.00     0.209 HD
ENDBRANCH  17  18
ENDBRANCH  16  17
BRANCH  16  20
HETATM   20  C   UNL     1      41.635 -12.350   1.749  1.00  0.00     0.067 C 
BRANCH  20  21
HETATM   21  C   UNL     1      41.872 -12.381   3.235  1.00  0.00     0.034 A 
HETATM   22  N   UNL     1      40.792 -12.107   4.019  1.00  0.00    -0.266 NA
HETATM   23  C   UNL     1      40.992 -12.164   5.360  1.00  0.00     0.117 A 
HETATM   24  C   UNL     1      42.213 -12.435   5.952  1.00  0.00     0.019 A 
HETATM   25  C   UNL     1      43.303 -12.679   5.128  1.00  0.00     0.003 A 
HETATM   26  C   UNL     1      43.136 -12.656   3.748  1.00  0.00     0.027 A 
ENDBRANCH  20  21
ENDBRANCH  16  20
ENDBRANCH  15  16
ENDBRANCH   1  15
TORSDOF 7
ENDMDL
MODEL 7
REMARK VINA RESULT:      -7.1      2.978      5.680
REMARK  7 active torsions:
REMARK  status: ('A' for Active; 'I' for Inactive)
REMARK    1  A    between atoms: C_5  and  N_6 
REMARK    2  A    between atoms: N_6  and  C_9 
REMARK    3  A    between atoms: C_9  and  C_10 
REMARK    4  A    between atoms: C_10  and  C_11 
REMARK    5  A    between atoms: C_10  and  C_13 
REMARK    6  A    between atoms: C_11  and  O_12 
REMARK    7  A    between atoms: C_13  and  C_14 
ROOT
HETATM    1  N   UNL     1      41.436 -15.279   2.848  1.00  0.00    -0.066 N 
HETATM    2  H   UNL     1      40.923 -15.719   3.637  1.00  0.00     0.278 HD
HETATM    3  H   UNL     1      41.300 -14.257   2.970  1.00  0.00     0.278 HD
ENDROOT
BRANCH   1   4
HETATM    4  C   UNL     1      42.883 -15.577   2.945  1.00  0.00     0.220 C 
HETATM    5  C   UNL     1      43.254 -16.032   4.322  1.00  0.00    -0.021 A 
HETATM    6  C   UNL     1      43.363 -17.435   4.394  1.00  0.00    -0.040 A 
HETATM    7  C   UNL     1      43.433 -15.225   5.439  1.00  0.00     0.010 A 
HETATM    8  C   UNL     1      43.610 -18.054   5.618  1.00  0.00    -0.055 A 
HETATM    9  C   UNL     1      43.095 -18.039   3.036  1.00  0.00     0.018 C 
HETATM   10  C   UNL     1      43.687 -19.544   5.783  1.00  0.00     0.049 C 
HETATM   11  C   UNL     1      43.813 -17.232   6.740  1.00  0.00     0.007 A 
HETATM   12  C   UNL     1      43.728 -15.836   6.652  1.00  0.00     0.001 A 
HETATM   13  C   UNL     1      43.256 -16.808   2.114  1.00  0.00     0.047 C 
HETATM   14  C   UNL     1      44.021 -19.161   2.584  1.00  0.00     0.015 C 
ENDBRANCH   1   4
BRANCH   1  15
HETATM   15  C   UNL     1      40.757 -15.661   1.581  1.00  0.00     0.240 C 
BRANCH  15  16
HETATM   16  C   UNL     1      40.463 -14.416   0.721  1.00  0.00     0.040 C 
BRANCH  16  17
HETATM   17  C   UNL     1      39.757 -13.345   1.566  1.00  0.00     0.170 C 
BRANCH  17  18
HETATM   18  O   UNL     1      38.807 -13.977   2.428  1.00  0.00    -0.400 OA
HETATM   19  H   UNL     1      37.949 -13.953   1.953  1.00  0.00     0.209 HD
ENDBRANCH  17  18
ENDBRANCH  16  17
BRANCH  16  20
HETATM   20  C   UNL     1      39.625 -14.697  -0.545  1.00  0.00     0.067 C 
BRANCH  20  21
HETATM   21  C   UNL     1      39.467 -13.497  -1.440  1.00  0.00     0.034 A 
HETATM   22  N   UNL     1      38.196 -13.038  -1.606  1.00  0.00    -0.266 NA
HETATM   23  C   UNL     1      38.050 -11.937  -2.387  1.00  0.00     0.117 A 
HETATM   24  C   UNL     1      39.094 -11.305  -3.039  1.00  0.00     0.019 A 
HETATM   25  C   UNL     1      40.375 -11.815  -2.878  1.00  0.00     0.003 A 
HETATM   26  C   UNL     1      40.571 -12.926  -2.065  1.00  0.00     0.027 A 
ENDBRANCH  20  21
ENDBRANCH  16  20
ENDBRANCH  15  16
ENDBRANCH   1  15
TORSDOF 7
ENDMDL
MODEL 8
REMARK VINA RESULT:      -7.0      2.024      4.359
REMARK  7 active torsions:
REMARK  status: ('A' for Active; 'I' for Inactive)
REMARK    1  A    between atoms: C_5  and  N_6 
REMARK    2  A    between atoms: N_6  and  C_9 
REMARK    3  A    between atoms: C_9  and  C_10 
REMARK    4  A    between atoms: C_10  and  C_11 
REMARK    5  A    between atoms: C_10  and  C_13 
REMARK    6  A    between atoms: C_11  and  O_12 
REMARK    7  A    between atoms: C_13  and  C_14 
ROOT
HETATM    1  N   UNL     1      43.786 -15.061   6.495  1.00  0.00    -0.066 N 
HETATM    2  H   UNL     1      44.709 -15.268   6.925  1.00  0.00     0.278 HD
HETATM    3  H   UNL     1      43.998 -14.755   5.526  1.00  0.00     0.278 HD
ENDROOT
BRANCH   1   4
HETATM    4  C   UNL     1      42.960 -16.288   6.432  1.00  0.00     0.220 C 
HETATM    5  C   UNL     1      42.248 -16.399   5.120  1.00  0.00    -0.021 A 
HETATM    6  C   UNL     1      42.913 -17.275   4.240  1.00  0.00    -0.040 A 
HETATM    7  C   UNL     1      41.102 -15.712   4.742  1.00  0.00     0.010 A 
HETATM    8  C   UNL     1      42.453 -17.438   2.935  1.00  0.00    -0.055 A 
HETATM    9  C   UNL     1      44.132 -17.853   4.919  1.00  0.00     0.018 C 
HETATM   10  C   UNL     1      43.137 -18.312   1.926  1.00  0.00     0.049 C 
HETATM   11  C   UNL     1      41.279 -16.758   2.565  1.00  0.00     0.007 A 
HETATM   12  C   UNL     1      40.611 -15.908   3.456  1.00  0.00     0.001 A 
HETATM   13  C   UNL     1      43.832 -17.546   6.405  1.00  0.00     0.047 C 
HETATM   14  C   UNL     1      44.387 -19.343   4.730  1.00  0.00     0.015 C 
ENDBRANCH   1   4
BRANCH   1  15
HETATM   15  C   UNL     1      43.197 -13.892   7.201  1.00  0.00     0.240 C 
BRANCH  15  16
HETATM   16  C   UNL     1      43.465 -12.589   6.421  1.00  0.00     0.040 C 
BRANCH  16  17
HETATM   17  C   UNL     1      44.080 -11.534   7.353  1.00  0.00     0.170 C 
BRANCH  17  18
HETATM   18  O   UNL     1      43.874 -11.927   8.712  1.00  0.00    -0.400 OA
HETATM   19  H   UNL     1      42.968 -12.302   8.754  1.00  0.00     0.209 HD
ENDBRANCH  17  18
ENDBRANCH  16  17
BRANCH  16  20
HETATM   20  C   UNL     1      42.219 -11.991   5.731  1.00  0.00     0.067 C 
BRANCH  20  21
HETATM   21  C   UNL     1      42.098 -12.369   4.279  1.00  0.00     0.034 A 
HETATM   22  N   UNL     1      40.914 -12.064   3.678  1.00  0.00    -0.266 NA
HETATM   23  C   UNL     1      40.809 -12.374   2.361  1.00  0.00     0.117 A 
HETATM   24  C   UNL     1      41.800 -13.007   1.631  1.00  0.00     0.019 A 
HETATM   25  C   UNL     1      42.984 -13.336   2.278  1.00  0.00     0.003 A 
HETATM   26  C   UNL     1      43.142 -13.012   3.622  1.00  0.00     0.027 A 
ENDBRANCH  20  21
ENDBRANCH  16  20
ENDBRANCH  15  16
ENDBRANCH   1  15
TORSDOF 7
ENDMDL
MODEL 9
REMARK VINA RESULT:      -6.8      2.260      5.624
REMARK  7 active torsions:
REMARK  status: ('A' for Active; 'I' for Inactive)
REMARK    1  A    between atoms: C_5  and  N_6 
REMARK    2  A    between atoms: N_6  and  C_9 
REMARK    3  A    between atoms: C_9  and  C_10 
REMARK    4  A    between atoms: C_10  and  C_11 
REMARK    5  A    between atoms: C_10  and  C_13 
REMARK    6  A    between atoms: C_11  and  O_12 
REMARK    7  A    between atoms: C_13  and  C_14 
ROOT
HETATM    1  N   UNL     1      41.012 -14.632   3.573  1.00  0.00    -0.066 N 
HETATM    2  H   UNL     1      40.201 -14.263   3.039  1.00  0.00     0.278 HD
HETATM    3  H   UNL     1      41.816 -14.037   3.295  1.00  0.00     0.278 HD
ENDROOT
BRANCH   1   4
HETATM    4  C   UNL     1      40.786 -14.470   5.028  1.00  0.00     0.220 C 
HETATM    5  C   UNL     1      41.994 -13.904   5.707  1.00  0.00    -0.021 A 
HETATM    6  C   UNL     1      41.862 -12.520   5.933  1.00  0.00    -0.040 A 
HETATM    7  C   UNL     1      43.149 -14.596   6.050  1.00  0.00     0.010 A 
HETATM    8  C   UNL     1      42.924 -11.796   6.472  1.00  0.00    -0.055 A 
HETATM    9  C   UNL     1      40.516 -12.047   5.437  1.00  0.00     0.018 C 
HETATM   10  C   UNL     1      42.878 -10.313   6.692  1.00  0.00     0.049 C 
HETATM   11  C   UNL     1      44.081 -12.505   6.839  1.00  0.00     0.007 A 
HETATM   12  C   UNL     1      44.192 -13.886   6.633  1.00  0.00     0.001 A 
HETATM   13  C   UNL     1      39.746 -13.383   5.313  1.00  0.00     0.047 C 
HETATM   14  C   UNL     1      39.752 -11.079   6.332  1.00  0.00     0.015 C 
ENDBRANCH   1   4
BRANCH   1  15
HETATM   15  C   UNL     1      41.300 -16.008   3.088  1.00  0.00     0.240 C 
BRANCH  15  16
HETATM   16  C   UNL     1      42.802 -16.178   2.786  1.00  0.00     0.040 C 
BRANCH  16  17
HETATM   17  C   UNL     1      43.314 -14.985   1.965  1.00  0.00     0.170 C 
BRANCH  17  18
HETATM   18  O   UNL     1      42.327 -14.623   0.995  1.00  0.00    -0.400 OA
HETATM   19  H   UNL     1      42.220 -13.651   1.063  1.00  0.00     0.209 HD
ENDBRANCH  17  18
ENDBRANCH  16  17
BRANCH  16  20
HETATM   20  C   UNL     1      43.162 -17.489   2.054  1.00  0.00     0.067 C 
BRANCH  20  21
HETATM   21  C   UNL     1      43.516 -18.619   2.984  1.00  0.00     0.034 A 
HETATM   22  N   UNL     1      43.844 -18.264   4.258  1.00  0.00    -0.266 NA
HETATM   23  C   UNL     1      44.134 -19.280   5.110  1.00  0.00     0.117 A 
HETATM   24  C   UNL     1      44.157 -20.615   4.747  1.00  0.00     0.019 A 
HETATM   25  C   UNL     1      43.851 -20.944   3.433  1.00  0.00     0.003 A 
HETATM   26  C   UNL     1      43.522 -19.935   2.534  1.00  0.00     0.027 A 
ENDBRANCH  20  21
ENDBRANCH  16  20
ENDBRANCH  15  16
ENDBRANCH   1  15
TORSDOF 7
ENDMDL
MODEL 10
REMARK VINA RESULT:      -6.6      2.807      7.290
REMARK  7 active torsions:
REMARK  status: ('A' for Active; 'I' for Inactive)
REMARK    1  A    between atoms: C_5  and  N_6 
REMARK    2  A    between atoms: N_6  and  C_9 
REMARK    3  A    between atoms: C_9  and  C_10 
REMARK    4  A    between atoms: C_10  and  C_11 
REMARK    5  A    between atoms: C_10  and  C_13 
REMARK    6  A    between atoms: C_11  and  O_12 
REMARK    7  A    between atoms: C_13  and  C_14 
ROOT
HETATM    1  N   UNL     1      42.227 -12.442   6.501  1.00  0.00    -0.066 N 
HETATM    2  H   UNL     1      42.096 -12.597   7.520  1.00  0.00     0.278 HD
HETATM    3  H   UNL     1      41.268 -12.396   6.106  1.00  0.00     0.278 HD
ENDROOT
BRANCH   1   4
HETATM    4  C   UNL     1      42.898 -11.144   6.260  1.00  0.00     0.220 C 
HETATM    5  C   UNL     1      42.821 -10.259   7.465  1.00  0.00    -0.021 A 
HETATM    6  C   UNL     1      44.016 -10.290   8.210  1.00  0.00    -0.040 A 
HETATM    7  C   UNL     1      41.721  -9.516   7.875  1.00  0.00     0.010 A 
HETATM    8  C   UNL     1      44.104  -9.602   9.419  1.00  0.00    -0.055 A 
HETATM    9  C   UNL     1      45.017 -11.196   7.533  1.00  0.00     0.018 C 
HETATM   10  C   UNL     1      45.323  -9.630  10.292  1.00  0.00     0.049 C 
HETATM   11  C   UNL     1      42.996  -8.833   9.817  1.00  0.00     0.007 A 
HETATM   12  C   UNL     1      41.821  -8.789   9.055  1.00  0.00     0.001 A 
HETATM   13  C   UNL     1      44.412 -11.318   6.115  1.00  0.00     0.047 C 
HETATM   14  C   UNL     1      46.455 -10.698   7.453  1.00  0.00     0.015 C 
ENDBRANCH   1   4
BRANCH   1  15
HETATM   15  C   UNL     1      42.877 -13.650   5.927  1.00  0.00     0.240 C 
BRANCH  15  16
HETATM   16  C   UNL     1      41.857 -14.500   5.143  1.00  0.00     0.040 C 
BRANCH  16  17
HETATM   17  C   UNL     1      40.449 -13.904   5.291  1.00  0.00     0.170 C 
BRANCH  17  18
HETATM   18  O   UNL     1      39.787 -14.528   6.395  1.00  0.00    -0.400 OA
HETATM   19  H   UNL     1      39.266 -15.268   6.018  1.00  0.00     0.209 HD
ENDBRANCH  17  18
ENDBRANCH  16  17
BRANCH  16  20
HETATM   20  C   UNL     1      41.822 -15.990   5.547  1.00  0.00     0.067 C 
BRANCH  20  21
HETATM   21  C   UNL     1      42.553 -16.890   4.586  1.00  0.00     0.034 A 
HETATM   22  N   UNL     1      43.410 -17.789   5.144  1.00  0.00    -0.266 NA
HETATM   23  C   UNL     1      44.049 -18.625   4.286  1.00  0.00     0.117 A 
HETATM   24  C   UNL     1      43.909 -18.579   2.910  1.00  0.00     0.019 A 
HETATM   25  C   UNL     1      43.053 -17.630   2.367  1.00  0.00     0.003 A 
HETATM   26  C   UNL     1      42.359 -16.772   3.214  1.00  0.00     0.027 A 
ENDBRANCH  20  21
ENDBRANCH  16  20
ENDBRANCH  15  16
ENDBRANCH   1  15
TORSDOF 7
ENDMDL
