MODEL 1
REMARK VINA RESULT:      -8.1      0.000      0.000
REMARK  7 active torsions:
REMARK  status: ('A' for Active; 'I' for Inactive)
REMARK    1  A    between atoms: C_3  and  N_4 
REMARK       I    between atoms: N_4  and  C_5 
REMARK    2  A    between atoms: C_5  and  C_6 
REMARK    3  A    between atoms: C_7  and  C_8 
REMARK    4  A    between atoms: C_19  and  C_20 
REMARK    5  A    between atoms: C_20  and  C_21 
REMARK    6  A    between atoms: C_21  and  C_22 
REMARK    7  A    between atoms: C_22  and  O_23 
ROOT
HETATM    1  C   UNL     1      40.261 -14.322   3.000  1.00  0.00     0.062 C 
HETATM    2  C   UNL     1      40.272 -13.137   3.974  1.00  0.00     0.202 C 
HETATM    3  N   UNL     1      39.442 -12.036   3.467  1.00  0.00    -0.083 N 
HETATM    4  C   UNL     1      39.002 -11.951   2.174  1.00  0.00     0.726 A 
HETATM    5  N   UNL     1      39.216 -12.980   1.336  1.00  0.00    -0.192 N 
HETATM    6  N   UNL     1      39.117 -10.933   4.173  1.00  0.00    -0.140 NA
HETATM    7  C   UNL     1      38.537 -10.189   3.220  1.00  0.00     0.166 A 
HETATM    8  N   UNL     1      38.441 -10.785   1.980  1.00  0.00    -0.046 NA
HETATM    9  C   UNL     1      39.801 -14.179   1.729  1.00  0.00     0.037 C 
HETATM   10  C   UNL     1      39.913 -15.222   0.644  1.00  0.00     0.070 C 
HETATM   11  H   UNL     1      38.883 -12.905   0.378  1.00  0.00     0.184 HD
ENDROOT
BRANCH   1  12
HETATM   12  C   UNL     1      40.815 -15.591   3.566  1.00  0.00     0.256 C 
HETATM   13  N   UNL     1      42.031 -15.960   3.037  1.00  0.00    -0.323 N 
HETATM   14  H   UNL     1      42.271 -15.544   2.146  1.00  0.00     0.169 HD
HETATM   15  O   UNL     1      40.129 -16.273   4.315  1.00  0.00    -0.267 OA
BRANCH  13  16
HETATM   16  C   UNL     1      42.915 -16.966   3.494  1.00  0.00     0.041 A 
HETATM   17  C   UNL     1      43.654 -16.943   4.692  1.00  0.00    -0.035 A 
HETATM   18  C   UNL     1      43.676 -15.806   5.676  1.00  0.00     0.050 C 
HETATM   19  C   UNL     1      44.484 -18.043   4.998  1.00  0.00     0.009 A 
HETATM   20  C   UNL     1      44.630 -19.114   4.119  1.00  0.00     0.001 A 
HETATM   21  C   UNL     1      43.946 -19.106   2.912  1.00  0.00     0.002 A 
HETATM   22  C   UNL     1      43.101 -18.039   2.603  1.00  0.00     0.030 A 
ENDBRANCH  13  16
ENDBRANCH   1  12
BRANCH   2  23
HETATM   23  C   UNL     1      41.674 -12.592   4.258  1.00  0.00    -0.027 A 
HETATM   24  C   UNL     1      42.144 -12.417   5.574  1.00  0.00     0.028 A 
HETATM   25  C   UNL     1      43.431 -11.929   5.802  1.00  0.00     0.011 A 
HETATM   26 BR   UNL     1      44.041 -11.700   7.577  1.00  0.00    -0.051 Br
HETATM   27  C   UNL     1      44.268 -11.610   4.737  1.00  0.00     0.019 A 
HETATM   28  C   UNL     1      43.817 -11.782   3.430  1.00  0.00     0.002 A 
HETATM   29  C   UNL     1      42.531 -12.271   3.191  1.00  0.00     0.010 A 
ENDBRANCH   2  23
BRANCH   7  30
HETATM   30  C   UNL     1      38.146  -8.773   3.426  1.00  0.00     0.085 C 
BRANCH  30  31
HETATM   31  C   UNL     1      39.294  -7.914   3.965  1.00  0.00     0.034 C 
BRANCH  31  32
HETATM   32  C   UNL     1      40.564  -7.936   3.116  1.00  0.00     0.164 C 
BRANCH  32  33
HETATM   33  O   UNL     1      41.547  -8.794   3.677  1.00  0.00    -0.401 OA
HETATM   34  H   UNL     1      42.367  -8.649   3.160  1.00  0.00     0.209 HD
ENDBRANCH  32  33
ENDBRANCH  31  32
ENDBRANCH  30  31
ENDBRANCH   7  30
TORSDOF 7
ENDMDL
MODEL 2
REMARK VINA RESULT:      -7.9      2.139      2.652
REMARK  7 active torsions:
REMARK  status: ('A' for Active; 'I' for Inactive)
REMARK    1  A    between atoms: C_3  and  N_4 
REMARK       I    between atoms: N_4  and  C_5 
REMARK    2  A    between atoms: C_5  and  C_6 
REMARK    3  A    between atoms: C_7  and  C_8 
REMARK    4  A    between atoms: C_19  and  C_20 
REMARK    5  A    between atoms: C_20  and  C_21 
REMARK    6  A    between atoms: C_21  and  C_22 
REMARK    7  A    between atoms: C_22  and  O_23 
ROOT
HETATM    1  C   UNL     1      40.813 -14.345   3.206  1.00  0.00     0.062 C 
HETATM    2  C   UNL     1      40.394 -13.949   4.627  1.00  0.00     0.202 C 
HETATM    3  N   UNL     1      39.866 -12.579   4.654  1.00  0.00    -0.083 N 
HETATM    4  C   UNL     1      40.034 -11.680   3.636  1.00  0.00     0.726 A 
HETATM    5  N   UNL     1      40.597 -12.087   2.484  1.00  0.00    -0.192 N 
HETATM    6  N   UNL     1      39.263 -12.011   5.719  1.00  0.00    -0.140 NA
HETATM    7  C   UNL     1      39.155 -10.742   5.297  1.00  0.00     0.166 A 
HETATM    8  N   UNL     1      39.612 -10.502   4.018  1.00  0.00    -0.046 NA
HETATM    9  C   UNL     1      40.954 -13.408   2.231  1.00  0.00     0.037 C 
HETATM   10  C   UNL     1      41.532 -13.662   0.860  1.00  0.00     0.070 C 
HETATM   11  H   UNL     1      40.715 -11.411   1.735  1.00  0.00     0.184 HD
ENDROOT
BRANCH   1  12
HETATM   12  C   UNL     1      41.067 -15.807   3.022  1.00  0.00     0.256 C 
HETATM   13  N   UNL     1      42.395 -16.161   3.094  1.00  0.00    -0.323 N 
HETATM   14  H   UNL     1      43.061 -15.413   2.950  1.00  0.00     0.169 HD
HETATM   15  O   UNL     1      40.151 -16.546   2.687  1.00  0.00    -0.267 OA
BRANCH  13  16
HETATM   16  C   UNL     1      42.951 -17.460   3.178  1.00  0.00     0.041 A 
HETATM   17  C   UNL     1      43.832 -17.925   4.172  1.00  0.00    -0.035 A 
HETATM   18  C   UNL     1      44.385 -17.095   5.298  1.00  0.00     0.050 C 
HETATM   19  C   UNL     1      44.282 -19.262   4.108  1.00  0.00     0.009 A 
HETATM   20  C   UNL     1      43.923 -20.103   3.058  1.00  0.00     0.001 A 
HETATM   21  C   UNL     1      43.102 -19.624   2.048  1.00  0.00     0.002 A 
HETATM   22  C   UNL     1      42.625 -18.314   2.107  1.00  0.00     0.030 A 
ENDBRANCH  13  16
ENDBRANCH   1  12
BRANCH   2  23
HETATM   23  C   UNL     1      41.530 -14.049   5.649  1.00  0.00    -0.027 A 
HETATM   24  C   UNL     1      42.568 -13.099   5.692  1.00  0.00     0.028 A 
HETATM   25  C   UNL     1      43.584 -13.210   6.642  1.00  0.00     0.011 A 
HETATM   26 BR   UNL     1      44.969 -11.925   6.681  1.00  0.00    -0.051 Br
HETATM   27  C   UNL     1      43.586 -14.256   7.560  1.00  0.00     0.019 A 
HETATM   28  C   UNL     1      42.562 -15.200   7.531  1.00  0.00     0.002 A 
HETATM   29  C   UNL     1      41.540 -15.098   6.584  1.00  0.00     0.010 A 
ENDBRANCH   2  23
BRANCH   7  30
HETATM   30  C   UNL     1      38.710  -9.633   6.176  1.00  0.00     0.085 C 
BRANCH  30  31
HETATM   31  C   UNL     1      39.697  -9.344   7.311  1.00  0.00     0.034 C 
BRANCH  31  32
HETATM   32  C   UNL     1      39.221  -9.774   8.698  1.00  0.00     0.164 C 
BRANCH  32  33
HETATM   33  O   UNL     1      38.817 -11.135   8.709  1.00  0.00    -0.401 OA
HETATM   34  H   UNL     1      39.636 -11.666   8.792  1.00  0.00     0.209 HD
ENDBRANCH  32  33
ENDBRANCH  31  32
ENDBRANCH  30  31
ENDBRANCH   7  30
TORSDOF 7
ENDMDL
MODEL 3
REMARK VINA RESULT:      -7.7      3.204      6.251
REMARK  7 active torsions:
REMARK  status: ('A' for Active; 'I' for Inactive)
REMARK    1  A    between atoms: C_3  and  N_4 
REMARK       I    between atoms: N_4  and  C_5 
REMARK    2  A    between atoms: C_5  and  C_6 
REMARK    3  A    between atoms: C_7  and  C_8 
REMARK    4  A    between atoms: C_19  and  C_20 
REMARK    5  A    between atoms: C_20  and  C_21 
REMARK    6  A    between atoms: C_21  and  C_22 
REMARK    7  A    between atoms: C_22  and  O_23 
ROOT
HETATM    1  C   UNL     1      41.168 -12.265   2.404  1.00  0.00     0.062 C 
HETATM    2  C   UNL     1      41.597 -13.133   3.594  1.00  0.00     0.202 C 
HETATM    3  N   UNL     1      42.480 -12.383   4.496  1.00  0.00    -0.083 N 
HETATM    4  C   UNL     1      43.093 -11.208   4.156  1.00  0.00     0.726 A 
HETATM    5  N   UNL     1      42.787 -10.620   2.987  1.00  0.00    -0.192 N 
HETATM    6  N   UNL     1      42.881 -12.816   5.710  1.00  0.00    -0.140 NA
HETATM    7  C   UNL     1      43.793 -11.883   6.018  1.00  0.00     0.166 A 
HETATM    8  N   UNL     1      43.946 -10.874   5.090  1.00  0.00    -0.046 NA
HETATM    9  C   UNL     1      41.810 -11.101   2.121  1.00  0.00     0.037 C 
HETATM   10  C   UNL     1      41.591 -10.270   0.880  1.00  0.00     0.070 C 
HETATM   11  H   UNL     1      43.248  -9.747   2.745  1.00  0.00     0.184 HD
ENDROOT
BRANCH   1  12
HETATM   12  C   UNL     1      40.036 -12.828   1.605  1.00  0.00     0.256 C 
HETATM   13  N   UNL     1      40.076 -12.507   0.268  1.00  0.00    -0.323 N 
HETATM   14  H   UNL     1      40.647 -11.708   0.021  1.00  0.00     0.169 HD
HETATM   15  O   UNL     1      39.109 -13.386   2.175  1.00  0.00    -0.267 OA
BRANCH  13  16
HETATM   16  C   UNL     1      39.297 -13.043  -0.785  1.00  0.00     0.041 A 
HETATM   17  C   UNL     1      38.131 -12.475  -1.331  1.00  0.00    -0.035 A 
HETATM   18  C   UNL     1      37.472 -11.213  -0.846  1.00  0.00     0.050 C 
HETATM   19  C   UNL     1      37.483 -13.144  -2.392  1.00  0.00     0.009 A 
HETATM   20  C   UNL     1      37.936 -14.373  -2.865  1.00  0.00     0.001 A 
HETATM   21  C   UNL     1      39.051 -14.960  -2.285  1.00  0.00     0.002 A 
HETATM   22  C   UNL     1      39.721 -14.302  -1.252  1.00  0.00     0.030 A 
ENDBRANCH  13  16
ENDBRANCH   1  12
BRANCH   2  23
HETATM   23  C   UNL     1      42.310 -14.424   3.183  1.00  0.00    -0.027 A 
HETATM   24  C   UNL     1      42.597 -15.437   4.118  1.00  0.00     0.028 A 
HETATM   25  C   UNL     1      43.239 -16.607   3.712  1.00  0.00     0.011 A 
HETATM   26 BR   UNL     1      43.616 -17.954   4.984  1.00  0.00    -0.051 Br
HETATM   27  C   UNL     1      43.603 -16.792   2.381  1.00  0.00     0.019 A 
HETATM   28  C   UNL     1      43.321 -15.799   1.446  1.00  0.00     0.002 A 
HETATM   29  C   UNL     1      42.679 -14.624   1.841  1.00  0.00     0.010 A 
ENDBRANCH   2  23
BRANCH   7  30
HETATM   30  C   UNL     1      44.686 -11.983   7.199  1.00  0.00     0.085 C 
BRANCH  30  31
HETATM   31  C   UNL     1      45.808 -10.940   7.183  1.00  0.00     0.034 C 
BRANCH  31  32
HETATM   32  C   UNL     1      45.730  -9.898   8.297  1.00  0.00     0.164 C 
BRANCH  32  33
HETATM   33  O   UNL     1      46.164  -8.623   7.846  1.00  0.00    -0.401 OA
HETATM   34  H   UNL     1      45.401  -8.018   7.953  1.00  0.00     0.209 HD
ENDBRANCH  32  33
ENDBRANCH  31  32
ENDBRANCH  30  31
ENDBRANCH   7  30
TORSDOF 7
ENDMDL
MODEL 4
REMARK VINA RESULT:      -7.4      3.390      5.964
REMARK  7 active torsions:
REMARK  status: ('A' for Active; 'I' for Inactive)
REMARK    1  A    between atoms: C_3  and  N_4 
REMARK       I    between atoms: N_4  and  C_5 
REMARK    2  A    between atoms: C_5  and  C_6 
REMARK    3  A    between atoms: C_7  and  C_8 
REMARK    4  A    between atoms: C_19  and  C_20 
REMARK    5  A    between atoms: C_20  and  C_21 
REMARK    6  A    between atoms: C_21  and  C_22 
REMARK    7  A    between atoms: C_22  and  O_23 
ROOT
HETATM    1  C   UNL     1      41.571 -12.829   4.741  1.00  0.00     0.062 C 
HETATM    2  C   UNL     1      42.468 -11.585   4.735  1.00  0.00     0.202 C 
HETATM    3  N   UNL     1      43.525 -11.698   5.749  1.00  0.00    -0.083 N 
HETATM    4  C   UNL     1      43.509 -12.615   6.764  1.00  0.00     0.726 A 
HETATM    5  N   UNL     1      42.552 -13.559   6.783  1.00  0.00    -0.192 N 
HETATM    6  N   UNL     1      44.565 -10.846   5.869  1.00  0.00    -0.140 NA
HETATM    7  C   UNL     1      45.100 -11.268   7.024  1.00  0.00     0.166 A 
HETATM    8  N   UNL     1      44.482 -12.359   7.600  1.00  0.00    -0.046 NA
HETATM    9  C   UNL     1      41.606 -13.711   5.774  1.00  0.00     0.037 C 
HETATM   10  C   UNL     1      40.646 -14.860   5.966  1.00  0.00     0.070 C 
HETATM   11  H   UNL     1      42.551 -14.236   7.541  1.00  0.00     0.184 HD
ENDROOT
BRANCH   1  12
HETATM   12  C   UNL     1      40.669 -12.946   3.553  1.00  0.00     0.256 C 
HETATM   13  N   UNL     1      41.330 -13.142   2.363  1.00  0.00    -0.323 N 
HETATM   14  H   UNL     1      42.309 -12.883   2.351  1.00  0.00     0.169 HD
HETATM   15  O   UNL     1      39.472 -12.725   3.674  1.00  0.00    -0.267 OA
BRANCH  13  16
HETATM   16  C   UNL     1      40.784 -13.504   1.108  1.00  0.00     0.041 A 
HETATM   17  C   UNL     1      40.204 -14.743   0.778  1.00  0.00    -0.035 A 
HETATM   18  C   UNL     1      40.115 -15.931   1.697  1.00  0.00     0.050 C 
HETATM   19  C   UNL     1      39.696 -14.929  -0.526  1.00  0.00     0.009 A 
HETATM   20  C   UNL     1      39.810 -13.941  -1.501  1.00  0.00     0.001 A 
HETATM   21  C   UNL     1      40.435 -12.742  -1.190  1.00  0.00     0.002 A 
HETATM   22  C   UNL     1      40.921 -12.529   0.101  1.00  0.00     0.030 A 
ENDBRANCH  13  16
ENDBRANCH   1  12
BRANCH   2  23
HETATM   23  C   UNL     1      41.705 -10.279   4.977  1.00  0.00    -0.027 A 
HETATM   24  C   UNL     1      41.077 -10.011   6.208  1.00  0.00     0.028 A 
HETATM   25  C   UNL     1      40.398  -8.807   6.403  1.00  0.00     0.011 A 
HETATM   26 BR   UNL     1      39.560  -8.467   8.063  1.00  0.00    -0.051 Br
HETATM   27  C   UNL     1      40.332  -7.857   5.388  1.00  0.00     0.019 A 
HETATM   28  C   UNL     1      40.953  -8.109   4.167  1.00  0.00     0.002 A 
HETATM   29  C   UNL     1      41.636  -9.310   3.962  1.00  0.00     0.010 A 
ENDBRANCH   2  23
BRANCH   7  30
HETATM   30  C   UNL     1      46.190 -10.545   7.723  1.00  0.00     0.085 C 
BRANCH  30  31
HETATM   31  C   UNL     1      45.703  -9.272   8.422  1.00  0.00     0.034 C 
BRANCH  31  32
HETATM   32  C   UNL     1      45.067  -9.498   9.793  1.00  0.00     0.164 C 
BRANCH  32  33
HETATM   33  O   UNL     1      45.354 -10.796  10.291  1.00  0.00    -0.401 OA
HETATM   34  H   UNL     1      45.790 -11.282   9.560  1.00  0.00     0.209 HD
ENDBRANCH  32  33
ENDBRANCH  31  32
ENDBRANCH  30  31
ENDBRANCH   7  30
TORSDOF 7
ENDMDL
MODEL 5
REMARK VINA RESULT:      -7.4      3.573      6.086
REMARK  7 active torsions:
REMARK  status: ('A' for Active; 'I' for Inactive)
REMARK    1  A    between atoms: C_3  and  N_4 
REMARK       I    between atoms: N_4  and  C_5 
REMARK    2  A    between atoms: C_5  and  C_6 
REMARK    3  A    between atoms: C_7  and  C_8 
REMARK    4  A    between atoms: C_19  and  C_20 
REMARK    5  A    between atoms: C_20  and  C_21 
REMARK    6  A    between atoms: C_21  and  C_22 
REMARK    7  A    between atoms: C_22  and  O_23 
ROOT
HETATM    1  C   UNL     1      42.964 -13.529   4.210  1.00  0.00     0.062 C 
HETATM    2  C   UNL     1      43.163 -12.037   4.502  1.00  0.00     0.202 C 
HETATM    3  N   UNL     1      43.726 -11.837   5.844  1.00  0.00    -0.083 N 
HETATM    4  C   UNL     1      43.753 -12.807   6.808  1.00  0.00     0.726 A 
HETATM    5  N   UNL     1      43.369 -14.057   6.495  1.00  0.00    -0.192 N 
HETATM    6  N   UNL     1      44.171 -10.655   6.321  1.00  0.00    -0.140 NA
HETATM    7  C   UNL     1      44.387 -10.970   7.605  1.00  0.00     0.166 A 
HETATM    8  N   UNL     1      44.149 -12.287   7.941  1.00  0.00    -0.046 NA
HETATM    9  C   UNL     1      43.012 -14.449   5.209  1.00  0.00     0.037 C 
HETATM   10  C   UNL     1      42.653 -15.908   5.062  1.00  0.00     0.070 C 
HETATM   11  H   UNL     1      43.395 -14.770   7.220  1.00  0.00     0.184 HD
ENDROOT
BRANCH   1  12
HETATM   12  C   UNL     1      42.692 -13.847   2.774  1.00  0.00     0.256 C 
HETATM   13  N   UNL     1      41.378 -13.688   2.401  1.00  0.00    -0.323 N 
HETATM   14  H   UNL     1      40.701 -13.684   3.154  1.00  0.00     0.169 HD
HETATM   15  O   UNL     1      43.572 -14.345   2.086  1.00  0.00    -0.267 OA
BRANCH  13  16
HETATM   16  C   UNL     1      40.832 -13.693   1.095  1.00  0.00     0.041 A 
HETATM   17  C   UNL     1      40.129 -14.752   0.491  1.00  0.00    -0.035 A 
HETATM   18  C   UNL     1      39.884 -16.098   1.116  1.00  0.00     0.050 C 
HETATM   19  C   UNL     1      39.642 -14.581  -0.823  1.00  0.00     0.009 A 
HETATM   20  C   UNL     1      39.892 -13.418  -1.548  1.00  0.00     0.001 A 
HETATM   21  C   UNL     1      40.635 -12.399  -0.971  1.00  0.00     0.002 A 
HETATM   22  C   UNL     1      41.104 -12.539   0.336  1.00  0.00     0.030 A 
ENDBRANCH  13  16
ENDBRANCH   1  12
BRANCH   2  23
HETATM   23  C   UNL     1      41.876 -11.215   4.392  1.00  0.00    -0.027 A 
HETATM   24  C   UNL     1      41.720 -10.218   3.410  1.00  0.00     0.028 A 
HETATM   25  C   UNL     1      40.531  -9.492   3.327  1.00  0.00     0.011 A 
HETATM   26 BR   UNL     1      40.343  -8.157   2.002  1.00  0.00    -0.051 Br
HETATM   27  C   UNL     1      39.484  -9.743   4.209  1.00  0.00     0.019 A 
HETATM   28  C   UNL     1      39.624 -10.730   5.183  1.00  0.00     0.002 A 
HETATM   29  C   UNL     1      40.810 -11.462   5.274  1.00  0.00     0.010 A 
ENDBRANCH   2  23
BRANCH   7  30
HETATM   30  C   UNL     1      44.724  -9.962   8.640  1.00  0.00     0.085 C 
BRANCH  30  31
HETATM   31  C   UNL     1      43.596  -9.758   9.657  1.00  0.00     0.034 C 
BRANCH  31  32
HETATM   32  C   UNL     1      43.861 -10.360  11.036  1.00  0.00     0.164 C 
BRANCH  32  33
HETATM   33  O   UNL     1      43.675 -11.768  11.032  1.00  0.00    -0.401 OA
HETATM   34  H   UNL     1      43.451 -12.019  11.952  1.00  0.00     0.209 HD
ENDBRANCH  32  33
ENDBRANCH  31  32
ENDBRANCH  30  31
ENDBRANCH   7  30
TORSDOF 7
ENDMDL
MODEL 6
REMARK VINA RESULT:      -7.2      4.035      5.445
REMARK  7 active torsions:
REMARK  status: ('A' for Active; 'I' for Inactive)
REMARK    1  A    between atoms: C_3  and  N_4 
REMARK       I    between atoms: N_4  and  C_5 
REMARK    2  A    between atoms: C_5  and  C_6 
REMARK    3  A    between atoms: C_7  and  C_8 
REMARK    4  A    between atoms: C_19  and  C_20 
REMARK    5  A    between atoms: C_20  and  C_21 
REMARK    6  A    between atoms: C_21  and  C_22 
REMARK    7  A    between atoms: C_22  and  O_23 
ROOT
HETATM    1  C   UNL     1      40.779 -12.340   1.629  1.00  0.00     0.062 C 
HETATM    2  C   UNL     1      41.125 -12.088   0.156  1.00  0.00     0.202 C 
HETATM    3  N   UNL     1      41.302 -10.653  -0.101  1.00  0.00    -0.083 N 
HETATM    4  C   UNL     1      40.892  -9.671   0.759  1.00  0.00     0.726 A 
HETATM    5  N   UNL     1      40.418 -10.012   1.970  1.00  0.00    -0.192 N 
HETATM    6  N   UNL     1      41.775 -10.134  -1.254  1.00  0.00    -0.140 NA
HETATM    7  C   UNL     1      41.558  -8.828  -1.046  1.00  0.00     0.166 A 
HETATM    8  N   UNL     1      41.024  -8.503   0.184  1.00  0.00    -0.046 NA
HETATM    9  C   UNL     1      40.388 -11.321   2.440  1.00  0.00     0.037 C 
HETATM   10  C   UNL     1      39.856 -11.485   3.843  1.00  0.00     0.070 C 
HETATM   11  H   UNL     1      40.118  -9.274   2.601  1.00  0.00     0.184 HD
ENDROOT
BRANCH   1  12
HETATM   12  C   UNL     1      40.886 -13.771   2.053  1.00  0.00     0.256 C 
HETATM   13  N   UNL     1      42.177 -14.233   2.155  1.00  0.00    -0.323 N 
HETATM   14  H   UNL     1      42.879 -13.700   1.656  1.00  0.00     0.169 HD
HETATM   15  O   UNL     1      39.876 -14.456   2.136  1.00  0.00    -0.267 OA
BRANCH  13  16
HETATM   16  C   UNL     1      42.630 -15.445   2.727  1.00  0.00     0.041 A 
HETATM   17  C   UNL     1      42.950 -15.658   4.082  1.00  0.00    -0.035 A 
HETATM   18  C   UNL     1      42.919 -14.605   5.156  1.00  0.00     0.050 C 
HETATM   19  C   UNL     1      43.378 -16.942   4.484  1.00  0.00     0.009 A 
HETATM   20  C   UNL     1      43.546 -17.976   3.567  1.00  0.00     0.001 A 
HETATM   21  C   UNL     1      43.288 -17.747   2.223  1.00  0.00     0.002 A 
HETATM   22  C   UNL     1      42.838 -16.492   1.809  1.00  0.00     0.030 A 
ENDBRANCH  13  16
ENDBRANCH   1  12
BRANCH   2  23
HETATM   23  C   UNL     1      40.074 -12.628  -0.819  1.00  0.00    -0.027 A 
HETATM   24  C   UNL     1      38.992 -11.836  -1.248  1.00  0.00     0.028 A 
HETATM   25  C   UNL     1      38.056 -12.351  -2.146  1.00  0.00     0.011 A 
HETATM   26 BR   UNL     1      36.611 -11.271  -2.709  1.00  0.00    -0.051 Br
HETATM   27  C   UNL     1      38.178 -13.651  -2.630  1.00  0.00     0.019 A 
HETATM   28  C   UNL     1      39.247 -14.443  -2.216  1.00  0.00     0.002 A 
HETATM   29  C   UNL     1      40.189 -13.936  -1.318  1.00  0.00     0.010 A 
ENDBRANCH   2  23
BRANCH   7  30
HETATM   30  C   UNL     1      41.740  -7.799  -2.100  1.00  0.00     0.085 C 
BRANCH  30  31
HETATM   31  C   UNL     1      43.203  -7.374  -2.265  1.00  0.00     0.034 C 
BRANCH  31  32
HETATM   32  C   UNL     1      43.629  -6.194  -1.393  1.00  0.00     0.164 C 
BRANCH  32  33
HETATM   33  O   UNL     1      44.835  -5.611  -1.863  1.00  0.00    -0.401 OA
HETATM   34  H   UNL     1      45.484  -6.342  -1.939  1.00  0.00     0.209 HD
ENDBRANCH  32  33
ENDBRANCH  31  32
ENDBRANCH  30  31
ENDBRANCH   7  30
TORSDOF 7
ENDMDL
MODEL 7
REMARK VINA RESULT:      -7.2      2.894      5.869
REMARK  7 active torsions:
REMARK  status: ('A' for Active; 'I' for Inactive)
REMARK    1  A    between atoms: C_3  and  N_4 
REMARK       I    between atoms: N_4  and  C_5 
REMARK    2  A    between atoms: C_5  and  C_6 
REMARK    3  A    between atoms: C_7  and  C_8 
REMARK    4  A    between atoms: C_19  and  C_20 
REMARK    5  A    between atoms: C_20  and  C_21 
REMARK    6  A    between atoms: C_21  and  C_22 
REMARK    7  A    between atoms: C_22  and  O_23 
ROOT
HETATM    1  C   UNL     1      41.453 -13.066   4.507  1.00  0.00     0.062 C 
HETATM    2  C   UNL     1      42.125 -13.558   3.219  1.00  0.00     0.202 C 
HETATM    3  N   UNL     1      41.202 -13.466   2.080  1.00  0.00    -0.083 N 
HETATM    4  C   UNL     1      39.852 -13.287   2.209  1.00  0.00     0.726 A 
HETATM    5  N   UNL     1      39.332 -13.050   3.426  1.00  0.00    -0.192 N 
HETATM    6  N   UNL     1      41.553 -13.662   0.791  1.00  0.00    -0.140 NA
HETATM    7  C   UNL     1      40.349 -13.656   0.201  1.00  0.00     0.166 A 
HETATM    8  N   UNL     1      39.279 -13.420   1.040  1.00  0.00    -0.046 NA
HETATM    9  C   UNL     1      40.106 -12.897   4.572  1.00  0.00     0.037 C 
HETATM   10  C   UNL     1      39.330 -12.595   5.831  1.00  0.00     0.070 C 
HETATM   11  H   UNL     1      38.328 -12.918   3.510  1.00  0.00     0.184 HD
ENDROOT
BRANCH   1  12
HETATM   12  C   UNL     1      42.396 -12.830   5.644  1.00  0.00     0.256 C 
HETATM   13  N   UNL     1      43.195 -11.721   5.492  1.00  0.00    -0.323 N 
HETATM   14  H   UNL     1      43.295 -11.373   4.547  1.00  0.00     0.169 HD
HETATM   15  O   UNL     1      42.505 -13.671   6.526  1.00  0.00    -0.267 OA
BRANCH  13  16
HETATM   16  C   UNL     1      44.024 -11.101   6.457  1.00  0.00     0.041 A 
HETATM   17  C   UNL     1      43.613 -10.186   7.444  1.00  0.00    -0.035 A 
HETATM   18  C   UNL     1      42.214  -9.659   7.608  1.00  0.00     0.050 C 
HETATM   19  C   UNL     1      44.578  -9.671   8.337  1.00  0.00     0.009 A 
HETATM   20  C   UNL     1      45.926 -10.003   8.224  1.00  0.00     0.001 A 
HETATM   21  C   UNL     1      46.338 -10.859   7.213  1.00  0.00     0.002 A 
HETATM   22  C   UNL     1      45.395 -11.398   6.336  1.00  0.00     0.030 A 
ENDBRANCH  13  16
ENDBRANCH   1  12
BRANCH   2  23
HETATM   23  C   UNL     1      42.638 -14.998   3.308  1.00  0.00    -0.027 A 
HETATM   24  C   UNL     1      42.747 -15.666   4.543  1.00  0.00     0.028 A 
HETATM   25  C   UNL     1      43.208 -16.982   4.592  1.00  0.00     0.011 A 
HETATM   26 BR   UNL     1      43.348 -17.859   6.260  1.00  0.00    -0.051 Br
HETATM   27  C   UNL     1      43.565 -17.653   3.426  1.00  0.00     0.019 A 
HETATM   28  C   UNL     1      43.457 -17.004   2.198  1.00  0.00     0.002 A 
HETATM   29  C   UNL     1      42.997 -15.688   2.137  1.00  0.00     0.010 A 
ENDBRANCH   2  23
BRANCH   7  30
HETATM   30  C   UNL     1      40.145 -14.013  -1.224  1.00  0.00     0.085 C 
BRANCH  30  31
HETATM   31  C   UNL     1      39.838 -12.795  -2.101  1.00  0.00     0.034 C 
BRANCH  31  32
HETATM   32  C   UNL     1      38.366 -12.628  -2.474  1.00  0.00     0.164 C 
BRANCH  32  33
HETATM   33  O   UNL     1      37.532 -13.457  -1.678  1.00  0.00    -0.401 OA
HETATM   34  H   UNL     1      37.778 -13.282  -0.746  1.00  0.00     0.209 HD
ENDBRANCH  32  33
ENDBRANCH  31  32
ENDBRANCH  30  31
ENDBRANCH   7  30
TORSDOF 7
ENDMDL
MODEL 8
REMARK VINA RESULT:      -7.1      4.688      6.024
REMARK  7 active torsions:
REMARK  status: ('A' for Active; 'I' for Inactive)
REMARK    1  A    between atoms: C_3  and  N_4 
REMARK       I    between atoms: N_4  and  C_5 
REMARK    2  A    between atoms: C_5  and  C_6 
REMARK    3  A    between atoms: C_7  and  C_8 
REMARK    4  A    between atoms: C_19  and  C_20 
REMARK    5  A    between atoms: C_20  and  C_21 
REMARK    6  A    between atoms: C_21  and  C_22 
REMARK    7  A    between atoms: C_22  and  O_23 
ROOT
HETATM    1  C   UNL     1      41.231 -11.714   1.394  1.00  0.00     0.062 C 
HETATM    2  C   UNL     1      41.217 -11.595  -0.135  1.00  0.00     0.202 C 
HETATM    3  N   UNL     1      41.573 -10.233  -0.556  1.00  0.00    -0.083 N 
HETATM    4  C   UNL     1      41.585  -9.156   0.287  1.00  0.00     0.726 A 
HETATM    5  N   UNL     1      41.392  -9.349   1.604  1.00  0.00    -0.192 N 
HETATM    6  N   UNL     1      41.811  -9.864  -1.832  1.00  0.00    -0.140 NA
HETATM    7  C   UNL     1      41.892  -8.533  -1.695  1.00  0.00     0.166 A 
HETATM    8  N   UNL     1      41.766  -8.061  -0.405  1.00  0.00    -0.046 NA
HETATM    9  C   UNL     1      41.254 -10.607   2.182  1.00  0.00     0.037 C 
HETATM   10  C   UNL     1      41.088 -10.607   3.682  1.00  0.00     0.070 C 
HETATM   11  H   UNL     1      41.404  -8.542   2.221  1.00  0.00     0.184 HD
ENDROOT
BRANCH   1  12
HETATM   12  C   UNL     1      41.189 -13.120   1.904  1.00  0.00     0.256 C 
HETATM   13  N   UNL     1      42.416 -13.740   1.946  1.00  0.00    -0.323 N 
HETATM   14  H   UNL     1      43.139 -13.334   1.365  1.00  0.00     0.169 HD
HETATM   15  O   UNL     1      40.110 -13.662   2.103  1.00  0.00    -0.267 OA
BRANCH  13  16
HETATM   16  C   UNL     1      42.755 -14.967   2.566  1.00  0.00     0.041 A 
HETATM   17  C   UNL     1      42.963 -15.174   3.942  1.00  0.00    -0.035 A 
HETATM   18  C   UNL     1      42.915 -14.104   4.998  1.00  0.00     0.050 C 
HETATM   19  C   UNL     1      43.286 -16.473   4.391  1.00  0.00     0.009 A 
HETATM   20  C   UNL     1      43.461 -17.530   3.502  1.00  0.00     0.001 A 
HETATM   21  C   UNL     1      43.314 -17.310   2.140  1.00  0.00     0.002 A 
HETATM   22  C   UNL     1      42.969 -16.039   1.678  1.00  0.00     0.030 A 
ENDBRANCH  13  16
ENDBRANCH   1  12
BRANCH   2  23
HETATM   23  C   UNL     1      39.869 -11.958  -0.764  1.00  0.00    -0.027 A 
HETATM   24  C   UNL     1      39.734 -13.058  -1.632  1.00  0.00     0.028 A 
HETATM   25  C   UNL     1      38.490 -13.372  -2.182  1.00  0.00     0.011 A 
HETATM   26 BR   UNL     1      38.331 -14.852  -3.346  1.00  0.00    -0.051 Br
HETATM   27  C   UNL     1      37.368 -12.605  -1.881  1.00  0.00     0.019 A 
HETATM   28  C   UNL     1      37.488 -11.516  -1.020  1.00  0.00     0.002 A 
HETATM   29  C   UNL     1      38.728 -11.195  -0.465  1.00  0.00     0.010 A 
ENDBRANCH   2  23
BRANCH   7  30
HETATM   30  C   UNL     1      41.972  -7.603  -2.849  1.00  0.00     0.085 C 
BRANCH  30  31
HETATM   31  C   UNL     1      41.402  -8.207  -4.136  1.00  0.00     0.034 C 
BRANCH  31  32
HETATM   32  C   UNL     1      41.279  -7.229  -5.303  1.00  0.00     0.164 C 
BRANCH  32  33
HETATM   33  O   UNL     1      41.124  -7.911  -6.538  1.00  0.00    -0.401 OA
HETATM   34  H   UNL     1      40.190  -8.206  -6.576  1.00  0.00     0.209 HD
ENDBRANCH  32  33
ENDBRANCH  31  32
ENDBRANCH  30  31
ENDBRANCH   7  30
TORSDOF 7
ENDMDL
MODEL 9
REMARK VINA RESULT:      -6.9      1.767      2.049
REMARK  7 active torsions:
REMARK  status: ('A' for Active; 'I' for Inactive)
REMARK    1  A    between atoms: C_3  and  N_4 
REMARK       I    between atoms: N_4  and  C_5 
REMARK    2  A    between atoms: C_5  and  C_6 
REMARK    3  A    between atoms: C_7  and  C_8 
REMARK    4  A    between atoms: C_19  and  C_20 
REMARK    5  A    between atoms: C_20  and  C_21 
REMARK    6  A    between atoms: C_21  and  C_22 
REMARK    7  A    between atoms: C_22  and  O_23 
ROOT
HETATM    1  C   UNL     1      40.376 -13.645   4.266  1.00  0.00     0.062 C 
HETATM    2  C   UNL     1      40.702 -12.553   5.292  1.00  0.00     0.202 C 
HETATM    3  N   UNL     1      39.874 -11.361   5.068  1.00  0.00    -0.083 N 
HETATM    4  C   UNL     1      39.164 -11.134   3.921  1.00  0.00     0.726 A 
HETATM    5  N   UNL     1      39.100 -12.097   2.985  1.00  0.00    -0.192 N 
HETATM    6  N   UNL     1      39.809 -10.304   5.906  1.00  0.00    -0.140 NA
HETATM    7  C   UNL     1      39.094  -9.444   5.167  1.00  0.00     0.166 A 
HETATM    8  N   UNL     1      38.673  -9.921   3.943  1.00  0.00    -0.046 NA
HETATM    9  C   UNL     1      39.656 -13.362   3.148  1.00  0.00     0.037 C 
HETATM   10  C   UNL     1      39.435 -14.311   1.996  1.00  0.00     0.070 C 
HETATM   11  H   UNL     1      38.568 -11.918   2.138  1.00  0.00     0.184 HD
ENDROOT
BRANCH   1  12
HETATM   12  C   UNL     1      40.935 -14.992   4.598  1.00  0.00     0.256 C 
HETATM   13  N   UNL     1      41.933 -15.412   3.750  1.00  0.00    -0.323 N 
HETATM   14  H   UNL     1      41.973 -14.951   2.850  1.00  0.00     0.169 HD
HETATM   15  O   UNL     1      40.404 -15.673   5.465  1.00  0.00    -0.267 OA
BRANCH  13  16
HETATM   16  C   UNL     1      42.806 -16.515   3.905  1.00  0.00     0.041 A 
HETATM   17  C   UNL     1      43.729 -16.706   4.950  1.00  0.00    -0.035 A 
HETATM   18  C   UNL     1      43.989 -15.731   6.066  1.00  0.00     0.050 C 
HETATM   19  C   UNL     1      44.518 -17.877   4.954  1.00  0.00     0.009 A 
HETATM   20  C   UNL     1      44.444 -18.809   3.922  1.00  0.00     0.001 A 
HETATM   21  C   UNL     1      43.576 -18.589   2.862  1.00  0.00     0.002 A 
HETATM   22  C   UNL     1      42.769 -17.451   2.853  1.00  0.00     0.030 A 
ENDBRANCH  13  16
ENDBRANCH   1  12
BRANCH   2  23
HETATM   23  C   UNL     1      42.173 -12.127   5.284  1.00  0.00    -0.027 A 
HETATM   24  C   UNL     1      42.855 -11.811   6.474  1.00  0.00     0.028 A 
HETATM   25  C   UNL     1      44.199 -11.436   6.437  1.00  0.00     0.011 A 
HETATM   26 BR   UNL     1      45.095 -11.014   8.047  1.00  0.00    -0.051 Br
HETATM   27  C   UNL     1      44.884 -11.372   5.227  1.00  0.00     0.019 A 
HETATM   28  C   UNL     1      44.222 -11.687   4.043  1.00  0.00     0.002 A 
HETATM   29  C   UNL     1      42.877 -12.063   4.069  1.00  0.00     0.010 A 
ENDBRANCH   2  23
BRANCH   7  30
HETATM   30  C   UNL     1      38.878  -8.029   5.556  1.00  0.00     0.085 C 
BRANCH  30  31
HETATM   31  C   UNL     1      39.509  -7.684   6.909  1.00  0.00     0.034 C 
BRANCH  31  32
HETATM   32  C   UNL     1      38.567  -6.998   7.898  1.00  0.00     0.164 C 
BRANCH  32  33
HETATM   33  O   UNL     1      38.390  -7.778   9.071  1.00  0.00    -0.401 OA
HETATM   34  H   UNL     1      39.019  -7.426   9.734  1.00  0.00     0.209 HD
ENDBRANCH  32  33
ENDBRANCH  31  32
ENDBRANCH  30  31
ENDBRANCH   7  30
TORSDOF 7
ENDMDL
MODEL 10
REMARK VINA RESULT:      -6.9      2.462      3.342
REMARK  7 active torsions:
REMARK  status: ('A' for Active; 'I' for Inactive)
REMARK    1  A    between atoms: C_3  and  N_4 
REMARK       I    between atoms: N_4  and  C_5 
REMARK    2  A    between atoms: C_5  and  C_6 
REMARK    3  A    between atoms: C_7  and  C_8 
REMARK    4  A    between atoms: C_19  and  C_20 
REMARK    5  A    between atoms: C_20  and  C_21 
REMARK    6  A    between atoms: C_21  and  C_22 
REMARK    7  A    between atoms: C_22  and  O_23 
ROOT
HETATM    1  C   UNL     1      41.704 -11.699   4.434  1.00  0.00     0.062 C 
HETATM    2  C   UNL     1      41.857 -10.825   5.686  1.00  0.00     0.202 C 
HETATM    3  N   UNL     1      41.555  -9.420   5.383  1.00  0.00    -0.083 N 
HETATM    4  C   UNL     1      41.478  -8.917   4.113  1.00  0.00     0.726 A 
HETATM    5  N   UNL     1      41.550  -9.758   3.066  1.00  0.00    -0.192 N 
HETATM    6  N   UNL     1      41.436  -8.445   6.309  1.00  0.00    -0.140 NA
HETATM    7  C   UNL     1      41.357  -7.363   5.522  1.00  0.00     0.166 A 
HETATM    8  N   UNL     1      41.371  -7.614   4.165  1.00  0.00    -0.046 NA
HETATM    9  C   UNL     1      41.622 -11.140   3.198  1.00  0.00     0.037 C 
HETATM   10  C   UNL     1      41.652 -11.906   1.897  1.00  0.00     0.070 C 
HETATM   11  H   UNL     1      41.490  -9.372   2.128  1.00  0.00     0.184 HD
ENDROOT
BRANCH   1  12
HETATM   12  C   UNL     1      41.686 -13.170   4.706  1.00  0.00     0.256 C 
HETATM   13  N   UNL     1      42.666 -13.876   4.048  1.00  0.00    -0.323 N 
HETATM   14  H   UNL     1      43.077 -13.419   3.244  1.00  0.00     0.169 HD
HETATM   15  O   UNL     1      40.763 -13.658   5.343  1.00  0.00    -0.267 OA
BRANCH  13  16
HETATM   16  C   UNL     1      43.058 -15.221   4.247  1.00  0.00     0.041 A 
HETATM   17  C   UNL     1      43.601 -15.764   5.426  1.00  0.00    -0.035 A 
HETATM   18  C   UNL     1      43.913 -14.987   6.675  1.00  0.00     0.050 C 
HETATM   19  C   UNL     1      43.927 -17.138   5.453  1.00  0.00     0.009 A 
HETATM   20  C   UNL     1      43.781 -17.944   4.328  1.00  0.00     0.001 A 
HETATM   21  C   UNL     1      43.302 -17.393   3.149  1.00  0.00     0.002 A 
HETATM   22  C   UNL     1      42.949 -16.043   3.109  1.00  0.00     0.030 A 
ENDBRANCH  13  16
ENDBRANCH   1  12
BRANCH   2  23
HETATM   23  C   UNL     1      43.252 -10.895   6.313  1.00  0.00    -0.027 A 
HETATM   24  C   UNL     1      43.473 -10.548   7.659  1.00  0.00     0.028 A 
HETATM   25  C   UNL     1      44.754 -10.632   8.207  1.00  0.00     0.011 A 
HETATM   26 BR   UNL     1      45.028 -10.160  10.016  1.00  0.00    -0.051 Br
HETATM   27  C   UNL     1      45.830 -11.059   7.433  1.00  0.00     0.019 A 
HETATM   28  C   UNL     1      45.623 -11.408   6.100  1.00  0.00     0.002 A 
HETATM   29  C   UNL     1      44.345 -11.329   5.543  1.00  0.00     0.010 A 
ENDBRANCH   2  23
BRANCH   7  30
HETATM   30  C   UNL     1      41.391  -5.976   6.047  1.00  0.00     0.085 C 
BRANCH  30  31
HETATM   31  C   UNL     1      41.200  -4.923   4.951  1.00  0.00     0.034 C 
BRANCH  31  32
HETATM   32  C   UNL     1      42.496  -4.367   4.364  1.00  0.00     0.164 C 
BRANCH  32  33
HETATM   33  O   UNL     1      42.979  -5.181   3.307  1.00  0.00    -0.401 OA
HETATM   34  H   UNL     1      43.824  -4.780   3.013  1.00  0.00     0.209 HD
ENDBRANCH  32  33
ENDBRANCH  31  32
ENDBRANCH  30  31
ENDBRANCH   7  30
TORSDOF 7
ENDMDL
