MODEL 1
REMARK VINA RESULT:      -9.2      0.000      0.000
REMARK  10 active torsions:
REMARK  status: ('A' for Active; 'I' for Inactive)
REMARK    1  A    between atoms: C_6  and  C_7 
REMARK    2  A    between atoms: C_7  and  N_8 
REMARK    3  A    between atoms: N_8  and  C_10 
REMARK    4  A    between atoms: N_8  and  C_20 
REMARK    5  A    between atoms: C_10  and  C_11 
REMARK    6  A    between atoms: N_12  and  C_13 
REMARK    7  A    between atoms: C_20  and  C_21 
REMARK    8  A    between atoms: C_21  and  C_22 
REMARK    9  A    between atoms: C_22  and  N_23 
REMARK   10  A    between atoms: C_30  and  O_31 
ROOT
HETATM    1  N   UNL     1      41.594 -13.887   3.531  1.00  0.00    -0.060 N 
HETATM    2  H   UNL     1      41.026 -14.746   3.511  1.00  0.00     0.280 HD
ENDROOT
BRANCH   1   3
HETATM    3  C   UNL     1      43.036 -14.408   3.625  1.00  0.00     0.278 C 
BRANCH   3   4
HETATM    4  C   UNL     1      43.264 -15.873   3.443  1.00  0.00     0.021 A 
HETATM    5  C   UNL     1      43.525 -16.715   4.527  1.00  0.00     0.027 A 
HETATM    6  C   UNL     1      43.678 -18.098   4.334  1.00  0.00    -0.006 A 
HETATM    7  C   UNL     1      43.566 -18.616   3.023  1.00  0.00     0.075 A 
HETATM    8  C   UNL     1      43.919 -18.954   5.421  1.00  0.00     0.014 A 
HETATM    9  C   UNL     1      43.712 -19.997   2.839  1.00  0.00    -0.032 A 
HETATM   10  N   UNL     1      43.319 -17.798   1.980  1.00  0.00    -0.223 NA
HETATM   11  C   UNL     1      43.553 -20.627   1.479  1.00  0.00     0.050 C 
HETATM   12  C   UNL     1      43.942 -20.843   3.937  1.00  0.00     0.009 A 
HETATM   13  C   UNL     1      44.049 -20.323   5.221  1.00  0.00     0.002 A 
HETATM   14  C   UNL     1      43.165 -16.493   2.216  1.00  0.00     0.170 A 
BRANCH  14  15
HETATM   15  O   UNL     1      42.886 -15.799   1.087  1.00  0.00    -0.344 OA
HETATM   16  H   UNL     1      41.907 -15.876   1.111  1.00  0.00     0.219 HD
ENDBRANCH  14  15
ENDBRANCH   3   4
ENDBRANCH   1   3
BRANCH   1  17
HETATM   17  C   UNL     1      41.124 -13.234   4.858  1.00  0.00     0.316 C 
BRANCH  17  18
HETATM   18  C   UNL     1      41.999 -13.648   5.977  1.00  0.00     0.163 A 
HETATM   19  N   UNL     1      43.082 -12.997   6.526  1.00  0.00    -0.253 N 
HETATM   20  N   UNL     1      43.600 -13.801   7.479  1.00  0.00    -0.002 NA
HETATM   21  N   UNL     1      42.811 -14.858   7.554  1.00  0.00     0.018 NA
HETATM   22  N   UNL     1      41.805 -14.773   6.644  1.00  0.00    -0.145 NA
BRANCH  19  23
HETATM   23  C   UNL     1      43.725 -11.696   6.288  1.00  0.00     0.042 C 
HETATM   24  C   UNL     1      44.001 -11.395   4.803  1.00  0.00     0.039 C 
HETATM   25  C   UNL     1      42.809 -10.565   6.813  1.00  0.00     0.039 C 
HETATM   26  C   UNL     1      45.069 -11.649   7.041  1.00  0.00     0.039 C 
ENDBRANCH  19  23
ENDBRANCH  17  18
ENDBRANCH   1  17
BRANCH   1  27
HETATM   27  C   UNL     1      41.267 -13.023   2.340  1.00  0.00     0.237 C 
BRANCH  27  28
HETATM   28  C   UNL     1      40.142 -13.557   1.433  1.00  0.00     0.055 C 
BRANCH  28  29
HETATM   29  C   UNL     1      39.375 -12.486   0.657  1.00  0.00     0.236 C 
BRANCH  29  30
HETATM   30  N   UNL     1      39.499 -12.709  -0.838  1.00  0.00    -0.067 N 
HETATM   31  H   UNL     1      38.771 -12.174  -1.332  1.00  0.00     0.280 HD
HETATM   32  C   UNL     1      40.843 -12.185  -1.382  1.00  0.00     0.261 C 
HETATM   33  C   UNL     1      40.911 -12.406  -2.897  1.00  0.00     0.195 C 
HETATM   34  O   UNL     1      40.754 -13.792  -3.210  1.00  0.00    -0.388 OA
HETATM   35  C   UNL     1      39.486 -14.297  -2.788  1.00  0.00     0.195 C 
HETATM   36  C   UNL     1      39.337 -14.179  -1.266  1.00  0.00     0.261 C 
ENDBRANCH  29  30
ENDBRANCH  28  29
ENDBRANCH  27  28
ENDBRANCH   1  27
TORSDOF 10
ENDMDL
MODEL 2
REMARK VINA RESULT:      -9.0      2.947      6.617
REMARK  10 active torsions:
REMARK  status: ('A' for Active; 'I' for Inactive)
REMARK    1  A    between atoms: C_6  and  C_7 
REMARK    2  A    between atoms: C_7  and  N_8 
REMARK    3  A    between atoms: N_8  and  C_10 
REMARK    4  A    between atoms: N_8  and  C_20 
REMARK    5  A    between atoms: C_10  and  C_11 
REMARK    6  A    between atoms: N_12  and  C_13 
REMARK    7  A    between atoms: C_20  and  C_21 
REMARK    8  A    between atoms: C_21  and  C_22 
REMARK    9  A    between atoms: C_22  and  N_23 
REMARK   10  A    between atoms: C_30  and  O_31 
ROOT
HETATM    1  N   UNL     1      42.376 -13.704   4.592  1.00  0.00    -0.060 N 
HETATM    2  H   UNL     1      42.501 -14.172   3.683  1.00  0.00     0.280 HD
ENDROOT
BRANCH   1   3
HETATM    3  C   UNL     1      43.148 -14.602   5.571  1.00  0.00     0.278 C 
BRANCH   3   4
HETATM    4  C   UNL     1      43.305 -16.045   5.220  1.00  0.00     0.021 A 
HETATM    5  C   UNL     1      43.094 -16.511   3.921  1.00  0.00     0.027 A 
HETATM    6  C   UNL     1      43.305 -17.865   3.605  1.00  0.00    -0.006 A 
HETATM    7  C   UNL     1      43.730 -18.741   4.631  1.00  0.00     0.075 A 
HETATM    8  C   UNL     1      43.115 -18.337   2.296  1.00  0.00     0.014 A 
HETATM    9  C   UNL     1      43.947 -20.086   4.308  1.00  0.00    -0.032 A 
HETATM   10  N   UNL     1      43.928 -18.286   5.885  1.00  0.00    -0.223 NA
HETATM   11  C   UNL     1      44.452 -21.066   5.335  1.00  0.00     0.050 C 
HETATM   12  C   UNL     1      43.764 -20.543   2.992  1.00  0.00     0.009 A 
HETATM   13  C   UNL     1      43.346 -19.673   1.992  1.00  0.00     0.002 A 
HETATM   14  C   UNL     1      43.730 -16.989   6.131  1.00  0.00     0.170 A 
BRANCH  14  15
HETATM   15  O   UNL     1      44.000 -16.666   7.418  1.00  0.00    -0.344 OA
HETATM   16  H   UNL     1      44.031 -17.576   7.789  1.00  0.00     0.219 HD
ENDBRANCH  14  15
ENDBRANCH   3   4
ENDBRANCH   1   3
BRANCH   1  17
HETATM   17  C   UNL     1      40.840 -13.814   4.789  1.00  0.00     0.316 C 
BRANCH  17  18
HETATM   18  C   UNL     1      40.128 -13.043   3.746  1.00  0.00     0.163 A 
HETATM   19  N   UNL     1      40.038 -13.283   2.392  1.00  0.00    -0.253 N 
HETATM   20  N   UNL     1      39.339 -12.265   1.845  1.00  0.00    -0.002 NA
HETATM   21  N   UNL     1      38.956 -11.488   2.841  1.00  0.00     0.018 NA
HETATM   22  N   UNL     1      39.420 -11.963   4.028  1.00  0.00    -0.145 NA
BRANCH  19  23
HETATM   23  C   UNL     1      40.521 -14.352   1.505  1.00  0.00     0.042 C 
HETATM   24  C   UNL     1      42.055 -14.418   1.381  1.00  0.00     0.039 C 
HETATM   25  C   UNL     1      40.056 -15.723   2.051  1.00  0.00     0.039 C 
HETATM   26  C   UNL     1      39.936 -14.143   0.095  1.00  0.00     0.039 C 
ENDBRANCH  19  23
ENDBRANCH  17  18
ENDBRANCH   1  17
BRANCH   1  27
HETATM   27  C   UNL     1      42.823 -12.267   4.501  1.00  0.00     0.237 C 
BRANCH  27  28
HETATM   28  C   UNL     1      43.644 -11.761   5.702  1.00  0.00     0.055 C 
BRANCH  28  29
HETATM   29  C   UNL     1      42.831 -11.056   6.789  1.00  0.00     0.236 C 
BRANCH  29  30
HETATM   30  N   UNL     1      43.735 -10.252   7.703  1.00  0.00    -0.067 N 
HETATM   31  H   UNL     1      43.755 -10.681   8.639  1.00  0.00     0.280 HD
HETATM   32  C   UNL     1      45.196 -10.259   7.209  1.00  0.00     0.261 C 
HETATM   33  C   UNL     1      46.074  -9.459   8.178  1.00  0.00     0.195 C 
HETATM   34  O   UNL     1      45.597  -8.118   8.299  1.00  0.00    -0.388 OA
HETATM   35  C   UNL     1      44.269  -8.066   8.825  1.00  0.00     0.195 C 
HETATM   36  C   UNL     1      43.289  -8.790   7.894  1.00  0.00     0.261 C 
ENDBRANCH  29  30
ENDBRANCH  28  29
ENDBRANCH  27  28
ENDBRANCH   1  27
TORSDOF 10
ENDMDL
MODEL 3
REMARK VINA RESULT:      -8.9      2.206      6.218
REMARK  10 active torsions:
REMARK  status: ('A' for Active; 'I' for Inactive)
REMARK    1  A    between atoms: C_6  and  C_7 
REMARK    2  A    between atoms: C_7  and  N_8 
REMARK    3  A    between atoms: N_8  and  C_10 
REMARK    4  A    between atoms: N_8  and  C_20 
REMARK    5  A    between atoms: C_10  and  C_11 
REMARK    6  A    between atoms: N_12  and  C_13 
REMARK    7  A    between atoms: C_20  and  C_21 
REMARK    8  A    between atoms: C_21  and  C_22 
REMARK    9  A    between atoms: C_22  and  N_23 
REMARK   10  A    between atoms: C_30  and  O_31 
ROOT
HETATM    1  N   UNL     1      41.623 -13.704   3.845  1.00  0.00    -0.060 N 
HETATM    2  H   UNL     1      41.480 -12.781   3.411  1.00  0.00     0.280 HD
ENDROOT
BRANCH   1   3
HETATM    3  C   UNL     1      42.947 -14.191   3.236  1.00  0.00     0.278 C 
BRANCH   3   4
HETATM    4  C   UNL     1      43.212 -15.661   3.223  1.00  0.00     0.021 A 
HETATM    5  C   UNL     1      43.395 -16.384   4.404  1.00  0.00     0.027 A 
HETATM    6  C   UNL     1      43.587 -17.775   4.367  1.00  0.00    -0.006 A 
HETATM    7  C   UNL     1      43.592 -18.424   3.110  1.00  0.00     0.075 A 
HETATM    8  C   UNL     1      43.751 -18.511   5.551  1.00  0.00     0.014 A 
HETATM    9  C   UNL     1      43.774 -19.813   3.080  1.00  0.00    -0.032 A 
HETATM   10  N   UNL     1      43.419 -17.721   1.972  1.00  0.00    -0.223 NA
HETATM   11  C   UNL     1      43.739 -20.579   1.783  1.00  0.00     0.050 C 
HETATM   12  C   UNL     1      43.926 -20.539   4.274  1.00  0.00     0.009 A 
HETATM   13  C   UNL     1      43.918 -19.890   5.502  1.00  0.00     0.002 A 
HETATM   14  C   UNL     1      43.226 -16.404   2.061  1.00  0.00     0.170 A 
BRANCH  14  15
HETATM   15  O   UNL     1      43.030 -15.832   0.849  1.00  0.00    -0.344 OA
HETATM   16  H   UNL     1      43.266 -16.605   0.288  1.00  0.00     0.219 HD
ENDBRANCH  14  15
ENDBRANCH   3   4
ENDBRANCH   1   3
BRANCH   1  17
HETATM   17  C   UNL     1      40.405 -14.496   3.297  1.00  0.00     0.316 C 
BRANCH  17  18
HETATM   18  C   UNL     1      40.119 -14.104   1.899  1.00  0.00     0.163 A 
HETATM   19  N   UNL     1      39.790 -12.867   1.389  1.00  0.00    -0.253 N 
HETATM   20  N   UNL     1      39.553 -13.021   0.069  1.00  0.00    -0.002 NA
HETATM   21  N   UNL     1      39.808 -14.285  -0.218  1.00  0.00     0.018 NA
HETATM   22  N   UNL     1      40.175 -14.967   0.900  1.00  0.00    -0.145 NA
BRANCH  19  23
HETATM   23  C   UNL     1      39.661 -11.520   1.967  1.00  0.00     0.042 C 
HETATM   24  C   UNL     1      38.966 -11.492   3.341  1.00  0.00     0.039 C 
HETATM   25  C   UNL     1      41.067 -10.907   2.162  1.00  0.00     0.039 C 
HETATM   26  C   UNL     1      38.850 -10.632   1.005  1.00  0.00     0.039 C 
ENDBRANCH  19  23
ENDBRANCH  17  18
ENDBRANCH   1  17
BRANCH   1  27
HETATM   27  C   UNL     1      41.577 -13.583   5.346  1.00  0.00     0.237 C 
BRANCH  27  28
HETATM   28  C   UNL     1      42.390 -12.414   5.933  1.00  0.00     0.055 C 
BRANCH  28  29
HETATM   29  C   UNL     1      43.784 -12.788   6.439  1.00  0.00     0.236 C 
BRANCH  29  30
HETATM   30  N   UNL     1      44.324 -11.719   7.370  1.00  0.00    -0.067 N 
HETATM   31  H   UNL     1      44.461 -12.114   8.312  1.00  0.00     0.280 HD
HETATM   32  C   UNL     1      45.713 -11.220   6.920  1.00  0.00     0.261 C 
HETATM   33  C   UNL     1      46.228 -10.165   7.905  1.00  0.00     0.195 C 
HETATM   34  O   UNL     1      45.313  -9.072   7.996  1.00  0.00    -0.388 OA
HETATM   35  C   UNL     1      44.033  -9.482   8.482  1.00  0.00     0.195 C 
HETATM   36  C   UNL     1      43.395 -10.502   7.531  1.00  0.00     0.261 C 
ENDBRANCH  29  30
ENDBRANCH  28  29
ENDBRANCH  27  28
ENDBRANCH   1  27
TORSDOF 10
ENDMDL
MODEL 4
REMARK VINA RESULT:      -8.8      1.982      2.833
REMARK  10 active torsions:
REMARK  status: ('A' for Active; 'I' for Inactive)
REMARK    1  A    between atoms: C_6  and  C_7 
REMARK    2  A    between atoms: C_7  and  N_8 
REMARK    3  A    between atoms: N_8  and  C_10 
REMARK    4  A    between atoms: N_8  and  C_20 
REMARK    5  A    between atoms: C_10  and  C_11 
REMARK    6  A    between atoms: N_12  and  C_13 
REMARK    7  A    between atoms: C_20  and  C_21 
REMARK    8  A    between atoms: C_21  and  C_22 
REMARK    9  A    between atoms: C_22  and  N_23 
REMARK   10  A    between atoms: C_30  and  O_31 
ROOT
HETATM    1  N   UNL     1      42.057 -13.497   2.822  1.00  0.00    -0.060 N 
HETATM    2  H   UNL     1      42.119 -13.660   3.837  1.00  0.00     0.280 HD
ENDROOT
BRANCH   1   3
HETATM    3  C   UNL     1      43.101 -14.461   2.237  1.00  0.00     0.278 C 
BRANCH   3   4
HETATM    4  C   UNL     1      43.210 -15.824   2.840  1.00  0.00     0.021 A 
HETATM    5  C   UNL     1      43.286 -16.972   2.049  1.00  0.00     0.027 A 
HETATM    6  C   UNL     1      43.446 -18.237   2.641  1.00  0.00    -0.006 A 
HETATM    7  C   UNL     1      43.524 -18.319   4.051  1.00  0.00     0.075 A 
HETATM    8  C   UNL     1      43.545 -19.394   1.851  1.00  0.00     0.014 A 
HETATM    9  C   UNL     1      43.692 -19.581   4.634  1.00  0.00    -0.032 A 
HETATM   10  N   UNL     1      43.445 -17.207   4.810  1.00  0.00    -0.223 NA
HETATM   11  C   UNL     1      43.836 -19.741   6.126  1.00  0.00     0.050 C 
HETATM   12  C   UNL     1      43.801 -20.730   3.832  1.00  0.00     0.009 A 
HETATM   13  C   UNL     1      43.723 -20.636   2.448  1.00  0.00     0.002 A 
HETATM   14  C   UNL     1      43.310 -16.028   4.200  1.00  0.00     0.170 A 
BRANCH  14  15
HETATM   15  O   UNL     1      43.281 -14.998   5.079  1.00  0.00    -0.344 OA
HETATM   16  H   UNL     1      42.841 -15.461   5.826  1.00  0.00     0.219 HD
ENDBRANCH  14  15
ENDBRANCH   3   4
ENDBRANCH   1   3
BRANCH   1  17
HETATM   17  C   UNL     1      42.510 -12.016   2.716  1.00  0.00     0.316 C 
BRANCH  17  18
HETATM   18  C   UNL     1      43.122 -11.570   3.986  1.00  0.00     0.163 A 
HETATM   19  N   UNL     1      42.513 -11.168   5.155  1.00  0.00    -0.253 N 
HETATM   20  N   UNL     1      43.486 -10.786   6.010  1.00  0.00    -0.002 NA
HETATM   21  N   UNL     1      44.637 -11.027   5.408  1.00  0.00     0.018 NA
HETATM   22  N   UNL     1      44.432 -11.527   4.160  1.00  0.00    -0.145 NA
BRANCH  19  23
HETATM   23  C   UNL     1      41.116 -11.083   5.608  1.00  0.00     0.042 C 
HETATM   24  C   UNL     1      40.922 -10.250   6.890  1.00  0.00     0.039 C 
HETATM   25  C   UNL     1      40.258 -10.418   4.506  1.00  0.00     0.039 C 
HETATM   26  C   UNL     1      40.584 -12.503   5.877  1.00  0.00     0.039 C 
ENDBRANCH  19  23
ENDBRANCH  17  18
ENDBRANCH   1  17
BRANCH   1  27
HETATM   27  C   UNL     1      40.636 -13.679   2.354  1.00  0.00     0.237 C 
BRANCH  27  28
HETATM   28  C   UNL     1      40.470 -13.909   0.840  1.00  0.00     0.055 C 
BRANCH  28  29
HETATM   29  C   UNL     1      39.572 -12.895   0.128  1.00  0.00     0.236 C 
BRANCH  29  30
HETATM   30  N   UNL     1      38.716 -13.577  -0.921  1.00  0.00    -0.067 N 
HETATM   31  H   UNL     1      37.983 -14.138  -0.462  1.00  0.00     0.280 HD
HETATM   32  C   UNL     1      37.968 -12.554  -1.799  1.00  0.00     0.261 C 
HETATM   33  C   UNL     1      37.096 -13.289  -2.823  1.00  0.00     0.195 C 
HETATM   34  O   UNL     1      37.893 -14.152  -3.635  1.00  0.00    -0.388 OA
HETATM   35  C   UNL     1      38.544 -15.164  -2.865  1.00  0.00     0.195 C 
HETATM   36  C   UNL     1      39.497 -14.534  -1.840  1.00  0.00     0.261 C 
ENDBRANCH  29  30
ENDBRANCH  28  29
ENDBRANCH  27  28
ENDBRANCH   1  27
TORSDOF 10
ENDMDL
MODEL 5
REMARK VINA RESULT:      -8.7      2.782      4.850
REMARK  10 active torsions:
REMARK  status: ('A' for Active; 'I' for Inactive)
REMARK    1  A    between atoms: C_6  and  C_7 
REMARK    2  A    between atoms: C_7  and  N_8 
REMARK    3  A    between atoms: N_8  and  C_10 
REMARK    4  A    between atoms: N_8  and  C_20 
REMARK    5  A    between atoms: C_10  and  C_11 
REMARK    6  A    between atoms: N_12  and  C_13 
REMARK    7  A    between atoms: C_20  and  C_21 
REMARK    8  A    between atoms: C_21  and  C_22 
REMARK    9  A    between atoms: C_22  and  N_23 
REMARK   10  A    between atoms: C_30  and  O_31 
ROOT
HETATM    1  N   UNL     1      42.443 -13.588   5.324  1.00  0.00    -0.060 N 
HETATM    2  H   UNL     1      42.818 -13.573   4.365  1.00  0.00     0.280 HD
ENDROOT
BRANCH   1   3
HETATM    3  C   UNL     1      43.406 -14.518   6.077  1.00  0.00     0.278 C 
BRANCH   3   4
HETATM    4  C   UNL     1      43.475 -15.948   5.649  1.00  0.00     0.021 A 
HETATM    5  C   UNL     1      43.450 -16.313   4.301  1.00  0.00     0.027 A 
HETATM    6  C   UNL     1      43.573 -17.661   3.925  1.00  0.00    -0.006 A 
HETATM    7  C   UNL     1      43.718 -18.637   4.939  1.00  0.00     0.075 A 
HETATM    8  C   UNL     1      43.571 -18.034   2.571  1.00  0.00     0.014 A 
HETATM    9  C   UNL     1      43.849 -19.978   4.557  1.00  0.00    -0.032 A 
HETATM   10  N   UNL     1      43.736 -18.279   6.239  1.00  0.00    -0.223 NA
HETATM   11  C   UNL     1      44.060 -21.066   5.578  1.00  0.00     0.050 C 
HETATM   12  C   UNL     1      43.856 -20.335   3.198  1.00  0.00     0.009 A 
HETATM   13  C   UNL     1      43.714 -19.368   2.211  1.00  0.00     0.002 A 
HETATM   14  C   UNL     1      43.632 -16.985   6.545  1.00  0.00     0.170 A 
BRANCH  14  15
HETATM   15  O   UNL     1      43.702 -16.767   7.880  1.00  0.00    -0.344 OA
HETATM   16  H   UNL     1      44.399 -16.074   7.875  1.00  0.00     0.219 HD
ENDBRANCH  14  15
ENDBRANCH   3   4
ENDBRANCH   1   3
BRANCH   1  17
HETATM   17  C   UNL     1      41.054 -14.246   5.104  1.00  0.00     0.316 C 
BRANCH  17  18
HETATM   18  C   UNL     1      40.266 -13.473   4.118  1.00  0.00     0.163 A 
HETATM   19  N   UNL     1      40.177 -13.634   2.752  1.00  0.00    -0.253 N 
HETATM   20  N   UNL     1      39.390 -12.646   2.276  1.00  0.00    -0.002 NA
HETATM   21  N   UNL     1      38.958 -11.967   3.324  1.00  0.00     0.018 NA
HETATM   22  N   UNL     1      39.476 -12.475   4.474  1.00  0.00    -0.145 NA
BRANCH  19  23
HETATM   23  C   UNL     1      40.734 -14.602   1.795  1.00  0.00     0.042 C 
HETATM   24  C   UNL     1      40.482 -16.074   2.173  1.00  0.00     0.039 C 
HETATM   25  C   UNL     1      40.091 -14.379   0.405  1.00  0.00     0.039 C 
HETATM   26  C   UNL     1      42.256 -14.391   1.687  1.00  0.00     0.039 C 
ENDBRANCH  19  23
ENDBRANCH  17  18
ENDBRANCH   1  17
BRANCH   1  27
HETATM   27  C   UNL     1      42.315 -12.182   5.852  1.00  0.00     0.237 C 
BRANCH  27  28
HETATM   28  C   UNL     1      43.047 -11.106   5.030  1.00  0.00     0.055 C 
BRANCH  28  29
HETATM   29  C   UNL     1      42.879 -11.226   3.514  1.00  0.00     0.236 C 
BRANCH  29  30
HETATM   30  N   UNL     1      41.655 -10.464   3.044  1.00  0.00    -0.067 N 
HETATM   31  H   UNL     1      40.812 -11.041   3.180  1.00  0.00     0.280 HD
HETATM   32  C   UNL     1      41.425  -9.187   3.877  1.00  0.00     0.261 C 
HETATM   33  C   UNL     1      40.164  -8.468   3.385  1.00  0.00     0.195 C 
HETATM   34  O   UNL     1      40.279  -8.143   1.999  1.00  0.00    -0.388 OA
HETATM   35  C   UNL     1      40.418  -9.309   1.184  1.00  0.00     0.195 C 
HETATM   36  C   UNL     1      41.693 -10.078   1.554  1.00  0.00     0.261 C 
ENDBRANCH  29  30
ENDBRANCH  28  29
ENDBRANCH  27  28
ENDBRANCH   1  27
TORSDOF 10
ENDMDL
MODEL 6
REMARK VINA RESULT:      -8.7      3.576      7.261
REMARK  10 active torsions:
REMARK  status: ('A' for Active; 'I' for Inactive)
REMARK    1  A    between atoms: C_6  and  C_7 
REMARK    2  A    between atoms: C_7  and  N_8 
REMARK    3  A    between atoms: N_8  and  C_10 
REMARK    4  A    between atoms: N_8  and  C_20 
REMARK    5  A    between atoms: C_10  and  C_11 
REMARK    6  A    between atoms: N_12  and  C_13 
REMARK    7  A    between atoms: C_20  and  C_21 
REMARK    8  A    between atoms: C_21  and  C_22 
REMARK    9  A    between atoms: C_22  and  N_23 
REMARK   10  A    between atoms: C_30  and  O_31 
ROOT
HETATM    1  N   UNL     1      43.749 -12.669   6.492  1.00  0.00    -0.060 N 
HETATM    2  H   UNL     1      44.018 -12.981   5.548  1.00  0.00     0.280 HD
ENDROOT
BRANCH   1   3
HETATM    3  C   UNL     1      43.209 -13.944   7.156  1.00  0.00     0.278 C 
BRANCH   3   4
HETATM    4  C   UNL     1      43.317 -15.227   6.398  1.00  0.00     0.021 A 
HETATM    5  C   UNL     1      43.192 -15.269   5.007  1.00  0.00     0.027 A 
HETATM    6  C   UNL     1      43.355 -16.481   4.313  1.00  0.00    -0.006 A 
HETATM    7  C   UNL     1      43.642 -17.652   5.053  1.00  0.00     0.075 A 
HETATM    8  C   UNL     1      43.252 -16.528   2.914  1.00  0.00     0.014 A 
HETATM    9  C   UNL     1      43.812 -18.854   4.355  1.00  0.00    -0.032 A 
HETATM   10  N   UNL     1      43.757 -17.605   6.396  1.00  0.00    -0.223 NA
HETATM   11  C   UNL     1      44.172 -20.130   5.070  1.00  0.00     0.050 C 
HETATM   12  C   UNL     1      43.717 -18.885   2.953  1.00  0.00     0.009 A 
HETATM   13  C   UNL     1      43.435 -17.728   2.237  1.00  0.00     0.002 A 
HETATM   14  C   UNL     1      43.609 -16.428   7.008  1.00  0.00     0.170 A 
BRANCH  14  15
HETATM   15  O   UNL     1      43.786 -16.522   8.347  1.00  0.00    -0.344 OA
HETATM   16  H   UNL     1      43.094 -15.882   8.627  1.00  0.00     0.219 HD
ENDBRANCH  14  15
ENDBRANCH   3   4
ENDBRANCH   1   3
BRANCH   1  17
HETATM   17  C   UNL     1      42.616 -11.656   6.172  1.00  0.00     0.316 C 
BRANCH  17  18
HETATM   18  C   UNL     1      42.426 -11.537   4.710  1.00  0.00     0.163 A 
HETATM   19  N   UNL     1      41.310 -11.808   3.949  1.00  0.00    -0.253 N 
HETATM   20  N   UNL     1      41.642 -11.615   2.655  1.00  0.00    -0.002 NA
HETATM   21  N   UNL     1      42.884 -11.167   2.645  1.00  0.00     0.018 NA
HETATM   22  N   UNL     1      43.381 -11.096   3.909  1.00  0.00    -0.145 NA
BRANCH  19  23
HETATM   23  C   UNL     1      39.936 -12.234   4.259  1.00  0.00     0.042 C 
HETATM   24  C   UNL     1      39.145 -12.735   3.036  1.00  0.00     0.039 C 
HETATM   25  C   UNL     1      39.975 -13.399   5.276  1.00  0.00     0.039 C 
HETATM   26  C   UNL     1      39.165 -11.051   4.874  1.00  0.00     0.039 C 
ENDBRANCH  19  23
ENDBRANCH  17  18
ENDBRANCH   1  17
BRANCH   1  27
HETATM   27  C   UNL     1      44.918 -12.000   7.169  1.00  0.00     0.237 C 
BRANCH  27  28
HETATM   28  C   UNL     1      44.669 -10.549   7.621  1.00  0.00     0.055 C 
BRANCH  28  29
HETATM   29  C   UNL     1      45.243 -10.193   8.993  1.00  0.00     0.236 C 
BRANCH  29  30
HETATM   30  N   UNL     1      44.149  -9.713   9.928  1.00  0.00    -0.067 N 
HETATM   31  H   UNL     1      44.417  -8.809  10.342  1.00  0.00     0.280 HD
HETATM   32  C   UNL     1      42.830  -9.451   9.173  1.00  0.00     0.261 C 
HETATM   33  C   UNL     1      41.766  -8.940  10.150  1.00  0.00     0.195 C 
HETATM   34  O   UNL     1      41.557  -9.884  11.203  1.00  0.00    -0.388 OA
HETATM   35  C   UNL     1      42.740 -10.097  11.975  1.00  0.00     0.195 C 
HETATM   36  C   UNL     1      43.861 -10.670  11.099  1.00  0.00     0.261 C 
ENDBRANCH  29  30
ENDBRANCH  28  29
ENDBRANCH  27  28
ENDBRANCH   1  27
TORSDOF 10
ENDMDL
MODEL 7
REMARK VINA RESULT:      -8.7      1.315      1.658
REMARK  10 active torsions:
REMARK  status: ('A' for Active; 'I' for Inactive)
REMARK    1  A    between atoms: C_6  and  C_7 
REMARK    2  A    between atoms: C_7  and  N_8 
REMARK    3  A    between atoms: N_8  and  C_10 
REMARK    4  A    between atoms: N_8  and  C_20 
REMARK    5  A    between atoms: C_10  and  C_11 
REMARK    6  A    between atoms: N_12  and  C_13 
REMARK    7  A    between atoms: C_20  and  C_21 
REMARK    8  A    between atoms: C_21  and  C_22 
REMARK    9  A    between atoms: C_22  and  N_23 
REMARK   10  A    between atoms: C_30  and  O_31 
ROOT
HETATM    1  N   UNL     1      41.395 -13.937   3.887  1.00  0.00    -0.060 N 
HETATM    2  H   UNL     1      40.850 -14.747   3.556  1.00  0.00     0.280 HD
ENDROOT
BRANCH   1   3
HETATM    3  C   UNL     1      42.853 -14.363   3.656  1.00  0.00     0.278 C 
BRANCH   3   4
HETATM    4  C   UNL     1      43.139 -15.821   3.499  1.00  0.00     0.021 A 
HETATM    5  C   UNL     1      43.393 -16.642   4.600  1.00  0.00     0.027 A 
HETATM    6  C   UNL     1      43.602 -18.021   4.428  1.00  0.00    -0.006 A 
HETATM    7  C   UNL     1      43.554 -18.556   3.120  1.00  0.00     0.075 A 
HETATM    8  C   UNL     1      43.836 -18.857   5.532  1.00  0.00     0.014 A 
HETATM    9  C   UNL     1      43.755 -19.932   2.956  1.00  0.00    -0.032 A 
HETATM   10  N   UNL     1      43.313 -17.757   2.059  1.00  0.00    -0.223 NA
HETATM   11  C   UNL     1      43.665 -20.581   1.599  1.00  0.00     0.050 C 
HETATM   12  C   UNL     1      43.977 -20.758   4.071  1.00  0.00     0.009 A 
HETATM   13  C   UNL     1      44.021 -20.222   5.352  1.00  0.00     0.002 A 
HETATM   14  C   UNL     1      43.105 -16.457   2.276  1.00  0.00     0.170 A 
BRANCH  14  15
HETATM   15  O   UNL     1      42.841 -15.784   1.130  1.00  0.00    -0.344 OA
HETATM   16  H   UNL     1      43.385 -14.984   1.307  1.00  0.00     0.219 HD
ENDBRANCH  14  15
ENDBRANCH   3   4
ENDBRANCH   1   3
BRANCH   1  17
HETATM   17  C   UNL     1      41.029 -13.910   5.395  1.00  0.00     0.316 C 
BRANCH  17  18
HETATM   18  C   UNL     1      40.830 -12.518   5.854  1.00  0.00     0.163 A 
HETATM   19  N   UNL     1      41.762 -11.600   6.289  1.00  0.00    -0.253 N 
HETATM   20  N   UNL     1      41.093 -10.490   6.668  1.00  0.00    -0.002 NA
HETATM   21  N   UNL     1      39.818 -10.703   6.396  1.00  0.00     0.018 NA
HETATM   22  N   UNL     1      39.638 -11.947   5.876  1.00  0.00    -0.145 NA
BRANCH  19  23
HETATM   23  C   UNL     1      43.228 -11.603   6.407  1.00  0.00     0.042 C 
HETATM   24  C   UNL     1      43.811 -12.926   6.939  1.00  0.00     0.039 C 
HETATM   25  C   UNL     1      43.857 -11.364   5.014  1.00  0.00     0.039 C 
HETATM   26  C   UNL     1      43.663 -10.473   7.360  1.00  0.00     0.039 C 
ENDBRANCH  19  23
ENDBRANCH  17  18
ENDBRANCH   1  17
BRANCH   1  27
HETATM   27  C   UNL     1      40.941 -12.685   3.181  1.00  0.00     0.237 C 
BRANCH  27  28
HETATM   28  C   UNL     1      40.160 -12.917   1.874  1.00  0.00     0.055 C 
BRANCH  28  29
HETATM   29  C   UNL     1      40.995 -12.816   0.597  1.00  0.00     0.236 C 
BRANCH  29  30
HETATM   30  N   UNL     1      40.122 -12.978  -0.633  1.00  0.00    -0.067 N 
HETATM   31  H   UNL     1      39.226 -12.488  -0.491  1.00  0.00     0.280 HD
HETATM   32  C   UNL     1      40.761 -12.326  -1.875  1.00  0.00     0.261 C 
HETATM   33  C   UNL     1      39.831 -12.489  -3.082  1.00  0.00     0.195 C 
HETATM   34  O   UNL     1      39.564 -13.871  -3.328  1.00  0.00    -0.388 OA
HETATM   35  C   UNL     1      38.903 -14.494  -2.226  1.00  0.00     0.195 C 
HETATM   36  C   UNL     1      39.779 -14.441  -0.968  1.00  0.00     0.261 C 
ENDBRANCH  29  30
ENDBRANCH  28  29
ENDBRANCH  27  28
ENDBRANCH   1  27
TORSDOF 10
ENDMDL
MODEL 8
REMARK VINA RESULT:      -8.5      1.646      2.411
REMARK  10 active torsions:
REMARK  status: ('A' for Active; 'I' for Inactive)
REMARK    1  A    between atoms: C_6  and  C_7 
REMARK    2  A    between atoms: C_7  and  N_8 
REMARK    3  A    between atoms: N_8  and  C_10 
REMARK    4  A    between atoms: N_8  and  C_20 
REMARK    5  A    between atoms: C_10  and  C_11 
REMARK    6  A    between atoms: N_12  and  C_13 
REMARK    7  A    between atoms: C_20  and  C_21 
REMARK    8  A    between atoms: C_21  and  C_22 
REMARK    9  A    between atoms: C_22  and  N_23 
REMARK   10  A    between atoms: C_30  and  O_31 
ROOT
HETATM    1  N   UNL     1      41.376 -14.349   2.190  1.00  0.00    -0.060 N 
HETATM    2  H   UNL     1      40.800 -15.037   2.696  1.00  0.00     0.280 HD
ENDROOT
BRANCH   1   3
HETATM    3  C   UNL     1      42.816 -14.759   2.534  1.00  0.00     0.278 C 
BRANCH   3   4
HETATM    4  C   UNL     1      43.049 -16.153   3.018  1.00  0.00     0.021 A 
HETATM    5  C   UNL     1      43.122 -17.234   2.136  1.00  0.00     0.027 A 
HETATM    6  C   UNL     1      43.399 -18.527   2.612  1.00  0.00    -0.006 A 
HETATM    7  C   UNL     1      43.598 -18.708   4.001  1.00  0.00     0.075 A 
HETATM    8  C   UNL     1      43.494 -19.614   1.729  1.00  0.00     0.014 A 
HETATM    9  C   UNL     1      43.882 -19.997   4.468  1.00  0.00    -0.032 A 
HETATM   10  N   UNL     1      43.522 -17.661   4.849  1.00  0.00    -0.223 NA
HETATM   11  C   UNL     1      44.159 -20.258   5.927  1.00  0.00     0.050 C 
HETATM   12  C   UNL     1      43.986 -21.075   3.573  1.00  0.00     0.009 A 
HETATM   13  C   UNL     1      43.789 -20.884   2.210  1.00  0.00     0.002 A 
HETATM   14  C   UNL     1      43.272 -16.451   4.345  1.00  0.00     0.170 A 
BRANCH  14  15
HETATM   15  O   UNL     1      43.260 -15.492   5.302  1.00  0.00    -0.344 OA
HETATM   16  H   UNL     1      43.886 -14.863   4.880  1.00  0.00     0.219 HD
ENDBRANCH  14  15
ENDBRANCH   3   4
ENDBRANCH   1   3
BRANCH   1  17
HETATM   17  C   UNL     1      40.966 -13.026   2.890  1.00  0.00     0.316 C 
BRANCH  17  18
HETATM   18  C   UNL     1      41.172 -13.128   4.352  1.00  0.00     0.163 A 
HETATM   19  N   UNL     1      42.033 -12.422   5.164  1.00  0.00    -0.253 N 
HETATM   20  N   UNL     1      41.912 -12.918   6.413  1.00  0.00    -0.002 NA
HETATM   21  N   UNL     1      40.957 -13.830   6.370  1.00  0.00     0.018 NA
HETATM   22  N   UNL     1      40.476 -13.962   5.105  1.00  0.00    -0.145 NA
BRANCH  19  23
HETATM   23  C   UNL     1      42.981 -11.320   4.941  1.00  0.00     0.042 C 
HETATM   24  C   UNL     1      43.978 -11.573   3.795  1.00  0.00     0.039 C 
HETATM   25  C   UNL     1      42.201 -10.034   4.581  1.00  0.00     0.039 C 
HETATM   26  C   UNL     1      43.789 -11.078   6.231  1.00  0.00     0.039 C 
ENDBRANCH  19  23
ENDBRANCH  17  18
ENDBRANCH   1  17
BRANCH   1  27
HETATM   27  C   UNL     1      41.009 -14.342   0.728  1.00  0.00     0.237 C 
BRANCH  27  28
HETATM   28  C   UNL     1      40.456 -13.005   0.199  1.00  0.00     0.055 C 
BRANCH  28  29
HETATM   29  C   UNL     1      40.844 -12.671  -1.242  1.00  0.00     0.236 C 
BRANCH  29  30
HETATM   30  N   UNL     1      39.647 -12.797  -2.165  1.00  0.00    -0.067 N 
HETATM   31  H   UNL     1      39.853 -12.343  -3.067  1.00  0.00     0.280 HD
HETATM   32  C   UNL     1      39.339 -14.270  -2.501  1.00  0.00     0.261 C 
HETATM   33  C   UNL     1      38.143 -14.344  -3.457  1.00  0.00     0.195 C 
HETATM   34  O   UNL     1      36.997 -13.716  -2.878  1.00  0.00    -0.388 OA
HETATM   35  C   UNL     1      37.219 -12.328  -2.621  1.00  0.00     0.195 C 
HETATM   36  C   UNL     1      38.366 -12.140  -1.620  1.00  0.00     0.261 C 
ENDBRANCH  29  30
ENDBRANCH  28  29
ENDBRANCH  27  28
ENDBRANCH   1  27
TORSDOF 10
ENDMDL
MODEL 9
REMARK VINA RESULT:      -8.5      1.675      2.525
REMARK  10 active torsions:
REMARK  status: ('A' for Active; 'I' for Inactive)
REMARK    1  A    between atoms: C_6  and  C_7 
REMARK    2  A    between atoms: C_7  and  N_8 
REMARK    3  A    between atoms: N_8  and  C_10 
REMARK    4  A    between atoms: N_8  and  C_20 
REMARK    5  A    between atoms: C_10  and  C_11 
REMARK    6  A    between atoms: N_12  and  C_13 
REMARK    7  A    between atoms: C_20  and  C_21 
REMARK    8  A    between atoms: C_21  and  C_22 
REMARK    9  A    between atoms: C_22  and  N_23 
REMARK   10  A    between atoms: C_30  and  O_31 
ROOT
HETATM    1  N   UNL     1      41.332 -14.153   4.233  1.00  0.00    -0.060 N 
HETATM    2  H   UNL     1      40.796 -15.032   4.251  1.00  0.00     0.280 HD
ENDROOT
BRANCH   1   3
HETATM    3  C   UNL     1      42.788 -14.619   4.077  1.00  0.00     0.278 C 
BRANCH   3   4
HETATM    4  C   UNL     1      43.058 -16.088   4.105  1.00  0.00     0.021 A 
HETATM    5  C   UNL     1      42.949 -16.876   2.957  1.00  0.00     0.027 A 
HETATM    6  C   UNL     1      43.264 -18.245   2.999  1.00  0.00    -0.006 A 
HETATM    7  C   UNL     1      43.688 -18.805   4.226  1.00  0.00     0.075 A 
HETATM    8  C   UNL     1      43.177 -19.039   1.844  1.00  0.00     0.014 A 
HETATM    9  C   UNL     1      44.010 -20.168   4.260  1.00  0.00    -0.032 A 
HETATM   10  N   UNL     1      43.788 -18.040   5.333  1.00  0.00    -0.223 NA
HETATM   11  C   UNL     1      44.520 -20.822   5.518  1.00  0.00     0.050 C 
HETATM   12  C   UNL     1      43.929 -20.948   3.094  1.00  0.00     0.009 A 
HETATM   13  C   UNL     1      43.512 -20.387   1.894  1.00  0.00     0.002 A 
HETATM   14  C   UNL     1      43.492 -16.742   5.239  1.00  0.00     0.170 A 
BRANCH  14  15
HETATM   15  O   UNL     1      43.670 -16.091   6.413  1.00  0.00    -0.344 OA
HETATM   16  H   UNL     1      44.416 -16.627   6.761  1.00  0.00     0.219 HD
ENDBRANCH  14  15
ENDBRANCH   3   4
ENDBRANCH   1   3
BRANCH   1  17
HETATM   17  C   UNL     1      41.051 -13.587   5.651  1.00  0.00     0.316 C 
BRANCH  17  18
HETATM   18  C   UNL     1      42.197 -12.777   6.121  1.00  0.00     0.163 A 
HETATM   19  N   UNL     1      42.404 -11.419   6.026  1.00  0.00    -0.253 N 
HETATM   20  N   UNL     1      43.626 -11.156   6.535  1.00  0.00    -0.002 NA
HETATM   21  N   UNL     1      44.100 -12.301   6.993  1.00  0.00     0.018 NA
HETATM   22  N   UNL     1      43.222 -13.313   6.760  1.00  0.00    -0.145 NA
BRANCH  19  23
HETATM   23  C   UNL     1      41.607 -10.293   5.514  1.00  0.00     0.042 C 
HETATM   24  C   UNL     1      40.085 -10.521   5.578  1.00  0.00     0.039 C 
HETATM   25  C   UNL     1      41.907  -9.028   6.352  1.00  0.00     0.039 C 
HETATM   26  C   UNL     1      41.988 -10.028   4.045  1.00  0.00     0.039 C 
ENDBRANCH  19  23
ENDBRANCH  17  18
ENDBRANCH   1  17
BRANCH   1  27
HETATM   27  C   UNL     1      40.798 -13.243   3.155  1.00  0.00     0.237 C 
BRANCH  27  28
HETATM   28  C   UNL     1      41.453 -13.414   1.772  1.00  0.00     0.055 C 
BRANCH  28  29
HETATM   29  C   UNL     1      41.175 -12.281   0.782  1.00  0.00     0.236 C 
BRANCH  29  30
HETATM   30  N   UNL     1      41.129 -12.807  -0.640  1.00  0.00    -0.067 N 
HETATM   31  H   UNL     1      41.934 -13.427  -0.808  1.00  0.00     0.280 HD
HETATM   32  C   UNL     1      39.877 -13.672  -0.888  1.00  0.00     0.261 C 
HETATM   33  C   UNL     1      39.890 -14.202  -2.325  1.00  0.00     0.195 C 
HETATM   34  O   UNL     1      39.940 -13.122  -3.259  1.00  0.00    -0.388 OA
HETATM   35  C   UNL     1      41.126 -12.340  -3.111  1.00  0.00     0.195 C 
HETATM   36  C   UNL     1      41.185 -11.706  -1.715  1.00  0.00     0.261 C 
ENDBRANCH  29  30
ENDBRANCH  28  29
ENDBRANCH  27  28
ENDBRANCH   1  27
TORSDOF 10
ENDMDL
MODEL 10
REMARK VINA RESULT:      -8.4      2.761      4.420
REMARK  10 active torsions:
REMARK  status: ('A' for Active; 'I' for Inactive)
REMARK    1  A    between atoms: C_6  and  C_7 
REMARK    2  A    between atoms: C_7  and  N_8 
REMARK    3  A    between atoms: N_8  and  C_10 
REMARK    4  A    between atoms: N_8  and  C_20 
REMARK    5  A    between atoms: C_10  and  C_11 
REMARK    6  A    between atoms: N_12  and  C_13 
REMARK    7  A    between atoms: C_20  and  C_21 
REMARK    8  A    between atoms: C_21  and  C_22 
REMARK    9  A    between atoms: C_22  and  N_23 
REMARK   10  A    between atoms: C_30  and  O_31 
ROOT
HETATM    1  N   UNL     1      42.023 -11.265   6.642  1.00  0.00    -0.060 N 
HETATM    2  H   UNL     1      42.306 -11.951   7.357  1.00  0.00     0.280 HD
ENDROOT
BRANCH   1   3
HETATM    3  C   UNL     1      42.818 -11.690   5.397  1.00  0.00     0.278 C 
BRANCH   3   4
HETATM    4  C   UNL     1      42.934 -13.151   5.107  1.00  0.00     0.021 A 
HETATM    5  C   UNL     1      42.913 -13.643   3.800  1.00  0.00     0.027 A 
HETATM    6  C   UNL     1      43.081 -15.016   3.552  1.00  0.00    -0.006 A 
HETATM    7  C   UNL     1      43.268 -15.885   4.652  1.00  0.00     0.075 A 
HETATM    8  C   UNL     1      43.082 -15.516   2.240  1.00  0.00     0.014 A 
HETATM    9  C   UNL     1      43.444 -17.251   4.398  1.00  0.00    -0.032 A 
HETATM   10  N   UNL     1      43.283 -15.405   5.913  1.00  0.00    -0.223 NA
HETATM   11  C   UNL     1      43.702 -18.229   5.516  1.00  0.00     0.050 C 
HETATM   12  C   UNL     1      43.454 -17.736   3.079  1.00  0.00     0.009 A 
HETATM   13  C   UNL     1      43.270 -16.873   2.006  1.00  0.00     0.002 A 
HETATM   14  C   UNL     1      43.135 -14.091   6.095  1.00  0.00     0.170 A 
BRANCH  14  15
HETATM   15  O   UNL     1      43.207 -13.746   7.403  1.00  0.00    -0.344 OA
HETATM   16  H   UNL     1      42.852 -12.832   7.328  1.00  0.00     0.219 HD
ENDBRANCH  14  15
ENDBRANCH   3   4
ENDBRANCH   1   3
BRANCH   1  17
HETATM   17  C   UNL     1      42.561  -9.942   7.251  1.00  0.00     0.316 C 
BRANCH  17  18
HETATM   18  C   UNL     1      43.631 -10.222   8.234  1.00  0.00     0.163 A 
HETATM   19  N   UNL     1      43.810  -9.709   9.500  1.00  0.00    -0.253 N 
HETATM   20  N   UNL     1      44.967 -10.210   9.982  1.00  0.00    -0.002 NA
HETATM   21  N   UNL     1      45.423 -11.053   9.074  1.00  0.00     0.018 NA
HETATM   22  N   UNL     1      44.601 -11.087   7.992  1.00  0.00    -0.145 NA
BRANCH  19  23
HETATM   23  C   UNL     1      43.039  -8.793  10.354  1.00  0.00     0.042 C 
HETATM   24  C   UNL     1      42.960  -7.351   9.817  1.00  0.00     0.039 C 
HETATM   25  C   UNL     1      41.584  -9.305  10.477  1.00  0.00     0.039 C 
HETATM   26  C   UNL     1      43.678  -8.746  11.755  1.00  0.00     0.039 C 
ENDBRANCH  19  23
ENDBRANCH  17  18
ENDBRANCH   1  17
BRANCH   1  27
HETATM   27  C   UNL     1      40.522 -11.246   6.508  1.00  0.00     0.237 C 
BRANCH  27  28
HETATM   28  C   UNL     1      39.996 -10.958   5.089  1.00  0.00     0.055 C 
BRANCH  28  29
HETATM   29  C   UNL     1      39.307 -12.139   4.404  1.00  0.00     0.236 C 
BRANCH  29  30
HETATM   30  N   UNL     1      39.705 -12.222   2.943  1.00  0.00    -0.067 N 
HETATM   31  H   UNL     1      40.692 -11.948   2.835  1.00  0.00     0.280 HD
HETATM   32  C   UNL     1      39.611 -13.666   2.408  1.00  0.00     0.261 C 
HETATM   33  C   UNL     1      40.049 -13.704   0.940  1.00  0.00     0.195 C 
HETATM   34  O   UNL     1      39.242 -12.828   0.151  1.00  0.00    -0.388 OA
HETATM   35  C   UNL     1      39.360 -11.467   0.569  1.00  0.00     0.195 C 
HETATM   36  C   UNL     1      38.885 -11.303   2.018  1.00  0.00     0.261 C 
ENDBRANCH  29  30
ENDBRANCH  28  29
ENDBRANCH  27  28
ENDBRANCH   1  27
TORSDOF 10
ENDMDL
