MODEL 1
REMARK VINA RESULT:      -8.5      0.000      0.000
REMARK  4 active torsions:
REMARK  status: ('A' for Active; 'I' for Inactive)
REMARK    1  A    between atoms: C_5  and  C_6 
REMARK    2  A    between atoms: C_6  and  N_7 
REMARK    3  A    between atoms: C_6  and  C_18 
REMARK    4  A    between atoms: N_7  and  C_8 
ROOT
HETATM    1  C   UNL     1      43.203 -17.064   3.548  1.00  0.00     0.288 C 
ENDROOT
BRANCH   1   2
HETATM    2  C   UNL     1      43.532 -18.530   3.318  1.00  0.00    -0.003 A 
HETATM    3  C   UNL     1      43.973 -19.368   4.340  1.00  0.00     0.126 A 
HETATM    4  N   UNL     1      44.195 -20.694   4.190  1.00  0.00    -0.272 NA
HETATM    5  C   UNL     1      44.014 -21.213   2.958  1.00  0.00     0.116 A 
HETATM    6  C   UNL     1      43.590 -20.471   1.871  1.00  0.00     0.020 A 
HETATM    7  C   UNL     1      43.340 -19.114   2.057  1.00  0.00     0.012 A 
ENDBRANCH   1   2
BRANCH   1   8
HETATM    8  N   UNL     1      42.053 -16.628   2.708  1.00  0.00     0.101 N 
HETATM    9  H   UNL     1      41.346 -16.278   3.348  1.00  0.00     0.317 HD
BRANCH   8  10
HETATM   10  C   UNL     1      42.327 -15.700   1.601  1.00  0.00     0.225 C 
HETATM   11  C   UNL     1      43.321 -14.555   1.916  1.00  0.00     0.069 C 
HETATM   12  C   UNL     1      42.750 -13.576   2.922  1.00  0.00     0.190 C 
HETATM   13  N   UNL     1      41.475 -13.006   2.368  1.00  0.00    -0.067 N 
HETATM   14  C   UNL     1      43.543 -12.315   3.191  1.00  0.00     0.035 C 
HETATM   15  H   UNL     1      41.682 -12.597   1.445  1.00  0.00     0.280 HD
HETATM   16  C   UNL     1      40.424 -14.050   2.160  1.00  0.00     0.237 C 
HETATM   17  C   UNL     1      41.140 -11.846   3.269  1.00  0.00     0.235 C 
HETATM   18  C   UNL     1      40.971 -15.081   1.172  1.00  0.00     0.063 C 
HETATM   19  C   UNL     1      42.497 -11.391   3.815  1.00  0.00     0.030 C 
ENDBRANCH   8  10
ENDBRANCH   1   8
BRANCH   1  20
HETATM   20  C   UNL     1      43.207 -16.588   5.006  1.00  0.00    -0.021 A 
HETATM   21  C   UNL     1      41.978 -16.411   5.682  1.00  0.00     0.012 A 
HETATM   22  C   UNL     1      41.936 -16.018   7.022  1.00  0.00     0.043 A 
HETATM   23  C   UNL     1      43.121 -15.820   7.713  1.00  0.00     0.116 A 
HETATM   24  F   UNL     1      43.085 -15.444   8.997  1.00  0.00    -0.206 F 
HETATM   25  C   UNL     1      44.345 -16.024   7.092  1.00  0.00     0.043 A 
HETATM   26  C   UNL     1      44.387 -16.420   5.752  1.00  0.00     0.012 A 
ENDBRANCH   1  20
TORSDOF 4
ENDMDL
MODEL 2
REMARK VINA RESULT:      -8.3      2.549      5.323
REMARK  4 active torsions:
REMARK  status: ('A' for Active; 'I' for Inactive)
REMARK    1  A    between atoms: C_5  and  C_6 
REMARK    2  A    between atoms: C_6  and  N_7 
REMARK    3  A    between atoms: C_6  and  C_18 
REMARK    4  A    between atoms: N_7  and  C_8 
ROOT
HETATM    1  C   UNL     1      42.270 -14.896   3.694  1.00  0.00     0.288 C 
ENDROOT
BRANCH   1   2
HETATM    2  C   UNL     1      43.003 -13.666   4.206  1.00  0.00    -0.003 A 
HETATM    3  C   UNL     1      43.463 -12.661   3.356  1.00  0.00     0.126 A 
HETATM    4  N   UNL     1      44.044 -11.517   3.782  1.00  0.00    -0.272 NA
HETATM    5  C   UNL     1      44.219 -11.373   5.113  1.00  0.00     0.116 A 
HETATM    6  C   UNL     1      43.811 -12.312   6.043  1.00  0.00     0.020 A 
HETATM    7  C   UNL     1      43.189 -13.469   5.582  1.00  0.00     0.012 A 
ENDBRANCH   1   2
BRANCH   1   8
HETATM    8  N   UNL     1      41.672 -14.650   2.352  1.00  0.00     0.101 N 
HETATM    9  H   UNL     1      42.268 -15.124   1.680  1.00  0.00     0.317 HD
BRANCH   8  10
HETATM   10  C   UNL     1      40.247 -14.966   2.170  1.00  0.00     0.225 C 
HETATM   11  C   UNL     1      39.838 -15.425   0.749  1.00  0.00     0.069 C 
HETATM   12  C   UNL     1      39.972 -14.306  -0.264  1.00  0.00     0.190 C 
HETATM   13  N   UNL     1      39.105 -13.158   0.170  1.00  0.00    -0.067 N 
HETATM   14  C   UNL     1      39.442 -14.564  -1.659  1.00  0.00     0.035 C 
HETATM   15  H   UNL     1      38.145 -13.510   0.290  1.00  0.00     0.280 HD
HETATM   16  C   UNL     1      39.532 -12.584   1.484  1.00  0.00     0.237 C 
HETATM   17  C   UNL     1      39.060 -12.231  -1.017  1.00  0.00     0.235 C 
HETATM   18  C   UNL     1      39.442 -13.691   2.535  1.00  0.00     0.063 C 
HETATM   19  C   UNL     1      39.284 -13.152  -2.221  1.00  0.00     0.030 C 
ENDBRANCH   8  10
ENDBRANCH   1   8
BRANCH   1  20
HETATM   20  C   UNL     1      42.979 -16.241   3.892  1.00  0.00    -0.021 A 
HETATM   21  C   UNL     1      43.282 -16.681   5.201  1.00  0.00     0.012 A 
HETATM   22  C   UNL     1      43.890 -17.917   5.430  1.00  0.00     0.043 A 
HETATM   23  C   UNL     1      44.182 -18.743   4.356  1.00  0.00     0.116 A 
HETATM   24  F   UNL     1      44.764 -19.930   4.571  1.00  0.00    -0.206 F 
HETATM   25  C   UNL     1      43.862 -18.361   3.062  1.00  0.00     0.043 A 
HETATM   26  C   UNL     1      43.251 -17.124   2.833  1.00  0.00     0.012 A 
ENDBRANCH   1  20
TORSDOF 4
ENDMDL
MODEL 3
REMARK VINA RESULT:      -8.2      2.700      4.360
REMARK  4 active torsions:
REMARK  status: ('A' for Active; 'I' for Inactive)
REMARK    1  A    between atoms: C_5  and  C_6 
REMARK    2  A    between atoms: C_6  and  N_7 
REMARK    3  A    between atoms: C_6  and  C_18 
REMARK    4  A    between atoms: N_7  and  C_8 
ROOT
HETATM    1  C   UNL     1      42.627 -16.810   4.001  1.00  0.00     0.288 C 
ENDROOT
BRANCH   1   2
HETATM    2  C   UNL     1      43.176 -18.184   3.655  1.00  0.00    -0.003 A 
HETATM    3  C   UNL     1      43.833 -18.985   4.589  1.00  0.00     0.126 A 
HETATM    4  N   UNL     1      44.260 -20.243   4.339  1.00  0.00    -0.272 NA
HETATM    5  C   UNL     1      44.069 -20.724   3.093  1.00  0.00     0.116 A 
HETATM    6  C   UNL     1      43.440 -20.012   2.088  1.00  0.00     0.020 A 
HETATM    7  C   UNL     1      42.982 -18.729   2.377  1.00  0.00     0.012 A 
ENDBRANCH   1   2
BRANCH   1   8
HETATM    8  N   UNL     1      43.572 -16.051   4.867  1.00  0.00     0.101 N 
HETATM    9  H   UNL     1      43.816 -15.207   4.355  1.00  0.00     0.317 HD
BRANCH   8  10
HETATM   10  C   UNL     1      43.162 -15.778   6.252  1.00  0.00     0.225 C 
HETATM   11  C   UNL     1      41.664 -15.441   6.454  1.00  0.00     0.069 C 
HETATM   12  C   UNL     1      41.296 -14.114   5.822  1.00  0.00     0.190 C 
HETATM   13  N   UNL     1      42.147 -13.037   6.434  1.00  0.00    -0.067 N 
HETATM   14  C   UNL     1      39.905 -13.579   6.091  1.00  0.00     0.035 C 
HETATM   15  H   UNL     1      42.020 -13.072   7.456  1.00  0.00     0.280 HD
HETATM   16  C   UNL     1      43.604 -13.237   6.163  1.00  0.00     0.237 C 
HETATM   17  C   UNL     1      41.522 -11.742   5.984  1.00  0.00     0.235 C 
HETATM   18  C   UNL     1      44.015 -14.584   6.758  1.00  0.00     0.063 C 
HETATM   19  C   UNL     1      40.049 -12.095   5.755  1.00  0.00     0.030 C 
ENDBRANCH   8  10
ENDBRANCH   1   8
BRANCH   1  20
HETATM   20  C   UNL     1      41.972 -16.032   2.854  1.00  0.00    -0.021 A 
HETATM   21  C   UNL     1      40.578 -16.141   2.646  1.00  0.00     0.012 A 
HETATM   22  C   UNL     1      39.934 -15.419   1.638  1.00  0.00     0.043 A 
HETATM   23  C   UNL     1      40.670 -14.557   0.839  1.00  0.00     0.116 A 
HETATM   24  F   UNL     1      40.057 -13.862  -0.126  1.00  0.00    -0.206 F 
HETATM   25  C   UNL     1      42.033 -14.395   1.042  1.00  0.00     0.043 A 
HETATM   26  C   UNL     1      42.677 -15.116   2.052  1.00  0.00     0.012 A 
ENDBRANCH   1  20
TORSDOF 4
ENDMDL
MODEL 4
REMARK VINA RESULT:      -8.0      2.538      4.908
REMARK  4 active torsions:
REMARK  status: ('A' for Active; 'I' for Inactive)
REMARK    1  A    between atoms: C_5  and  C_6 
REMARK    2  A    between atoms: C_6  and  N_7 
REMARK    3  A    between atoms: C_6  and  C_18 
REMARK    4  A    between atoms: N_7  and  C_8 
ROOT
HETATM    1  C   UNL     1      43.314 -15.949   3.121  1.00  0.00     0.288 C 
ENDROOT
BRANCH   1   2
HETATM    2  C   UNL     1      42.109 -15.507   2.306  1.00  0.00    -0.003 A 
HETATM    3  C   UNL     1      42.151 -14.416   1.439  1.00  0.00     0.126 A 
HETATM    4  N   UNL     1      41.126 -14.046   0.638  1.00  0.00    -0.272 NA
HETATM    5  C   UNL     1      39.986 -14.762   0.726  1.00  0.00     0.116 A 
HETATM    6  C   UNL     1      39.832 -15.855   1.559  1.00  0.00     0.020 A 
HETATM    7  C   UNL     1      40.911 -16.235   2.353  1.00  0.00     0.012 A 
ENDBRANCH   1   2
BRANCH   1   8
HETATM    8  N   UNL     1      43.510 -15.077   4.313  1.00  0.00     0.101 N 
HETATM    9  H   UNL     1      43.839 -14.182   3.963  1.00  0.00     0.317 HD
BRANCH   8  10
HETATM   10  C   UNL     1      42.388 -14.942   5.254  1.00  0.00     0.225 C 
HETATM   11  C   UNL     1      41.475 -13.711   5.037  1.00  0.00     0.069 C 
HETATM   12  C   UNL     1      42.200 -12.414   5.331  1.00  0.00     0.190 C 
HETATM   13  N   UNL     1      42.683 -12.445   6.754  1.00  0.00    -0.067 N 
HETATM   14  C   UNL     1      41.378 -11.142   5.327  1.00  0.00     0.035 C 
HETATM   15  H   UNL     1      41.872 -12.628   7.362  1.00  0.00     0.280 HD
HETATM   16  C   UNL     1      43.672 -13.540   6.998  1.00  0.00     0.237 C 
HETATM   17  C   UNL     1      43.114 -11.032   7.052  1.00  0.00     0.235 C 
HETATM   18  C   UNL     1      42.991 -14.872   6.682  1.00  0.00     0.063 C 
HETATM   19  C   UNL     1      42.260 -10.174   6.114  1.00  0.00     0.030 C 
ENDBRANCH   8  10
ENDBRANCH   1   8
BRANCH   1  20
HETATM   20  C   UNL     1      43.468 -17.458   3.342  1.00  0.00    -0.021 A 
HETATM   21  C   UNL     1      43.229 -18.347   2.269  1.00  0.00     0.012 A 
HETATM   22  C   UNL     1      43.396 -19.726   2.416  1.00  0.00     0.043 A 
HETATM   23  C   UNL     1      43.829 -20.236   3.630  1.00  0.00     0.116 A 
HETATM   24  F   UNL     1      43.992 -21.556   3.774  1.00  0.00    -0.206 F 
HETATM   25  C   UNL     1      44.112 -19.389   4.692  1.00  0.00     0.043 A 
HETATM   26  C   UNL     1      43.947 -18.009   4.544  1.00  0.00     0.012 A 
ENDBRANCH   1  20
TORSDOF 4
ENDMDL
MODEL 5
REMARK VINA RESULT:      -7.8      2.646      4.880
REMARK  4 active torsions:
REMARK  status: ('A' for Active; 'I' for Inactive)
REMARK    1  A    between atoms: C_5  and  C_6 
REMARK    2  A    between atoms: C_6  and  N_7 
REMARK    3  A    between atoms: C_6  and  C_18 
REMARK    4  A    between atoms: N_7  and  C_8 
ROOT
HETATM    1  C   UNL     1      42.760 -14.768   3.244  1.00  0.00     0.288 C 
ENDROOT
BRANCH   1   2
HETATM    2  C   UNL     1      41.701 -14.777   2.154  1.00  0.00    -0.003 A 
HETATM    3  C   UNL     1      41.688 -13.848   1.115  1.00  0.00     0.126 A 
HETATM    4  N   UNL     1      40.813 -13.877   0.085  1.00  0.00    -0.272 NA
HETATM    5  C   UNL     1      39.874 -14.846   0.100  1.00  0.00     0.116 A 
HETATM    6  C   UNL     1      39.789 -15.811   1.087  1.00  0.00     0.020 A 
HETATM    7  C   UNL     1      40.719 -15.779   2.123  1.00  0.00     0.012 A 
ENDBRANCH   1   2
BRANCH   1   8
HETATM    8  N   UNL     1      42.445 -13.761   4.297  1.00  0.00     0.101 N 
HETATM    9  H   UNL     1      42.903 -14.080   5.146  1.00  0.00     0.317 HD
BRANCH   8  10
HETATM   10  C   UNL     1      42.724 -12.349   3.996  1.00  0.00     0.225 C 
HETATM   11  C   UNL     1      44.148 -11.855   4.352  1.00  0.00     0.069 C 
HETATM   12  C   UNL     1      44.379 -11.839   5.849  1.00  0.00     0.190 C 
HETATM   13  N   UNL     1      43.356 -10.941   6.485  1.00  0.00    -0.067 N 
HETATM   14  C   UNL     1      45.667 -11.216   6.346  1.00  0.00     0.035 C 
HETATM   15  H   UNL     1      43.418 -10.017   6.034  1.00  0.00     0.280 HD
HETATM   16  C   UNL     1      41.958 -11.436   6.286  1.00  0.00     0.237 C 
HETATM   17  C   UNL     1      43.833 -10.744   7.901  1.00  0.00     0.235 C 
HETATM   18  C   UNL     1      41.690 -11.499   4.782  1.00  0.00     0.063 C 
HETATM   19  C   UNL     1      45.352 -10.927   7.813  1.00  0.00     0.030 C 
ENDBRANCH   8  10
ENDBRANCH   1   8
BRANCH   1  20
HETATM   20  C   UNL     1      43.246 -16.139   3.731  1.00  0.00    -0.021 A 
HETATM   21  C   UNL     1      43.484 -17.166   2.790  1.00  0.00     0.012 A 
HETATM   22  C   UNL     1      43.966 -18.417   3.185  1.00  0.00     0.043 A 
HETATM   23  C   UNL     1      44.241 -18.651   4.523  1.00  0.00     0.116 A 
HETATM   24  F   UNL     1      44.704 -19.847   4.905  1.00  0.00    -0.206 F 
HETATM   25  C   UNL     1      44.058 -17.652   5.468  1.00  0.00     0.043 A 
HETATM   26  C   UNL     1      43.578 -16.399   5.072  1.00  0.00     0.012 A 
ENDBRANCH   1  20
TORSDOF 4
ENDMDL
MODEL 6
REMARK VINA RESULT:      -7.6     13.778     15.832
REMARK  4 active torsions:
REMARK  status: ('A' for Active; 'I' for Inactive)
REMARK    1  A    between atoms: C_5  and  C_6 
REMARK    2  A    between atoms: C_6  and  N_7 
REMARK    3  A    between atoms: C_6  and  C_18 
REMARK    4  A    between atoms: N_7  and  C_8 
ROOT
HETATM    1  C   UNL     1      44.935 -29.752  -0.568  1.00  0.00     0.288 C 
ENDROOT
BRANCH   1   2
HETATM    2  C   UNL     1      43.777 -30.089   0.357  1.00  0.00    -0.003 A 
HETATM    3  C   UNL     1      42.840 -29.139   0.760  1.00  0.00     0.126 A 
HETATM    4  N   UNL     1      41.753 -29.421   1.513  1.00  0.00    -0.272 NA
HETATM    5  C   UNL     1      41.602 -30.697   1.926  1.00  0.00     0.116 A 
HETATM    6  C   UNL     1      42.477 -31.715   1.594  1.00  0.00     0.020 A 
HETATM    7  C   UNL     1      43.573 -31.407   0.793  1.00  0.00     0.012 A 
ENDBRANCH   1   2
BRANCH   1   8
HETATM    8  N   UNL     1      46.217 -30.313  -0.057  1.00  0.00     0.101 N 
HETATM    9  H   UNL     1      46.271 -31.267  -0.400  1.00  0.00     0.317 HD
BRANCH   8  10
HETATM   10  C   UNL     1      47.447 -29.547  -0.311  1.00  0.00     0.225 C 
HETATM   11  C   UNL     1      48.748 -30.156   0.269  1.00  0.00     0.069 C 
HETATM   12  C   UNL     1      48.752 -30.133   1.784  1.00  0.00     0.190 C 
HETATM   13  N   UNL     1      48.607 -28.710   2.244  1.00  0.00    -0.067 N 
HETATM   14  C   UNL     1      50.035 -30.538   2.481  1.00  0.00     0.035 C 
HETATM   15  H   UNL     1      49.357 -28.155   1.807  1.00  0.00     0.280 HD
HETATM   16  C   UNL     1      47.306 -28.103   1.823  1.00  0.00     0.237 C 
HETATM   17  C   UNL     1      48.920 -28.742   3.718  1.00  0.00     0.235 C 
HETATM   18  C   UNL     1      47.243 -28.134   0.295  1.00  0.00     0.063 C 
HETATM   19  C   UNL     1      49.856 -29.944   3.877  1.00  0.00     0.030 C 
ENDBRANCH   8  10
ENDBRANCH   1   8
BRANCH   1  20
HETATM   20  C   UNL     1      44.671 -29.905  -2.071  1.00  0.00    -0.021 A 
HETATM   21  C   UNL     1      44.806 -28.781  -2.918  1.00  0.00     0.012 A 
HETATM   22  C   UNL     1      44.614 -28.884  -4.298  1.00  0.00     0.043 A 
HETATM   23  C   UNL     1      44.309 -30.116  -4.855  1.00  0.00     0.116 A 
HETATM   24  F   UNL     1      44.126 -30.219  -6.177  1.00  0.00    -0.206 F 
HETATM   25  C   UNL     1      44.210 -31.248  -4.058  1.00  0.00     0.043 A 
HETATM   26  C   UNL     1      44.404 -31.145  -2.677  1.00  0.00     0.012 A 
ENDBRANCH   1  20
TORSDOF 4
ENDMDL
MODEL 7
REMARK VINA RESULT:      -7.5      2.501      4.388
REMARK  4 active torsions:
REMARK  status: ('A' for Active; 'I' for Inactive)
REMARK    1  A    between atoms: C_5  and  C_6 
REMARK    2  A    between atoms: C_6  and  N_7 
REMARK    3  A    between atoms: C_6  and  C_18 
REMARK    4  A    between atoms: N_7  and  C_8 
ROOT
HETATM    1  C   UNL     1      42.983 -14.120   2.465  1.00  0.00     0.288 C 
ENDROOT
BRANCH   1   2
HETATM    2  C   UNL     1      43.214 -15.583   2.802  1.00  0.00    -0.003 A 
HETATM    3  C   UNL     1      43.436 -16.025   4.106  1.00  0.00     0.126 A 
HETATM    4  N   UNL     1      43.563 -17.326   4.453  1.00  0.00    -0.272 NA
HETATM    5  C   UNL     1      43.510 -18.237   3.459  1.00  0.00     0.116 A 
HETATM    6  C   UNL     1      43.306 -17.908   2.131  1.00  0.00     0.020 A 
HETATM    7  C   UNL     1      43.149 -16.564   1.801  1.00  0.00     0.012 A 
ENDBRANCH   1   2
BRANCH   1   8
HETATM    8  N   UNL     1      42.028 -13.969   1.331  1.00  0.00     0.101 N 
HETATM    9  H   UNL     1      42.447 -14.446   0.538  1.00  0.00     0.317 HD
BRANCH   8  10
HETATM   10  C   UNL     1      40.630 -14.364   1.559  1.00  0.00     0.225 C 
HETATM   11  C   UNL     1      39.978 -15.204   0.433  1.00  0.00     0.069 C 
HETATM   12  C   UNL     1      39.803 -14.400  -0.840  1.00  0.00     0.190 C 
HETATM   13  N   UNL     1      38.947 -13.202  -0.538  1.00  0.00    -0.067 N 
HETATM   14  C   UNL     1      39.022 -15.043  -1.966  1.00  0.00     0.035 C 
HETATM   15  H   UNL     1      38.067 -13.536  -0.120  1.00  0.00     0.280 HD
HETATM   16  C   UNL     1      39.583 -12.280   0.454  1.00  0.00     0.237 C 
HETATM   17  C   UNL     1      38.578 -12.635  -1.884  1.00  0.00     0.235 C 
HETATM   18  C   UNL     1      39.809 -13.061   1.749  1.00  0.00     0.063 C 
HETATM   19  C   UNL     1      38.629 -13.842  -2.826  1.00  0.00     0.030 C 
ENDBRANCH   8  10
ENDBRANCH   1   8
BRANCH   1  20
HETATM   20  C   UNL     1      42.791 -13.170   3.654  1.00  0.00    -0.021 A 
HETATM   21  C   UNL     1      43.516 -11.958   3.699  1.00  0.00     0.012 A 
HETATM   22  C   UNL     1      43.341 -11.045   4.743  1.00  0.00     0.043 A 
HETATM   23  C   UNL     1      42.422 -11.320   5.743  1.00  0.00     0.116 A 
HETATM   24  F   UNL     1      42.251 -10.448   6.744  1.00  0.00    -0.206 F 
HETATM   25  C   UNL     1      41.665 -12.482   5.708  1.00  0.00     0.043 A 
HETATM   26  C   UNL     1      41.838 -13.394   4.662  1.00  0.00     0.012 A 
ENDBRANCH   1  20
TORSDOF 4
ENDMDL
MODEL 8
REMARK VINA RESULT:      -7.4      3.472      6.066
REMARK  4 active torsions:
REMARK  status: ('A' for Active; 'I' for Inactive)
REMARK    1  A    between atoms: C_5  and  C_6 
REMARK    2  A    between atoms: C_6  and  N_7 
REMARK    3  A    between atoms: C_6  and  C_18 
REMARK    4  A    between atoms: N_7  and  C_8 
ROOT
HETATM    1  C   UNL     1      41.903 -13.051   3.497  1.00  0.00     0.288 C 
ENDROOT
BRANCH   1   2
HETATM    2  C   UNL     1      42.660 -12.500   4.694  1.00  0.00    -0.003 A 
HETATM    3  C   UNL     1      42.662 -11.145   5.021  1.00  0.00     0.126 A 
HETATM    4  N   UNL     1      43.254 -10.632   6.123  1.00  0.00    -0.272 NA
HETATM    5  C   UNL     1      43.916 -11.493   6.924  1.00  0.00     0.116 A 
HETATM    6  C   UNL     1      43.988 -12.854   6.688  1.00  0.00     0.020 A 
HETATM    7  C   UNL     1      43.345 -13.363   5.563  1.00  0.00     0.012 A 
ENDBRANCH   1   2
BRANCH   1   8
HETATM    8  N   UNL     1      41.771 -12.027   2.422  1.00  0.00     0.101 N 
HETATM    9  H   UNL     1      42.395 -12.315   1.674  1.00  0.00     0.317 HD
BRANCH   8  10
HETATM   10  C   UNL     1      40.418 -11.709   1.944  1.00  0.00     0.225 C 
HETATM   11  C   UNL     1      39.679 -12.855   1.210  1.00  0.00     0.069 C 
HETATM   12  C   UNL     1      40.335 -13.191  -0.113  1.00  0.00     0.190 C 
HETATM   13  N   UNL     1      40.343 -11.958  -0.973  1.00  0.00    -0.067 N 
HETATM   14  C   UNL     1      39.617 -14.173  -1.015  1.00  0.00     0.035 C 
HETATM   15  H   UNL     1      39.374 -11.617  -1.052  1.00  0.00     0.280 HD
HETATM   16  C   UNL     1      41.152 -10.850  -0.376  1.00  0.00     0.237 C 
HETATM   17  C   UNL     1      40.725 -12.442  -2.348  1.00  0.00     0.235 C 
HETATM   18  C   UNL     1      40.543 -10.498   0.981  1.00  0.00     0.063 C 
HETATM   19  C   UNL     1      40.252 -13.898  -2.378  1.00  0.00     0.030 C 
ENDBRANCH   8  10
ENDBRANCH   1   8
BRANCH   1  20
HETATM   20  C   UNL     1      42.277 -14.469   3.051  1.00  0.00    -0.021 A 
HETATM   21  C   UNL     1      41.581 -15.574   3.592  1.00  0.00     0.012 A 
HETATM   22  C   UNL     1      41.861 -16.881   3.183  1.00  0.00     0.043 A 
HETATM   23  C   UNL     1      42.823 -17.100   2.211  1.00  0.00     0.116 A 
HETATM   24  F   UNL     1      43.094 -18.350   1.816  1.00  0.00    -0.206 F 
HETATM   25  C   UNL     1      43.497 -16.036   1.629  1.00  0.00     0.043 A 
HETATM   26  C   UNL     1      43.215 -14.728   2.036  1.00  0.00     0.012 A 
ENDBRANCH   1  20
TORSDOF 4
ENDMDL
MODEL 9
REMARK VINA RESULT:      -7.4     14.012     15.807
REMARK  4 active torsions:
REMARK  status: ('A' for Active; 'I' for Inactive)
REMARK    1  A    between atoms: C_5  and  C_6 
REMARK    2  A    between atoms: C_6  and  N_7 
REMARK    3  A    between atoms: C_6  and  C_18 
REMARK    4  A    between atoms: N_7  and  C_8 
ROOT
HETATM    1  C   UNL     1      44.654 -29.332   0.269  1.00  0.00     0.288 C 
ENDROOT
BRANCH   1   2
HETATM    2  C   UNL     1      43.568 -30.024   1.076  1.00  0.00    -0.003 A 
HETATM    3  C   UNL     1      43.676 -31.350   1.495  1.00  0.00     0.126 A 
HETATM    4  N   UNL     1      42.769 -31.971   2.282  1.00  0.00    -0.272 NA
HETATM    5  C   UNL     1      41.678 -31.264   2.642  1.00  0.00     0.116 A 
HETATM    6  C   UNL     1      41.465 -29.948   2.274  1.00  0.00     0.020 A 
HETATM    7  C   UNL     1      42.426 -29.320   1.487  1.00  0.00     0.012 A 
ENDBRANCH   1   2
BRANCH   1   8
HETATM    8  N   UNL     1      46.003 -29.578   0.853  1.00  0.00     0.101 N 
HETATM    9  H   UNL     1      46.322 -30.465   0.475  1.00  0.00     0.317 HD
BRANCH   8  10
HETATM   10  C   UNL     1      47.007 -28.511   0.727  1.00  0.00     0.225 C 
HETATM   11  C   UNL     1      48.058 -28.709  -0.392  1.00  0.00     0.069 C 
HETATM   12  C   UNL     1      48.977 -29.879  -0.101  1.00  0.00     0.190 C 
HETATM   13  N   UNL     1      49.669 -29.633   1.210  1.00  0.00    -0.067 N 
HETATM   14  C   UNL     1      50.159 -30.080  -1.025  1.00  0.00     0.035 C 
HETATM   15  H   UNL     1      50.145 -28.721   1.153  1.00  0.00     0.280 HD
HETATM   16  C   UNL     1      48.712 -29.559   2.357  1.00  0.00     0.237 C 
HETATM   17  C   UNL     1      50.762 -30.667   1.275  1.00  0.00     0.235 C 
HETATM   18  C   UNL     1      47.742 -28.408   2.090  1.00  0.00     0.063 C 
HETATM   19  C   UNL     1      51.085 -30.966  -0.192  1.00  0.00     0.030 C 
ENDBRANCH   8  10
ENDBRANCH   1   8
BRANCH   1  20
HETATM   20  C   UNL     1      44.538 -29.436  -1.256  1.00  0.00    -0.021 A 
HETATM   21  C   UNL     1      44.821 -28.304  -2.054  1.00  0.00     0.012 A 
HETATM   22  C   UNL     1      44.767 -28.365  -3.449  1.00  0.00     0.043 A 
HETATM   23  C   UNL     1      44.455 -29.566  -4.067  1.00  0.00     0.116 A 
HETATM   24  F   UNL     1      44.403 -29.629  -5.403  1.00  0.00    -0.206 F 
HETATM   25  C   UNL     1      44.212 -30.707  -3.317  1.00  0.00     0.043 A 
HETATM   26  C   UNL     1      44.268 -30.645  -1.921  1.00  0.00     0.012 A 
ENDBRANCH   1  20
TORSDOF 4
ENDMDL
MODEL 10
REMARK VINA RESULT:      -7.4      3.192      5.097
REMARK  4 active torsions:
REMARK  status: ('A' for Active; 'I' for Inactive)
REMARK    1  A    between atoms: C_5  and  C_6 
REMARK    2  A    between atoms: C_6  and  N_7 
REMARK    3  A    between atoms: C_6  and  C_18 
REMARK    4  A    between atoms: N_7  and  C_8 
ROOT
HETATM    1  C   UNL     1      41.747 -15.604   3.642  1.00  0.00     0.288 C 
ENDROOT
BRANCH   1   2
HETATM    2  C   UNL     1      42.683 -16.801   3.599  1.00  0.00    -0.003 A 
HETATM    3  C   UNL     1      43.546 -17.115   4.648  1.00  0.00     0.126 A 
HETATM    4  N   UNL     1      44.330 -18.216   4.679  1.00  0.00    -0.272 NA
HETATM    5  C   UNL     1      44.295 -19.029   3.602  1.00  0.00     0.116 A 
HETATM    6  C   UNL     1      43.485 -18.806   2.503  1.00  0.00     0.020 A 
HETATM    7  C   UNL     1      42.664 -17.681   2.507  1.00  0.00     0.012 A 
ENDBRANCH   1   2
BRANCH   1   8
HETATM    8  N   UNL     1      42.299 -14.516   4.498  1.00  0.00     0.101 N 
HETATM    9  H   UNL     1      42.153 -13.648   3.989  1.00  0.00     0.317 HD
BRANCH   8  10
HETATM   10  C   UNL     1      41.838 -14.442   5.892  1.00  0.00     0.225 C 
HETATM   11  C   UNL     1      40.478 -13.735   6.113  1.00  0.00     0.069 C 
HETATM   12  C   UNL     1      40.558 -12.254   5.802  1.00  0.00     0.190 C 
HETATM   13  N   UNL     1      41.604 -11.633   6.684  1.00  0.00    -0.067 N 
HETATM   14  C   UNL     1      39.348 -11.407   6.139  1.00  0.00     0.035 C 
HETATM   15  H   UNL     1      41.367 -11.851   7.662  1.00  0.00     0.280 HD
HETATM   16  C   UNL     1      42.970 -12.186   6.427  1.00  0.00     0.237 C 
HETATM   17  C   UNL     1      41.411 -10.146   6.532  1.00  0.00     0.235 C 
HETATM   18  C   UNL     1      42.929 -13.690   6.699  1.00  0.00     0.063 C 
HETATM   19  C   UNL     1      39.930  -9.995   6.171  1.00  0.00     0.030 C 
ENDBRANCH   8  10
ENDBRANCH   1   8
BRANCH   1  20
HETATM   20  C   UNL     1      41.127 -15.177   2.306  1.00  0.00    -0.021 A 
HETATM   21  C   UNL     1      41.631 -14.037   1.639  1.00  0.00     0.012 A 
HETATM   22  C   UNL     1      41.122 -13.636   0.401  1.00  0.00     0.043 A 
HETATM   23  C   UNL     1      40.121 -14.383  -0.200  1.00  0.00     0.116 A 
HETATM   24  F   UNL     1      39.633 -14.003  -1.387  1.00  0.00    -0.206 F 
HETATM   25  C   UNL     1      39.633 -15.531   0.407  1.00  0.00     0.043 A 
HETATM   26  C   UNL     1      40.143 -15.933   1.646  1.00  0.00     0.012 A 
ENDBRANCH   1  20
TORSDOF 4
ENDMDL
