MODEL 1
REMARK VINA RESULT:      -8.7      0.000      0.000
REMARK  6 active torsions:
REMARK  status: ('A' for Active; 'I' for Inactive)
REMARK    1  A    between atoms: C_2  and  O_3 
REMARK    2  A    between atoms: C_2  and  C_4 
REMARK    3  A    between atoms: C_6  and  C_16 
REMARK    4  A    between atoms: C_9  and  C_10 
REMARK       I    between atoms: C_16  and  N_18 
REMARK    5  A    between atoms: N_18  and  C_19 
REMARK    6  A    between atoms: C_19  and  C_21 
ROOT
HETATM    1  C   UNL     1      42.942 -16.954   3.865  1.00  0.00    -0.018 A 
HETATM    2  C   UNL     1      42.853 -15.751   4.600  1.00  0.00     0.027 A 
HETATM    3  C   UNL     1      43.318 -15.657   5.921  1.00  0.00     0.032 A 
HETATM    4  C   UNL     1      43.865 -16.785   6.534  1.00  0.00     0.018 A 
HETATM    5  C   UNL     1      43.984 -17.978   5.815  1.00  0.00     0.014 A 
HETATM    6  C   UNL     1      43.536 -18.070   4.485  1.00  0.00    -0.014 A 
ENDROOT
BRANCH   3   7
HETATM    7  C   UNL     1      43.197 -14.343   6.614  1.00  0.00     0.252 C 
HETATM    8  O   UNL     1      43.281 -14.285   7.836  1.00  0.00    -0.268 OA
HETATM    9  N   UNL     1      42.945 -13.242   5.823  1.00  0.00    -0.349 N 
HETATM   10  H   UNL     1      42.714 -13.374   4.850  1.00  0.00     0.163 HD
BRANCH   9  11
HETATM   11  C   UNL     1      42.635 -11.950   6.415  1.00  0.00     0.114 C 
HETATM   12  C   UNL     1      41.832 -11.082   5.442  1.00  0.00     0.037 C 
BRANCH  11  13
HETATM   13  C   UNL     1      43.906 -11.251   6.868  1.00  0.00    -0.036 A 
HETATM   14  C   UNL     1      43.827 -10.218   7.819  1.00  0.00     0.012 A 
HETATM   15  C   UNL     1      44.977  -9.549   8.241  1.00  0.00     0.043 A 
HETATM   16  C   UNL     1      46.211  -9.912   7.720  1.00  0.00     0.116 A 
HETATM   17  F   UNL     1      47.315  -9.270   8.123  1.00  0.00    -0.206 F 
HETATM   18  C   UNL     1      46.318 -10.933   6.783  1.00  0.00     0.043 A 
HETATM   19  C   UNL     1      45.168 -11.601   6.355  1.00  0.00     0.012 A 
ENDBRANCH  11  13
ENDBRANCH   9  11
ENDBRANCH   3   7
BRANCH   1  20
HETATM   20  C   UNL     1      42.457 -16.978   2.425  1.00  0.00     0.148 C 
HETATM   21  C   UNL     1      43.296 -16.076   1.529  1.00  0.00     0.044 C 
BRANCH  20  22
HETATM   22  O   UNL     1      41.094 -16.553   2.339  1.00  0.00    -0.391 OA
HETATM   23  H   UNL     1      40.559 -17.337   2.129  1.00  0.00     0.210 HD
ENDBRANCH  20  22
ENDBRANCH   1  20
BRANCH   6  24
HETATM   24  C   UNL     1      43.743 -19.325   3.795  1.00  0.00     0.011 A 
HETATM   25  C   UNL     1      43.753 -19.619   2.416  1.00  0.00     0.152 A 
HETATM   26  N   UNL     1      44.006 -20.908   2.173  1.00  0.00    -0.187 NA
HETATM   27  N   UNL     1      44.169 -21.436   3.398  1.00  0.00    -0.289 N 
HETATM   28  H   UNL     1      44.374 -22.427   3.470  1.00  0.00     0.188 HD
HETATM   29  C   UNL     1      44.037 -20.523   4.406  1.00  0.00     0.123 A 
ENDBRANCH   6  24
TORSDOF 6
ENDMDL
MODEL 2
REMARK VINA RESULT:      -8.6      4.795      6.976
REMARK  6 active torsions:
REMARK  status: ('A' for Active; 'I' for Inactive)
REMARK    1  A    between atoms: C_2  and  O_3 
REMARK    2  A    between atoms: C_2  and  C_4 
REMARK    3  A    between atoms: C_6  and  C_16 
REMARK    4  A    between atoms: C_9  and  C_10 
REMARK       I    between atoms: C_16  and  N_18 
REMARK    5  A    between atoms: N_18  and  C_19 
REMARK    6  A    between atoms: C_19  and  C_21 
ROOT
HETATM    1  C   UNL     1      43.345 -16.810   4.525  1.00  0.00    -0.018 A 
HETATM    2  C   UNL     1      42.955 -15.555   4.007  1.00  0.00     0.027 A 
HETATM    3  C   UNL     1      42.697 -15.370   2.640  1.00  0.00     0.032 A 
HETATM    4  C   UNL     1      42.847 -16.446   1.764  1.00  0.00     0.018 A 
HETATM    5  C   UNL     1      43.209 -17.701   2.261  1.00  0.00     0.014 A 
HETATM    6  C   UNL     1      43.450 -17.895   3.633  1.00  0.00    -0.014 A 
ENDROOT
BRANCH   3   7
HETATM    7  C   UNL     1      42.276 -14.015   2.184  1.00  0.00     0.252 C 
HETATM    8  O   UNL     1      42.947 -13.032   2.482  1.00  0.00    -0.268 OA
HETATM    9  N   UNL     1      41.098 -13.935   1.470  1.00  0.00    -0.349 N 
HETATM   10  H   UNL     1      40.504 -14.747   1.405  1.00  0.00     0.163 HD
BRANCH   9  11
HETATM   11  C   UNL     1      40.511 -12.646   1.136  1.00  0.00     0.114 C 
HETATM   12  C   UNL     1      39.857 -12.009   2.364  1.00  0.00     0.037 C 
BRANCH  11  13
HETATM   13  C   UNL     1      39.523 -12.792  -0.010  1.00  0.00    -0.036 A 
HETATM   14  C   UNL     1      39.605 -13.913  -0.856  1.00  0.00     0.012 A 
HETATM   15  C   UNL     1      38.720 -14.065  -1.925  1.00  0.00     0.043 A 
HETATM   16  C   UNL     1      37.748 -13.100  -2.151  1.00  0.00     0.116 A 
HETATM   17  F   UNL     1      36.900 -13.244  -3.178  1.00  0.00    -0.206 F 
HETATM   18  C   UNL     1      37.642 -11.986  -1.328  1.00  0.00     0.043 A 
HETATM   19  C   UNL     1      38.529 -11.829  -0.260  1.00  0.00     0.012 A 
ENDBRANCH  11  13
ENDBRANCH   9  11
ENDBRANCH   3   7
BRANCH   1  20
HETATM   20  C   UNL     1      43.571 -16.953   6.021  1.00  0.00     0.148 C 
HETATM   21  C   UNL     1      42.395 -16.416   6.826  1.00  0.00     0.044 C 
BRANCH  20  22
HETATM   22  O   UNL     1      44.750 -16.255   6.428  1.00  0.00    -0.391 OA
HETATM   23  H   UNL     1      45.503 -16.671   5.976  1.00  0.00     0.210 HD
ENDBRANCH  20  22
ENDBRANCH   1  20
BRANCH   6  24
HETATM   24  C   UNL     1      43.769 -19.236   4.074  1.00  0.00     0.011 A 
HETATM   25  C   UNL     1      43.971 -19.748   5.372  1.00  0.00     0.152 A 
HETATM   26  N   UNL     1      44.226 -21.059   5.367  1.00  0.00    -0.187 NA
HETATM   27  N   UNL     1      44.175 -21.388   4.065  1.00  0.00    -0.289 N 
HETATM   28  H   UNL     1      44.342 -22.354   3.807  1.00  0.00     0.188 HD
HETATM   29  C   UNL     1      43.888 -20.330   3.248  1.00  0.00     0.123 A 
ENDBRANCH   6  24
TORSDOF 6
ENDMDL
MODEL 3
REMARK VINA RESULT:      -8.4      4.474      6.185
REMARK  6 active torsions:
REMARK  status: ('A' for Active; 'I' for Inactive)
REMARK    1  A    between atoms: C_2  and  O_3 
REMARK    2  A    between atoms: C_2  and  C_4 
REMARK    3  A    between atoms: C_6  and  C_16 
REMARK    4  A    between atoms: C_9  and  C_10 
REMARK       I    between atoms: C_16  and  N_18 
REMARK    5  A    between atoms: N_18  and  C_19 
REMARK    6  A    between atoms: C_19  and  C_21 
ROOT
HETATM    1  C   UNL     1      43.526 -16.727   4.329  1.00  0.00    -0.018 A 
HETATM    2  C   UNL     1      43.244 -15.380   4.010  1.00  0.00     0.027 A 
HETATM    3  C   UNL     1      43.035 -14.963   2.687  1.00  0.00     0.032 A 
HETATM    4  C   UNL     1      43.124 -15.897   1.654  1.00  0.00     0.018 A 
HETATM    5  C   UNL     1      43.378 -17.239   1.951  1.00  0.00     0.014 A 
HETATM    6  C   UNL     1      43.570 -17.664   3.278  1.00  0.00    -0.014 A 
ENDROOT
BRANCH   3   7
HETATM    7  C   UNL     1      42.729 -13.524   2.446  1.00  0.00     0.252 C 
HETATM    8  O   UNL     1      43.427 -12.655   2.957  1.00  0.00    -0.268 OA
HETATM    9  N   UNL     1      41.619 -13.244   1.676  1.00  0.00    -0.349 N 
HETATM   10  H   UNL     1      40.987 -13.990   1.428  1.00  0.00     0.163 HD
BRANCH   9  11
HETATM   11  C   UNL     1      41.134 -11.880   1.531  1.00  0.00     0.114 C 
HETATM   12  C   UNL     1      39.763 -11.715   2.191  1.00  0.00     0.037 C 
BRANCH  11  13
HETATM   13  C   UNL     1      41.099 -11.479   0.065  1.00  0.00    -0.036 A 
HETATM   14  C   UNL     1      40.775 -12.442  -0.908  1.00  0.00     0.012 A 
HETATM   15  C   UNL     1      40.751 -12.105  -2.263  1.00  0.00     0.043 A 
HETATM   16  C   UNL     1      41.044 -10.805  -2.651  1.00  0.00     0.116 A 
HETATM   17  F   UNL     1      41.022 -10.482  -3.950  1.00  0.00    -0.206 F 
HETATM   18  C   UNL     1      41.361  -9.834  -1.710  1.00  0.00     0.043 A 
HETATM   19  C   UNL     1      41.392 -10.169  -0.354  1.00  0.00     0.012 A 
ENDBRANCH  11  13
ENDBRANCH   9  11
ENDBRANCH   3   7
BRANCH   1  20
HETATM   20  C   UNL     1      43.703 -17.121   5.786  1.00  0.00     0.148 C 
HETATM   21  C   UNL     1      42.491 -16.743   6.627  1.00  0.00     0.044 C 
BRANCH  20  22
HETATM   22  O   UNL     1      44.854 -16.487   6.348  1.00  0.00    -0.391 OA
HETATM   23  H   UNL     1      44.578 -15.608   6.661  1.00  0.00     0.210 HD
ENDBRANCH  20  22
ENDBRANCH   1  20
BRANCH   6  24
HETATM   24  C   UNL     1      43.776 -19.078   3.504  1.00  0.00     0.011 A 
HETATM   25  C   UNL     1      43.607 -20.177   2.637  1.00  0.00     0.152 A 
HETATM   26  N   UNL     1      43.927 -21.337   3.218  1.00  0.00    -0.187 NA
HETATM   27  N   UNL     1      44.313 -20.977   4.454  1.00  0.00    -0.289 N 
HETATM   28  H   UNL     1      44.607 -21.705   5.096  1.00  0.00     0.188 HD
HETATM   29  C   UNL     1      44.255 -19.629   4.671  1.00  0.00     0.123 A 
ENDBRANCH   6  24
TORSDOF 6
ENDMDL
MODEL 4
REMARK VINA RESULT:      -8.3      4.552      8.136
REMARK  6 active torsions:
REMARK  status: ('A' for Active; 'I' for Inactive)
REMARK    1  A    between atoms: C_2  and  O_3 
REMARK    2  A    between atoms: C_2  and  C_4 
REMARK    3  A    between atoms: C_6  and  C_16 
REMARK    4  A    between atoms: C_9  and  C_10 
REMARK       I    between atoms: C_16  and  N_18 
REMARK    5  A    between atoms: N_18  and  C_19 
REMARK    6  A    between atoms: C_19  and  C_21 
ROOT
HETATM    1  C   UNL     1      40.127 -13.525   2.058  1.00  0.00    -0.018 A 
HETATM    2  C   UNL     1      40.661 -14.562   2.854  1.00  0.00     0.027 A 
HETATM    3  C   UNL     1      40.680 -14.483   4.255  1.00  0.00     0.032 A 
HETATM    4  C   UNL     1      40.175 -13.342   4.881  1.00  0.00     0.018 A 
HETATM    5  C   UNL     1      39.621 -12.315   4.112  1.00  0.00     0.014 A 
HETATM    6  C   UNL     1      39.583 -12.400   2.709  1.00  0.00    -0.014 A 
ENDROOT
BRANCH   3   7
HETATM    7  C   UNL     1      41.249 -15.632   5.014  1.00  0.00     0.252 C 
HETATM    8  O   UNL     1      40.509 -16.366   5.661  1.00  0.00    -0.268 OA
HETATM    9  N   UNL     1      42.620 -15.783   4.981  1.00  0.00    -0.349 N 
HETATM   10  H   UNL     1      43.188 -15.054   4.578  1.00  0.00     0.163 HD
BRANCH   9  11
HETATM   11  C   UNL     1      43.286 -16.760   5.829  1.00  0.00     0.114 C 
HETATM   12  C   UNL     1      44.584 -16.189   6.404  1.00  0.00     0.037 C 
BRANCH  11  13
HETATM   13  C   UNL     1      43.534 -18.049   5.062  1.00  0.00    -0.036 A 
HETATM   14  C   UNL     1      43.712 -19.252   5.770  1.00  0.00     0.012 A 
HETATM   15  C   UNL     1      43.956 -20.448   5.093  1.00  0.00     0.043 A 
HETATM   16  C   UNL     1      44.019 -20.449   3.706  1.00  0.00     0.116 A 
HETATM   17  F   UNL     1      44.256 -21.595   3.055  1.00  0.00    -0.206 F 
HETATM   18  C   UNL     1      43.842 -19.276   2.982  1.00  0.00     0.043 A 
HETATM   19  C   UNL     1      43.602 -18.077   3.658  1.00  0.00     0.012 A 
ENDBRANCH  11  13
ENDBRANCH   9  11
ENDBRANCH   3   7
BRANCH   1  20
HETATM   20  C   UNL     1      40.101 -13.690   0.548  1.00  0.00     0.148 C 
HETATM   21  C   UNL     1      39.914 -15.145   0.140  1.00  0.00     0.044 C 
BRANCH  20  22
HETATM   22  O   UNL     1      41.315 -13.213  -0.038  1.00  0.00    -0.391 OA
HETATM   23  H   UNL     1      41.436 -13.685  -0.879  1.00  0.00     0.210 HD
ENDBRANCH  20  22
ENDBRANCH   1  20
BRANCH   6  24
HETATM   24  C   UNL     1      38.946 -11.318   1.990  1.00  0.00     0.011 A 
HETATM   25  C   UNL     1      39.492 -10.143   1.434  1.00  0.00     0.152 A 
HETATM   26  N   UNL     1      38.570  -9.395   0.820  1.00  0.00    -0.187 NA
HETATM   27  N   UNL     1      37.436 -10.100   0.974  1.00  0.00    -0.289 N 
HETATM   28  H   UNL     1      36.580  -9.722   0.582  1.00  0.00     0.188 HD
HETATM   29  C   UNL     1      37.612 -11.271   1.656  1.00  0.00     0.123 A 
ENDBRANCH   6  24
TORSDOF 6
ENDMDL
MODEL 5
REMARK VINA RESULT:      -8.2      5.780      8.905
REMARK  6 active torsions:
REMARK  status: ('A' for Active; 'I' for Inactive)
REMARK    1  A    between atoms: C_2  and  O_3 
REMARK    2  A    between atoms: C_2  and  C_4 
REMARK    3  A    between atoms: C_6  and  C_16 
REMARK    4  A    between atoms: C_9  and  C_10 
REMARK       I    between atoms: C_16  and  N_18 
REMARK    5  A    between atoms: N_18  and  C_19 
REMARK    6  A    between atoms: C_19  and  C_21 
ROOT
HETATM    1  C   UNL     1      40.421 -12.786  -1.343  1.00  0.00    -0.018 A 
HETATM    2  C   UNL     1      40.501 -13.658  -0.235  1.00  0.00     0.027 A 
HETATM    3  C   UNL     1      40.691 -13.179   1.070  1.00  0.00     0.032 A 
HETATM    4  C   UNL     1      40.822 -11.806   1.280  1.00  0.00     0.018 A 
HETATM    5  C   UNL     1      40.722 -10.925   0.200  1.00  0.00     0.014 A 
HETATM    6  C   UNL     1      40.513 -11.400  -1.106  1.00  0.00    -0.014 A 
ENDROOT
BRANCH   3   7
HETATM    7  C   UNL     1      40.748 -14.172   2.180  1.00  0.00     0.252 C 
HETATM    8  O   UNL     1      39.722 -14.721   2.564  1.00  0.00    -0.268 OA
HETATM    9  N   UNL     1      41.982 -14.391   2.757  1.00  0.00    -0.349 N 
HETATM   10  H   UNL     1      42.754 -13.788   2.517  1.00  0.00     0.163 HD
BRANCH   9  11
HETATM   11  C   UNL     1      42.113 -15.203   3.957  1.00  0.00     0.114 C 
HETATM   12  C   UNL     1      42.927 -14.468   5.026  1.00  0.00     0.037 C 
BRANCH  11  13
HETATM   13  C   UNL     1      42.722 -16.554   3.623  1.00  0.00    -0.036 A 
HETATM   14  C   UNL     1      42.295 -17.240   2.472  1.00  0.00     0.012 A 
HETATM   15  C   UNL     1      42.826 -18.490   2.149  1.00  0.00     0.043 A 
HETATM   16  C   UNL     1      43.790 -19.058   2.971  1.00  0.00     0.116 A 
HETATM   17  F   UNL     1      44.299 -20.258   2.663  1.00  0.00    -0.206 F 
HETATM   18  C   UNL     1      44.233 -18.399   4.111  1.00  0.00     0.043 A 
HETATM   19  C   UNL     1      43.700 -17.151   4.439  1.00  0.00     0.012 A 
ENDBRANCH  11  13
ENDBRANCH   9  11
ENDBRANCH   3   7
BRANCH   1  20
HETATM   20  C   UNL     1      40.174 -13.367  -2.725  1.00  0.00     0.148 C 
HETATM   21  C   UNL     1      39.293 -14.608  -2.670  1.00  0.00     0.044 C 
BRANCH  20  22
HETATM   22  O   UNL     1      41.407 -13.720  -3.357  1.00  0.00    -0.391 OA
HETATM   23  H   UNL     1      41.753 -14.505  -2.899  1.00  0.00     0.210 HD
ENDBRANCH  20  22
ENDBRANCH   1  20
BRANCH   6  24
HETATM   24  C   UNL     1      40.368 -10.420  -2.161  1.00  0.00     0.011 A 
HETATM   25  C   UNL     1      41.012 -10.321  -3.411  1.00  0.00     0.152 A 
HETATM   26  N   UNL     1      40.583  -9.274  -4.122  1.00  0.00    -0.187 NA
HETATM   27  N   UNL     1      39.656  -8.710  -3.329  1.00  0.00    -0.289 N 
HETATM   28  H   UNL     1      39.181  -7.879  -3.663  1.00  0.00     0.188 HD
HETATM   29  C   UNL     1      39.479  -9.370  -2.146  1.00  0.00     0.123 A 
ENDBRANCH   6  24
TORSDOF 6
ENDMDL
MODEL 6
REMARK VINA RESULT:      -8.2      2.228      2.968
REMARK  6 active torsions:
REMARK  status: ('A' for Active; 'I' for Inactive)
REMARK    1  A    between atoms: C_2  and  O_3 
REMARK    2  A    between atoms: C_2  and  C_4 
REMARK    3  A    between atoms: C_6  and  C_16 
REMARK    4  A    between atoms: C_9  and  C_10 
REMARK       I    between atoms: C_16  and  N_18 
REMARK    5  A    between atoms: N_18  and  C_19 
REMARK    6  A    between atoms: C_19  and  C_21 
ROOT
HETATM    1  C   UNL     1      42.603 -16.117   4.900  1.00  0.00    -0.018 A 
HETATM    2  C   UNL     1      42.583 -14.737   5.198  1.00  0.00     0.027 A 
HETATM    3  C   UNL     1      43.484 -14.165   6.111  1.00  0.00     0.032 A 
HETATM    4  C   UNL     1      44.414 -14.982   6.755  1.00  0.00     0.018 A 
HETATM    5  C   UNL     1      44.465 -16.346   6.456  1.00  0.00     0.014 A 
HETATM    6  C   UNL     1      43.576 -16.919   5.529  1.00  0.00    -0.014 A 
ENDROOT
BRANCH   3   7
HETATM    7  C   UNL     1      43.399 -12.697   6.352  1.00  0.00     0.252 C 
HETATM    8  O   UNL     1      42.585 -12.020   5.735  1.00  0.00    -0.268 OA
HETATM    9  N   UNL     1      44.298 -12.160   7.251  1.00  0.00    -0.349 N 
HETATM   10  H   UNL     1      45.054 -12.732   7.596  1.00  0.00     0.163 HD
BRANCH   9  11
HETATM   11  C   UNL     1      44.416 -10.720   7.422  1.00  0.00     0.114 C 
HETATM   12  C   UNL     1      45.884 -10.302   7.533  1.00  0.00     0.037 C 
BRANCH  11  13
HETATM   13  C   UNL     1      43.612 -10.259   8.627  1.00  0.00    -0.036 A 
HETATM   14  C   UNL     1      42.436  -9.513   8.429  1.00  0.00     0.012 A 
HETATM   15  C   UNL     1      41.686  -9.064   9.518  1.00  0.00     0.043 A 
HETATM   16  C   UNL     1      42.104  -9.363  10.807  1.00  0.00     0.116 A 
HETATM   17  F   UNL     1      41.386  -8.931  11.852  1.00  0.00    -0.206 F 
HETATM   18  C   UNL     1      43.259 -10.103  11.030  1.00  0.00     0.043 A 
HETATM   19  C   UNL     1      44.014 -10.549   9.943  1.00  0.00     0.012 A 
ENDBRANCH  11  13
ENDBRANCH   9  11
ENDBRANCH   3   7
BRANCH   1  20
HETATM   20  C   UNL     1      41.627 -16.666   3.873  1.00  0.00     0.148 C 
HETATM   21  C   UNL     1      42.026 -16.289   2.453  1.00  0.00     0.044 C 
BRANCH  20  22
HETATM   22  O   UNL     1      40.306 -16.175   4.114  1.00  0.00    -0.391 OA
HETATM   23  H   UNL     1      39.760 -16.933   4.384  1.00  0.00     0.210 HD
ENDBRANCH  20  22
ENDBRANCH   1  20
BRANCH   6  24
HETATM   24  C   UNL     1      43.730 -18.328   5.236  1.00  0.00     0.011 A 
HETATM   25  C   UNL     1      44.198 -18.974   4.073  1.00  0.00     0.152 A 
HETATM   26  N   UNL     1      44.213 -20.304   4.203  1.00  0.00    -0.187 NA
HETATM   27  N   UNL     1      43.766 -20.506   5.454  1.00  0.00    -0.289 N 
HETATM   28  H   UNL     1      43.688 -21.461   5.787  1.00  0.00     0.188 HD
HETATM   29  C   UNL     1      43.477 -19.350   6.122  1.00  0.00     0.123 A 
ENDBRANCH   6  24
TORSDOF 6
ENDMDL
MODEL 7
REMARK VINA RESULT:      -7.8      2.880      4.157
REMARK  6 active torsions:
REMARK  status: ('A' for Active; 'I' for Inactive)
REMARK    1  A    between atoms: C_2  and  O_3 
REMARK    2  A    between atoms: C_2  and  C_4 
REMARK    3  A    between atoms: C_6  and  C_16 
REMARK    4  A    between atoms: C_9  and  C_10 
REMARK       I    between atoms: C_16  and  N_18 
REMARK    5  A    between atoms: N_18  and  C_19 
REMARK    6  A    between atoms: C_19  and  C_21 
ROOT
HETATM    1  C   UNL     1      43.435 -16.882   4.437  1.00  0.00    -0.018 A 
HETATM    2  C   UNL     1      43.011 -15.559   4.181  1.00  0.00     0.027 A 
HETATM    3  C   UNL     1      42.567 -15.158   2.912  1.00  0.00     0.032 A 
HETATM    4  C   UNL     1      42.559 -16.084   1.867  1.00  0.00     0.018 A 
HETATM    5  C   UNL     1      42.953 -17.403   2.106  1.00  0.00     0.014 A 
HETATM    6  C   UNL     1      43.381 -17.813   3.381  1.00  0.00    -0.014 A 
ENDROOT
BRANCH   3   7
HETATM    7  C   UNL     1      42.124 -13.746   2.738  1.00  0.00     0.252 C 
HETATM    8  O   UNL     1      42.031 -13.267   1.614  1.00  0.00    -0.268 OA
HETATM    9  N   UNL     1      41.879 -13.024   3.888  1.00  0.00    -0.349 N 
HETATM   10  H   UNL     1      42.137 -13.414   4.782  1.00  0.00     0.163 HD
BRANCH   9  11
HETATM   11  C   UNL     1      41.616 -11.594   3.832  1.00  0.00     0.114 C 
HETATM   12  C   UNL     1      42.917 -10.807   3.653  1.00  0.00     0.037 C 
BRANCH  11  13
HETATM   13  C   UNL     1      40.857 -11.142   5.069  1.00  0.00    -0.036 A 
HETATM   14  C   UNL     1      41.495 -10.313   6.009  1.00  0.00     0.012 A 
HETATM   15  C   UNL     1      40.827  -9.896   7.161  1.00  0.00     0.043 A 
HETATM   16  C   UNL     1      39.517 -10.300   7.377  1.00  0.00     0.116 A 
HETATM   17  F   UNL     1      38.875  -9.902   8.483  1.00  0.00    -0.206 F 
HETATM   18  C   UNL     1      38.861 -11.115   6.462  1.00  0.00     0.043 A 
HETATM   19  C   UNL     1      39.529 -11.538   5.311  1.00  0.00     0.012 A 
ENDBRANCH  11  13
ENDBRANCH   9  11
ENDBRANCH   3   7
BRANCH   1  20
HETATM   20  C   UNL     1      43.867 -17.261   5.843  1.00  0.00     0.148 C 
HETATM   21  C   UNL     1      42.764 -17.013   6.862  1.00  0.00     0.044 C 
BRANCH  20  22
HETATM   22  O   UNL     1      45.021 -16.515   6.240  1.00  0.00    -0.391 OA
HETATM   23  H   UNL     1      45.150 -16.667   7.192  1.00  0.00     0.210 HD
ENDBRANCH  20  22
ENDBRANCH   1  20
BRANCH   6  24
HETATM   24  C   UNL     1      43.721 -19.208   3.557  1.00  0.00     0.011 A 
HETATM   25  C   UNL     1      43.664 -20.285   2.647  1.00  0.00     0.152 A 
HETATM   26  N   UNL     1      44.091 -21.429   3.188  1.00  0.00    -0.187 NA
HETATM   27  N   UNL     1      44.433 -21.081   4.440  1.00  0.00    -0.289 N 
HETATM   28  H   UNL     1      44.793 -21.802   5.057  1.00  0.00     0.188 HD
HETATM   29  C   UNL     1      44.244 -19.755   4.706  1.00  0.00     0.123 A 
ENDBRANCH   6  24
TORSDOF 6
ENDMDL
MODEL 8
REMARK VINA RESULT:      -7.8      5.489      7.933
REMARK  6 active torsions:
REMARK  status: ('A' for Active; 'I' for Inactive)
REMARK    1  A    between atoms: C_2  and  O_3 
REMARK    2  A    between atoms: C_2  and  C_4 
REMARK    3  A    between atoms: C_6  and  C_16 
REMARK    4  A    between atoms: C_9  and  C_10 
REMARK       I    between atoms: C_16  and  N_18 
REMARK    5  A    between atoms: N_18  and  C_19 
REMARK    6  A    between atoms: C_19  and  C_21 
ROOT
HETATM    1  C   UNL     1      42.059 -14.463   3.404  1.00  0.00    -0.018 A 
HETATM    2  C   UNL     1      41.319 -13.860   2.363  1.00  0.00     0.027 A 
HETATM    3  C   UNL     1      40.550 -14.620   1.469  1.00  0.00     0.032 A 
HETATM    4  C   UNL     1      40.528 -16.010   1.597  1.00  0.00     0.018 A 
HETATM    5  C   UNL     1      41.234 -16.623   2.635  1.00  0.00     0.014 A 
HETATM    6  C   UNL     1      41.991 -15.863   3.545  1.00  0.00    -0.014 A 
ENDROOT
BRANCH   3   7
HETATM    7  C   UNL     1      39.789 -13.898   0.410  1.00  0.00     0.252 C 
HETATM    8  O   UNL     1      39.271 -12.815   0.659  1.00  0.00    -0.268 OA
HETATM    9  N   UNL     1      39.671 -14.528  -0.812  1.00  0.00    -0.349 N 
HETATM   10  H   UNL     1      39.967 -15.488  -0.904  1.00  0.00     0.163 HD
BRANCH   9  11
HETATM   11  C   UNL     1      38.803 -13.992  -1.849  1.00  0.00     0.114 C 
HETATM   12  C   UNL     1      38.536 -15.039  -2.933  1.00  0.00     0.037 C 
BRANCH  11  13
HETATM   13  C   UNL     1      39.395 -12.720  -2.435  1.00  0.00    -0.036 A 
HETATM   14  C   UNL     1      40.754 -12.692  -2.796  1.00  0.00     0.012 A 
HETATM   15  C   UNL     1      41.327 -11.534  -3.323  1.00  0.00     0.043 A 
HETATM   16  C   UNL     1      40.544 -10.400  -3.496  1.00  0.00     0.116 A 
HETATM   17  F   UNL     1      41.094  -9.287  -4.000  1.00  0.00    -0.206 F 
HETATM   18  C   UNL     1      39.198 -10.403  -3.153  1.00  0.00     0.043 A 
HETATM   19  C   UNL     1      38.623 -11.559  -2.621  1.00  0.00     0.012 A 
ENDBRANCH  11  13
ENDBRANCH   9  11
ENDBRANCH   3   7
BRANCH   1  20
HETATM   20  C   UNL     1      42.840 -13.579   4.364  1.00  0.00     0.148 C 
HETATM   21  C   UNL     1      41.943 -12.975   5.436  1.00  0.00     0.044 C 
BRANCH  20  22
HETATM   22  O   UNL     1      43.484 -12.512   3.663  1.00  0.00    -0.391 OA
HETATM   23  H   UNL     1      44.179 -12.162   4.246  1.00  0.00     0.210 HD
ENDBRANCH  20  22
ENDBRANCH   1  20
BRANCH   6  24
HETATM   24  C   UNL     1      42.650 -16.569   4.622  1.00  0.00     0.011 A 
HETATM   25  C   UNL     1      42.257 -16.766   5.962  1.00  0.00     0.152 A 
HETATM   26  N   UNL     1      43.136 -17.504   6.646  1.00  0.00    -0.187 NA
HETATM   27  N   UNL     1      44.086 -17.789   5.739  1.00  0.00    -0.289 N 
HETATM   28  H   UNL     1      44.877 -18.351   6.033  1.00  0.00     0.188 HD
HETATM   29  C   UNL     1      43.833 -17.263   4.503  1.00  0.00     0.123 A 
ENDBRANCH   6  24
TORSDOF 6
ENDMDL
MODEL 9
REMARK VINA RESULT:      -7.7      3.341      4.806
REMARK  6 active torsions:
REMARK  status: ('A' for Active; 'I' for Inactive)
REMARK    1  A    between atoms: C_2  and  O_3 
REMARK    2  A    between atoms: C_2  and  C_4 
REMARK    3  A    between atoms: C_6  and  C_16 
REMARK    4  A    between atoms: C_9  and  C_10 
REMARK       I    between atoms: C_16  and  N_18 
REMARK    5  A    between atoms: N_18  and  C_19 
REMARK    6  A    between atoms: C_19  and  C_21 
ROOT
HETATM    1  C   UNL     1      41.651 -12.933   4.569  1.00  0.00    -0.018 A 
HETATM    2  C   UNL     1      41.807 -11.793   5.387  1.00  0.00     0.027 A 
HETATM    3  C   UNL     1      42.814 -11.716   6.363  1.00  0.00     0.032 A 
HETATM    4  C   UNL     1      43.674 -12.800   6.543  1.00  0.00     0.018 A 
HETATM    5  C   UNL     1      43.551 -13.928   5.727  1.00  0.00     0.014 A 
HETATM    6  C   UNL     1      42.555 -14.001   4.736  1.00  0.00    -0.014 A 
ENDROOT
BRANCH   3   7
HETATM    7  C   UNL     1      42.913 -10.468   7.170  1.00  0.00     0.252 C 
HETATM    8  O   UNL     1      42.164  -9.525   6.936  1.00  0.00    -0.268 OA
HETATM    9  N   UNL     1      43.899 -10.425   8.134  1.00  0.00    -0.349 N 
HETATM   10  H   UNL     1      44.592 -11.157   8.165  1.00  0.00     0.163 HD
BRANCH   9  11
HETATM   11  C   UNL     1      44.193  -9.194   8.851  1.00  0.00     0.114 C 
HETATM   12  C   UNL     1      45.688  -8.872   8.793  1.00  0.00     0.037 C 
BRANCH  11  13
HETATM   13  C   UNL     1      43.695  -9.279  10.285  1.00  0.00    -0.036 A 
HETATM   14  C   UNL     1      43.364  -8.098  10.974  1.00  0.00     0.012 A 
HETATM   15  C   UNL     1      42.920  -8.146  12.296  1.00  0.00     0.043 A 
HETATM   16  C   UNL     1      42.797  -9.373  12.933  1.00  0.00     0.116 A 
HETATM   17  F   UNL     1      42.372  -9.420  14.203  1.00  0.00    -0.206 F 
HETATM   18  C   UNL     1      43.112 -10.555  12.274  1.00  0.00     0.043 A 
HETATM   19  C   UNL     1      43.562 -10.510  10.952  1.00  0.00     0.012 A 
ENDBRANCH  11  13
ENDBRANCH   9  11
ENDBRANCH   3   7
BRANCH   1  20
HETATM   20  C   UNL     1      40.566 -12.936   3.505  1.00  0.00     0.148 C 
HETATM   21  C   UNL     1      40.398 -11.567   2.862  1.00  0.00     0.044 C 
BRANCH  20  22
HETATM   22  O   UNL     1      39.309 -13.329   4.061  1.00  0.00    -0.391 OA
HETATM   23  H   UNL     1      39.049 -12.643   4.700  1.00  0.00     0.210 HD
ENDBRANCH  20  22
ENDBRANCH   1  20
BRANCH   6  24
HETATM   24  C   UNL     1      42.529 -15.180   3.899  1.00  0.00     0.011 A 
HETATM   25  C   UNL     1      41.742 -16.347   3.989  1.00  0.00     0.152 A 
HETATM   26  N   UNL     1      41.998 -17.210   3.001  1.00  0.00    -0.187 NA
HETATM   27  N   UNL     1      42.941 -16.588   2.273  1.00  0.00    -0.289 N 
HETATM   28  H   UNL     1      43.302 -17.060   1.451  1.00  0.00     0.188 HD
HETATM   29  C   UNL     1      43.283 -15.359   2.762  1.00  0.00     0.123 A 
ENDBRANCH   6  24
TORSDOF 6
ENDMDL
MODEL 10
REMARK VINA RESULT:      -7.4      3.731      8.798
REMARK  6 active torsions:
REMARK  status: ('A' for Active; 'I' for Inactive)
REMARK    1  A    between atoms: C_2  and  O_3 
REMARK    2  A    between atoms: C_2  and  C_4 
REMARK    3  A    between atoms: C_6  and  C_16 
REMARK    4  A    between atoms: C_9  and  C_10 
REMARK       I    between atoms: C_16  and  N_18 
REMARK    5  A    between atoms: N_18  and  C_19 
REMARK    6  A    between atoms: C_19  and  C_21 
ROOT
HETATM    1  C   UNL     1      41.430 -10.284   5.473  1.00  0.00    -0.018 A 
HETATM    2  C   UNL     1      41.664 -11.329   4.553  1.00  0.00     0.027 A 
HETATM    3  C   UNL     1      42.738 -12.220   4.704  1.00  0.00     0.032 A 
HETATM    4  C   UNL     1      43.610 -12.061   5.782  1.00  0.00     0.018 A 
HETATM    5  C   UNL     1      43.382 -11.048   6.717  1.00  0.00     0.014 A 
HETATM    6  C   UNL     1      42.296 -10.166   6.579  1.00  0.00    -0.014 A 
ENDROOT
BRANCH   3   7
HETATM    7  C   UNL     1      42.899 -13.302   3.691  1.00  0.00     0.252 C 
HETATM    8  O   UNL     1      43.442 -13.061   2.618  1.00  0.00    -0.268 OA
HETATM    9  N   UNL     1      42.374 -14.537   4.010  1.00  0.00    -0.349 N 
HETATM   10  H   UNL     1      41.790 -14.630   4.827  1.00  0.00     0.163 HD
BRANCH   9  11
HETATM   11  C   UNL     1      42.321 -15.605   3.023  1.00  0.00     0.114 C 
HETATM   12  C   UNL     1      40.876 -15.893   2.608  1.00  0.00     0.037 C 
BRANCH  11  13
HETATM   13  C   UNL     1      43.009 -16.853   3.551  1.00  0.00    -0.036 A 
HETATM   14  C   UNL     1      43.326 -17.896   2.662  1.00  0.00     0.012 A 
HETATM   15  C   UNL     1      43.945 -19.060   3.122  1.00  0.00     0.043 A 
HETATM   16  C   UNL     1      44.254 -19.185   4.469  1.00  0.00     0.116 A 
HETATM   17  F   UNL     1      44.846 -20.302   4.912  1.00  0.00    -0.206 F 
HETATM   18  C   UNL     1      43.957 -18.167   5.367  1.00  0.00     0.043 A 
HETATM   19  C   UNL     1      43.333 -17.003   4.911  1.00  0.00     0.012 A 
ENDBRANCH  11  13
ENDBRANCH   9  11
ENDBRANCH   3   7
BRANCH   1  20
HETATM   20  C   UNL     1      40.227  -9.379   5.274  1.00  0.00     0.148 C 
HETATM   21  C   UNL     1      39.009 -10.152   4.787  1.00  0.00     0.044 C 
BRANCH  20  22
HETATM   22  O   UNL     1      40.515  -8.350   4.323  1.00  0.00    -0.391 OA
HETATM   23  H   UNL     1      40.043  -7.550   4.610  1.00  0.00     0.210 HD
ENDBRANCH  20  22
ENDBRANCH   1  20
BRANCH   6  24
HETATM   24  C   UNL     1      42.100  -9.178   7.618  1.00  0.00     0.011 A 
HETATM   25  C   UNL     1      41.366  -9.250   8.820  1.00  0.00     0.152 A 
HETATM   26  N   UNL     1      41.449  -8.124   9.534  1.00  0.00    -0.187 NA
HETATM   27  N   UNL     1      42.247  -7.336   8.793  1.00  0.00    -0.289 N 
HETATM   28  H   UNL     1      42.459  -6.406   9.139  1.00  0.00     0.188 HD
HETATM   29  C   UNL     1      42.677  -7.929   7.639  1.00  0.00     0.123 A 
ENDBRANCH   6  24
TORSDOF 6
ENDMDL
