MODEL 1
REMARK VINA RESULT:      -9.8      0.000      0.000
REMARK  11 active torsions:
REMARK  status: ('A' for Active; 'I' for Inactive)
REMARK    1  A    between atoms: O_2  and  C_3 
REMARK    2  A    between atoms: C_6  and  C_7 
REMARK    3  A    between atoms: C_7  and  C_8 
REMARK    4  A    between atoms: C_8  and  N_9 
REMARK    5  A    between atoms: C_13  and  C_14 
REMARK    6  A    between atoms: C_14  and  C_15 
REMARK    7  A    between atoms: C_25  and  N_26 
REMARK    8  A    between atoms: N_26  and  C_27 
REMARK    9  A    between atoms: C_27  and  C_28 
REMARK   10  A    between atoms: C_28  and  O_29 
REMARK   11  A    between atoms: C_28  and  C_30 
ROOT
HETATM    1  C   UNL     1      42.624 -13.244   4.967  1.00  0.00     0.074 A 
HETATM    2  C   UNL     1      42.521 -12.934   3.507  1.00  0.00     0.266 A 
HETATM    3  O   UNL     1      43.138 -11.972   3.042  1.00  0.00    -0.267 OA
HETATM    4  N   UNL     1      41.716 -13.770   2.755  1.00  0.00    -0.273 N 
HETATM    5  C   UNL     1      41.025 -14.791   3.381  1.00  0.00     0.138 A 
HETATM    6  N   UNL     1      41.076 -15.038   4.652  1.00  0.00    -0.218 NA
HETATM    7  C   UNL     1      41.602 -13.559   1.385  1.00  0.00     0.102 A 
HETATM    8  C   UNL     1      40.829 -14.333   0.614  1.00  0.00     0.018 A 
HETATM    9  C   UNL     1      40.087 -15.415   1.204  1.00  0.00     0.005 A 
HETATM   10  C   UNL     1      40.164 -15.652   2.519  1.00  0.00     0.051 A 
HETATM   11  C   UNL     1      41.878 -14.262   5.448  1.00  0.00     0.121 A 
ENDROOT
BRANCH   1  12
HETATM   12  C   UNL     1      43.515 -12.394   5.745  1.00  0.00     0.045 C 
BRANCH  12  13
HETATM   13  C   UNL     1      43.182 -11.375   6.545  1.00  0.00     0.077 A 
HETATM   14  S   UNL     1      41.768 -10.404   6.523  1.00  0.00    -0.055 SA
HETATM   15  C   UNL     1      42.236  -9.522   7.973  1.00  0.00     0.148 A 
HETATM   16  N   UNL     1      43.418 -10.031   8.466  1.00  0.00    -0.298 N 
HETATM   17  S   UNL     1      41.318  -8.272   8.588  1.00  0.00    -0.052 SA
HETATM   18  C   UNL     1      44.032 -11.011   7.708  1.00  0.00     0.266 A 
HETATM   19  O   UNL     1      45.115 -11.530   7.947  1.00  0.00    -0.266 OA
BRANCH  16  20
HETATM   20  C   UNL     1      44.041  -9.644   9.734  1.00  0.00     0.138 C 
BRANCH  20  21
HETATM   21  C   UNL     1      43.566 -10.497  10.915  1.00  0.00     0.059 C 
BRANCH  21  22
HETATM   22  C   UNL     1      43.005  -9.631  12.017  1.00  0.00    -0.057 A 
HETATM   23  C   UNL     1      43.596  -8.397  12.313  1.00  0.00     0.010 A 
HETATM   24  C   UNL     1      43.102  -7.610  13.357  1.00  0.00     0.037 A 
HETATM   25  C   UNL     1      42.007  -8.032  14.110  1.00  0.00     0.068 A 
HETATM   26  C   UNL     1      41.415  -9.262  13.821  1.00  0.00     0.037 A 
HETATM   27  C   UNL     1      41.913 -10.058  12.781  1.00  0.00     0.010 A 
BRANCH  25  28
HETATM   28  O   UNL     1      41.622  -7.167  15.097  1.00  0.00    -0.356 OA
HETATM   29  C   UNL     1      41.206  -7.745  16.327  1.00  0.00     0.210 C 
ENDBRANCH  25  28
ENDBRANCH  21  22
ENDBRANCH  20  21
ENDBRANCH  16  20
ENDBRANCH  12  13
ENDBRANCH   1  12
BRANCH  11  30
HETATM   30  N   UNL     1      41.877 -14.610   6.794  1.00  0.00    -0.274 NA
HETATM   31  H   UNL     1      42.638 -14.083   7.228  1.00  0.00     0.129 HD
BRANCH  30  32
HETATM   32  C   UNL     1      42.009 -16.015   7.230  1.00  0.00     0.130 C 
BRANCH  32  33
HETATM   33  C   UNL     1      43.477 -16.513   7.204  1.00  0.00     0.164 C 
BRANCH  33  34
HETATM   34  O   UNL     1      43.863 -16.972   8.508  1.00  0.00    -0.390 OA
HETATM   35  H   UNL     1      44.115 -17.910   8.380  1.00  0.00     0.210 HD
ENDBRANCH  33  34
BRANCH  33  36
HETATM   36  C   UNL     1      43.664 -17.609   6.175  1.00  0.00    -0.029 A 
HETATM   37  C   UNL     1      43.531 -18.955   6.557  1.00  0.00     0.010 A 
HETATM   38  C   UNL     1      43.732 -19.982   5.632  1.00  0.00     0.001 A 
HETATM   39  C   UNL     1      44.065 -19.679   4.313  1.00  0.00     0.000 A 
HETATM   40  C   UNL     1      44.198 -18.350   3.919  1.00  0.00     0.001 A 
HETATM   41  C   UNL     1      44.002 -17.323   4.844  1.00  0.00     0.010 A 
ENDBRANCH  33  36
ENDBRANCH  32  33
ENDBRANCH  30  32
ENDBRANCH  11  30
TORSDOF 11
ENDMDL
MODEL 2
REMARK VINA RESULT:      -9.2      2.643      9.812
REMARK  11 active torsions:
REMARK  status: ('A' for Active; 'I' for Inactive)
REMARK    1  A    between atoms: O_2  and  C_3 
REMARK    2  A    between atoms: C_6  and  C_7 
REMARK    3  A    between atoms: C_7  and  C_8 
REMARK    4  A    between atoms: C_8  and  N_9 
REMARK    5  A    between atoms: C_13  and  C_14 
REMARK    6  A    between atoms: C_14  and  C_15 
REMARK    7  A    between atoms: C_25  and  N_26 
REMARK    8  A    between atoms: N_26  and  C_27 
REMARK    9  A    between atoms: C_27  and  C_28 
REMARK   10  A    between atoms: C_28  and  O_29 
REMARK   11  A    between atoms: C_28  and  C_30 
ROOT
HETATM    1  C   UNL     1      41.761 -11.274   6.416  1.00  0.00     0.074 A 
HETATM    2  C   UNL     1      43.187 -11.723   6.385  1.00  0.00     0.266 A 
HETATM    3  O   UNL     1      43.482 -12.781   5.822  1.00  0.00    -0.267 OA
HETATM    4  N   UNL     1      44.106 -10.901   7.011  1.00  0.00    -0.273 N 
HETATM    5  C   UNL     1      43.667  -9.762   7.660  1.00  0.00     0.138 A 
HETATM    6  N   UNL     1      42.428  -9.390   7.727  1.00  0.00    -0.218 NA
HETATM    7  C   UNL     1      45.454 -11.243   6.992  1.00  0.00     0.102 A 
HETATM    8  C   UNL     1      46.383 -10.487   7.590  1.00  0.00     0.018 A 
HETATM    9  C   UNL     1      45.990  -9.287   8.279  1.00  0.00     0.005 A 
HETATM   10  C   UNL     1      44.704  -8.922   8.326  1.00  0.00     0.051 A 
HETATM   11  C   UNL     1      41.471 -10.147   7.103  1.00  0.00     0.121 A 
ENDROOT
BRANCH   1  12
HETATM   12  C   UNL     1      40.804 -12.114   5.709  1.00  0.00     0.045 C 
BRANCH  12  13
HETATM   13  C   UNL     1      40.783 -12.411   4.405  1.00  0.00     0.077 A 
HETATM   14  S   UNL     1      40.809 -11.350   3.057  1.00  0.00    -0.055 SA
HETATM   15  C   UNL     1      40.889 -12.672   1.898  1.00  0.00     0.148 A 
HETATM   16  N   UNL     1      40.956 -13.875   2.567  1.00  0.00    -0.298 N 
HETATM   17  S   UNL     1      40.883 -12.410   0.249  1.00  0.00    -0.052 SA
HETATM   18  C   UNL     1      40.845 -13.822   3.944  1.00  0.00     0.266 A 
HETATM   19  O   UNL     1      40.814 -14.785   4.699  1.00  0.00    -0.266 OA
BRANCH  16  20
HETATM   20  C   UNL     1      41.174 -15.180   1.939  1.00  0.00     0.138 C 
BRANCH  20  21
HETATM   21  C   UNL     1      42.656 -15.482   1.691  1.00  0.00     0.059 C 
BRANCH  21  22
HETATM   22  C   UNL     1      43.141 -16.592   2.592  1.00  0.00    -0.057 A 
HETATM   23  C   UNL     1      43.135 -17.917   2.143  1.00  0.00     0.010 A 
HETATM   24  C   UNL     1      43.548 -18.951   2.987  1.00  0.00     0.037 A 
HETATM   25  C   UNL     1      43.986 -18.679   4.283  1.00  0.00     0.068 A 
HETATM   26  C   UNL     1      43.993 -17.360   4.737  1.00  0.00     0.037 A 
HETATM   27  C   UNL     1      43.570 -16.322   3.896  1.00  0.00     0.010 A 
BRANCH  25  28
HETATM   28  O   UNL     1      44.367 -19.779   5.001  1.00  0.00    -0.356 OA
HETATM   29  C   UNL     1      43.997 -21.046   4.473  1.00  0.00     0.210 C 
ENDBRANCH  25  28
ENDBRANCH  21  22
ENDBRANCH  20  21
ENDBRANCH  16  20
ENDBRANCH  12  13
ENDBRANCH   1  12
BRANCH  11  30
HETATM   30  N   UNL     1      40.173  -9.661   7.220  1.00  0.00    -0.274 NA
HETATM   31  H   UNL     1      39.973  -9.164   6.350  1.00  0.00     0.129 HD
BRANCH  30  32
HETATM   32  C   UNL     1      39.775  -8.779   8.334  1.00  0.00     0.130 C 
BRANCH  32  33
HETATM   33  C   UNL     1      39.047  -9.542   9.470  1.00  0.00     0.164 C 
BRANCH  33  34
HETATM   34  O   UNL     1      38.701 -10.864   9.031  1.00  0.00    -0.390 OA
HETATM   35  H   UNL     1      37.791 -11.009   9.364  1.00  0.00     0.210 HD
ENDBRANCH  33  34
BRANCH  33  36
HETATM   36  C   UNL     1      39.899  -9.601  10.722  1.00  0.00    -0.029 A 
HETATM   37  C   UNL     1      39.430 -10.290  11.854  1.00  0.00     0.010 A 
HETATM   38  C   UNL     1      40.185 -10.329  13.028  1.00  0.00     0.001 A 
HETATM   39  C   UNL     1      41.418  -9.683  13.088  1.00  0.00     0.000 A 
HETATM   40  C   UNL     1      41.897  -8.998  11.974  1.00  0.00     0.001 A 
HETATM   41  C   UNL     1      41.142  -8.954  10.801  1.00  0.00     0.010 A 
ENDBRANCH  33  36
ENDBRANCH  32  33
ENDBRANCH  30  32
ENDBRANCH  11  30
TORSDOF 11
ENDMDL
MODEL 3
REMARK VINA RESULT:      -9.1      2.082      2.974
REMARK  11 active torsions:
REMARK  status: ('A' for Active; 'I' for Inactive)
REMARK    1  A    between atoms: O_2  and  C_3 
REMARK    2  A    between atoms: C_6  and  C_7 
REMARK    3  A    between atoms: C_7  and  C_8 
REMARK    4  A    between atoms: C_8  and  N_9 
REMARK    5  A    between atoms: C_13  and  C_14 
REMARK    6  A    between atoms: C_14  and  C_15 
REMARK    7  A    between atoms: C_25  and  N_26 
REMARK    8  A    between atoms: N_26  and  C_27 
REMARK    9  A    between atoms: C_27  and  C_28 
REMARK   10  A    between atoms: C_28  and  O_29 
REMARK   11  A    between atoms: C_28  and  C_30 
ROOT
HETATM    1  C   UNL     1      42.131 -12.118   2.217  1.00  0.00     0.074 A 
HETATM    2  C   UNL     1      41.365 -11.461   1.113  1.00  0.00     0.266 A 
HETATM    3  O   UNL     1      41.377 -10.231   1.009  1.00  0.00    -0.267 OA
HETATM    4  N   UNL     1      40.672 -12.300   0.260  1.00  0.00    -0.273 N 
HETATM    5  C   UNL     1      40.680 -13.663   0.493  1.00  0.00     0.138 A 
HETATM    6  N   UNL     1      41.306 -14.234   1.473  1.00  0.00    -0.218 NA
HETATM    7  C   UNL     1      39.965 -11.757  -0.808  1.00  0.00     0.102 A 
HETATM    8  C   UNL     1      39.270 -12.524  -1.657  1.00  0.00     0.018 A 
HETATM    9  C   UNL     1      39.241 -13.951  -1.470  1.00  0.00     0.005 A 
HETATM   10  C   UNL     1      39.904 -14.515  -0.454  1.00  0.00     0.051 A 
HETATM   11  C   UNL     1      42.034 -13.460   2.338  1.00  0.00     0.121 A 
ENDROOT
BRANCH   1  12
HETATM   12  C   UNL     1      42.903 -11.235   3.080  1.00  0.00     0.045 C 
BRANCH  12  13
HETATM   13  C   UNL     1      42.583 -10.803   4.305  1.00  0.00     0.077 A 
HETATM   14  S   UNL     1      41.075 -10.229   4.887  1.00  0.00    -0.055 SA
HETATM   15  C   UNL     1      41.664 -10.070   6.538  1.00  0.00     0.148 A 
HETATM   16  N   UNL     1      42.966 -10.515   6.613  1.00  0.00    -0.298 N 
HETATM   17  S   UNL     1      40.711  -9.464   7.767  1.00  0.00    -0.052 SA
HETATM   18  C   UNL     1      43.563 -10.880   5.420  1.00  0.00     0.266 A 
HETATM   19  O   UNL     1      44.727 -11.232   5.279  1.00  0.00    -0.266 OA
BRANCH  16  20
HETATM   20  C   UNL     1      43.737 -10.666   7.848  1.00  0.00     0.138 C 
BRANCH  20  21
HETATM   21  C   UNL     1      44.568  -9.424   8.187  1.00  0.00     0.059 C 
BRANCH  21  22
HETATM   22  C   UNL     1      44.013  -8.716   9.400  1.00  0.00    -0.057 A 
HETATM   23  C   UNL     1      44.090  -9.315  10.662  1.00  0.00     0.010 A 
HETATM   24  C   UNL     1      43.544  -8.679  11.780  1.00  0.00     0.037 A 
HETATM   25  C   UNL     1      42.927  -7.434  11.660  1.00  0.00     0.068 A 
HETATM   26  C   UNL     1      42.845  -6.834  10.404  1.00  0.00     0.037 A 
HETATM   27  C   UNL     1      43.383  -7.472   9.279  1.00  0.00     0.010 A 
BRANCH  25  28
HETATM   28  O   UNL     1      42.440  -6.921  12.830  1.00  0.00    -0.356 OA
HETATM   29  C   UNL     1      43.154  -7.245  14.016  1.00  0.00     0.210 C 
ENDBRANCH  25  28
ENDBRANCH  21  22
ENDBRANCH  20  21
ENDBRANCH  16  20
ENDBRANCH  12  13
ENDBRANCH   1  12
BRANCH  11  30
HETATM   30  N   UNL     1      42.681 -14.163   3.349  1.00  0.00    -0.274 NA
HETATM   31  H   UNL     1      42.992 -15.044   2.933  1.00  0.00     0.129 HD
BRANCH  30  32
HETATM   32  C   UNL     1      42.003 -14.490   4.619  1.00  0.00     0.130 C 
BRANCH  32  33
HETATM   33  C   UNL     1      41.364 -15.902   4.609  1.00  0.00     0.164 C 
BRANCH  33  34
HETATM   34  O   UNL     1      40.151 -15.888   3.841  1.00  0.00    -0.390 OA
HETATM   35  H   UNL     1      39.972 -14.940   3.671  1.00  0.00     0.210 HD
ENDBRANCH  33  34
BRANCH  33  36
HETATM   36  C   UNL     1      42.330 -16.934   4.062  1.00  0.00    -0.029 A 
HETATM   37  C   UNL     1      43.394 -17.387   4.860  1.00  0.00     0.010 A 
HETATM   38  C   UNL     1      44.313 -18.313   4.364  1.00  0.00     0.001 A 
HETATM   39  C   UNL     1      44.182 -18.802   3.066  1.00  0.00     0.000 A 
HETATM   40  C   UNL     1      43.131 -18.364   2.263  1.00  0.00     0.001 A 
HETATM   41  C   UNL     1      42.214 -17.435   2.756  1.00  0.00     0.010 A 
ENDBRANCH  33  36
ENDBRANCH  32  33
ENDBRANCH  30  32
ENDBRANCH  11  30
TORSDOF 11
ENDMDL
MODEL 4
REMARK VINA RESULT:      -9.1      1.589      1.795
REMARK  11 active torsions:
REMARK  status: ('A' for Active; 'I' for Inactive)
REMARK    1  A    between atoms: O_2  and  C_3 
REMARK    2  A    between atoms: C_6  and  C_7 
REMARK    3  A    between atoms: C_7  and  C_8 
REMARK    4  A    between atoms: C_8  and  N_9 
REMARK    5  A    between atoms: C_13  and  C_14 
REMARK    6  A    between atoms: C_14  and  C_15 
REMARK    7  A    between atoms: C_25  and  N_26 
REMARK    8  A    between atoms: N_26  and  C_27 
REMARK    9  A    between atoms: C_27  and  C_28 
REMARK   10  A    between atoms: C_28  and  O_29 
REMARK   11  A    between atoms: C_28  and  C_30 
ROOT
HETATM    1  C   UNL     1      40.918 -12.356   4.913  1.00  0.00     0.074 A 
HETATM    2  C   UNL     1      40.741 -11.949   3.484  1.00  0.00     0.266 A 
HETATM    3  O   UNL     1      40.801 -10.755   3.178  1.00  0.00    -0.267 OA
HETATM    4  N   UNL     1      40.514 -12.968   2.577  1.00  0.00    -0.273 N 
HETATM    5  C   UNL     1      40.414 -14.270   3.030  1.00  0.00     0.138 A 
HETATM    6  N   UNL     1      40.522 -14.624   4.272  1.00  0.00    -0.218 NA
HETATM    7  C   UNL     1      40.373 -12.662   1.228  1.00  0.00     0.102 A 
HETATM    8  C   UNL     1      40.143 -13.609   0.310  1.00  0.00     0.018 A 
HETATM    9  C   UNL     1      40.031 -14.985   0.717  1.00  0.00     0.005 A 
HETATM   10  C   UNL     1      40.156 -15.323   2.005  1.00  0.00     0.051 A 
HETATM   11  C   UNL     1      40.776 -13.665   5.216  1.00  0.00     0.121 A 
ENDROOT
BRANCH   1  12
HETATM   12  C   UNL     1      41.211 -11.286   5.857  1.00  0.00     0.045 C 
BRANCH  12  13
HETATM   13  C   UNL     1      42.379 -11.016   6.451  1.00  0.00     0.077 A 
HETATM   14  S   UNL     1      43.958 -11.519   6.005  1.00  0.00    -0.055 SA
HETATM   15  C   UNL     1      44.723 -10.565   7.271  1.00  0.00     0.148 A 
HETATM   16  N   UNL     1      43.766  -9.845   7.954  1.00  0.00    -0.298 N 
HETATM   17  S   UNL     1      46.371 -10.589   7.528  1.00  0.00    -0.052 SA
HETATM   18  C   UNL     1      42.449 -10.081   7.603  1.00  0.00     0.266 A 
HETATM   19  O   UNL     1      41.465  -9.591   8.141  1.00  0.00    -0.266 OA
BRANCH  16  20
HETATM   20  C   UNL     1      44.040  -8.836   8.979  1.00  0.00     0.138 C 
BRANCH  20  21
HETATM   21  C   UNL     1      44.562  -9.441  10.286  1.00  0.00     0.059 C 
BRANCH  21  22
HETATM   22  C   UNL     1      43.572  -9.241  11.409  1.00  0.00    -0.057 A 
HETATM   23  C   UNL     1      43.730  -8.179  12.306  1.00  0.00     0.010 A 
HETATM   24  C   UNL     1      42.836  -8.014  13.368  1.00  0.00     0.037 A 
HETATM   25  C   UNL     1      41.767  -8.893  13.542  1.00  0.00     0.068 A 
HETATM   26  C   UNL     1      41.607  -9.954  12.652  1.00  0.00     0.037 A 
HETATM   27  C   UNL     1      42.506 -10.129  11.591  1.00  0.00     0.010 A 
BRANCH  25  28
HETATM   28  O   UNL     1      40.967  -8.616  14.616  1.00  0.00    -0.356 OA
HETATM   29  C   UNL     1      40.288  -7.366  14.601  1.00  0.00     0.210 C 
ENDBRANCH  25  28
ENDBRANCH  21  22
ENDBRANCH  20  21
ENDBRANCH  16  20
ENDBRANCH  12  13
ENDBRANCH   1  12
BRANCH  11  30
HETATM   30  N   UNL     1      40.889 -14.141   6.518  1.00  0.00    -0.274 NA
HETATM   31  H   UNL     1      41.605 -13.571   6.972  1.00  0.00     0.129 HD
BRANCH  30  32
HETATM   32  C   UNL     1      41.209 -15.555   6.798  1.00  0.00     0.130 C 
BRANCH  32  33
HETATM   33  C   UNL     1      42.734 -15.823   6.857  1.00  0.00     0.164 C 
BRANCH  33  34
HETATM   34  O   UNL     1      43.110 -16.244   8.177  1.00  0.00    -0.390 OA
HETATM   35  H   UNL     1      42.464 -15.812   8.772  1.00  0.00     0.210 HD
ENDBRANCH  33  34
BRANCH  33  36
HETATM   36  C   UNL     1      43.148 -16.856   5.828  1.00  0.00    -0.029 A 
HETATM   37  C   UNL     1      43.516 -18.147   6.245  1.00  0.00     0.010 A 
HETATM   38  C   UNL     1      43.931 -19.104   5.317  1.00  0.00     0.001 A 
HETATM   39  C   UNL     1      43.982 -18.787   3.961  1.00  0.00     0.000 A 
HETATM   40  C   UNL     1      43.618 -17.512   3.532  1.00  0.00     0.001 A 
HETATM   41  C   UNL     1      43.207 -16.553   4.459  1.00  0.00     0.010 A 
ENDBRANCH  33  36
ENDBRANCH  32  33
ENDBRANCH  30  32
ENDBRANCH  11  30
TORSDOF 11
ENDMDL
MODEL 5
REMARK VINA RESULT:      -8.9      5.092      9.321
REMARK  11 active torsions:
REMARK  status: ('A' for Active; 'I' for Inactive)
REMARK    1  A    between atoms: O_2  and  C_3 
REMARK    2  A    between atoms: C_6  and  C_7 
REMARK    3  A    between atoms: C_7  and  C_8 
REMARK    4  A    between atoms: C_8  and  N_9 
REMARK    5  A    between atoms: C_13  and  C_14 
REMARK    6  A    between atoms: C_14  and  C_15 
REMARK    7  A    between atoms: C_25  and  N_26 
REMARK    8  A    between atoms: N_26  and  C_27 
REMARK    9  A    between atoms: C_27  and  C_28 
REMARK   10  A    between atoms: C_28  and  O_29 
REMARK   11  A    between atoms: C_28  and  C_30 
ROOT
HETATM    1  C   UNL     1      40.996 -15.439   4.326  1.00  0.00     0.074 A 
HETATM    2  C   UNL     1      42.183 -16.055   4.996  1.00  0.00     0.266 A 
HETATM    3  O   UNL     1      42.536 -15.649   6.106  1.00  0.00    -0.267 OA
HETATM    4  N   UNL     1      42.827 -17.064   4.303  1.00  0.00    -0.273 N 
HETATM    5  C   UNL     1      42.384 -17.411   3.040  1.00  0.00     0.138 A 
HETATM    6  N   UNL     1      41.383 -16.852   2.437  1.00  0.00    -0.218 NA
HETATM    7  C   UNL     1      43.918 -17.702   4.883  1.00  0.00     0.102 A 
HETATM    8  C   UNL     1      44.582 -18.678   4.252  1.00  0.00     0.018 A 
HETATM    9  C   UNL     1      44.168 -19.088   2.936  1.00  0.00     0.005 A 
HETATM   10  C   UNL     1      43.125 -18.499   2.339  1.00  0.00     0.051 A 
HETATM   11  C   UNL     1      40.686 -15.863   3.081  1.00  0.00     0.121 A 
ENDROOT
BRANCH   1  12
HETATM   12  C   UNL     1      40.289 -14.414   5.081  1.00  0.00     0.045 C 
BRANCH  12  13
HETATM   13  C   UNL     1      40.451 -13.088   5.011  1.00  0.00     0.077 A 
HETATM   14  S   UNL     1      41.606 -12.099   5.806  1.00  0.00    -0.055 SA
HETATM   15  C   UNL     1      41.076 -10.643   4.971  1.00  0.00     0.148 A 
HETATM   16  N   UNL     1      40.082 -10.959   4.070  1.00  0.00    -0.298 N 
HETATM   17  S   UNL     1      41.740  -9.146   5.288  1.00  0.00    -0.052 SA
HETATM   18  C   UNL     1      39.641 -12.270   4.071  1.00  0.00     0.266 A 
HETATM   19  O   UNL     1      38.726 -12.719   3.394  1.00  0.00    -0.266 OA
BRANCH  16  20
HETATM   20  C   UNL     1      39.498 -10.033   3.098  1.00  0.00     0.138 C 
BRANCH  20  21
HETATM   21  C   UNL     1      40.256 -10.009   1.767  1.00  0.00     0.059 C 
BRANCH  21  22
HETATM   22  C   UNL     1      39.311  -9.792   0.609  1.00  0.00    -0.057 A 
HETATM   23  C   UNL     1      38.102 -10.494   0.546  1.00  0.00     0.010 A 
HETATM   24  C   UNL     1      37.242 -10.324  -0.542  1.00  0.00     0.037 A 
HETATM   25  C   UNL     1      37.567  -9.442  -1.574  1.00  0.00     0.068 A 
HETATM   26  C   UNL     1      38.771  -8.742  -1.517  1.00  0.00     0.037 A 
HETATM   27  C   UNL     1      39.640  -8.917  -0.432  1.00  0.00     0.010 A 
BRANCH  25  28
HETATM   28  O   UNL     1      36.638  -9.366  -2.575  1.00  0.00    -0.356 OA
HETATM   29  C   UNL     1      35.938 -10.563  -2.890  1.00  0.00     0.210 C 
ENDBRANCH  25  28
ENDBRANCH  21  22
ENDBRANCH  20  21
ENDBRANCH  16  20
ENDBRANCH  12  13
ENDBRANCH   1  12
BRANCH  11  30
HETATM   30  N   UNL     1      39.621 -15.333   2.360  1.00  0.00    -0.274 NA
HETATM   31  H   UNL     1      38.840 -15.981   2.482  1.00  0.00     0.129 HD
BRANCH  30  32
HETATM   32  C   UNL     1      39.734 -15.045   0.916  1.00  0.00     0.130 C 
BRANCH  32  33
HETATM   33  C   UNL     1      40.614 -13.804   0.621  1.00  0.00     0.164 C 
BRANCH  33  34
HETATM   34  O   UNL     1      42.002 -14.168   0.642  1.00  0.00    -0.390 OA
HETATM   35  H   UNL     1      42.252 -14.153   1.589  1.00  0.00     0.210 HD
ENDBRANCH  33  34
BRANCH  33  36
HETATM   36  C   UNL     1      40.246 -13.176  -0.708  1.00  0.00    -0.029 A 
HETATM   37  C   UNL     1      39.052 -13.547  -1.349  1.00  0.00     0.010 A 
HETATM   38  C   UNL     1      38.711 -13.006  -2.590  1.00  0.00     0.001 A 
HETATM   39  C   UNL     1      39.556 -12.086  -3.207  1.00  0.00     0.000 A 
HETATM   40  C   UNL     1      40.742 -11.707  -2.584  1.00  0.00     0.001 A 
HETATM   41  C   UNL     1      41.087 -12.251  -1.346  1.00  0.00     0.010 A 
ENDBRANCH  33  36
ENDBRANCH  32  33
ENDBRANCH  30  32
ENDBRANCH  11  30
TORSDOF 11
ENDMDL
MODEL 6
REMARK VINA RESULT:      -8.8      2.147      5.522
REMARK  11 active torsions:
REMARK  status: ('A' for Active; 'I' for Inactive)
REMARK    1  A    between atoms: O_2  and  C_3 
REMARK    2  A    between atoms: C_6  and  C_7 
REMARK    3  A    between atoms: C_7  and  C_8 
REMARK    4  A    between atoms: C_8  and  N_9 
REMARK    5  A    between atoms: C_13  and  C_14 
REMARK    6  A    between atoms: C_14  and  C_15 
REMARK    7  A    between atoms: C_25  and  N_26 
REMARK    8  A    between atoms: N_26  and  C_27 
REMARK    9  A    between atoms: C_27  and  C_28 
REMARK   10  A    between atoms: C_28  and  O_29 
REMARK   11  A    between atoms: C_28  and  C_30 
ROOT
HETATM    1  C   UNL     1      41.838 -15.554   5.043  1.00  0.00     0.074 A 
HETATM    2  C   UNL     1      42.819 -16.604   5.457  1.00  0.00     0.266 A 
HETATM    3  O   UNL     1      43.294 -16.580   6.596  1.00  0.00    -0.267 OA
HETATM    4  N   UNL     1      43.138 -17.558   4.508  1.00  0.00    -0.273 N 
HETATM    5  C   UNL     1      42.589 -17.468   3.243  1.00  0.00     0.138 A 
HETATM    6  N   UNL     1      41.772 -16.536   2.864  1.00  0.00    -0.218 NA
HETATM    7  C   UNL     1      44.018 -18.582   4.839  1.00  0.00     0.102 A 
HETATM    8  C   UNL     1      44.368 -19.525   3.955  1.00  0.00     0.018 A 
HETATM    9  C   UNL     1      43.828 -19.489   2.621  1.00  0.00     0.005 A 
HETATM   10  C   UNL     1      42.980 -18.519   2.260  1.00  0.00     0.051 A 
HETATM   11  C   UNL     1      41.395 -15.576   3.766  1.00  0.00     0.121 A 
ENDROOT
BRANCH   1  12
HETATM   12  C   UNL     1      41.463 -14.583   6.061  1.00  0.00     0.045 C 
BRANCH  12  13
HETATM   13  C   UNL     1      41.698 -13.267   6.063  1.00  0.00     0.077 A 
HETATM   14  S   UNL     1      40.589 -11.972   5.869  1.00  0.00    -0.055 SA
HETATM   15  C   UNL     1      41.820 -10.747   6.157  1.00  0.00     0.148 A 
HETATM   16  N   UNL     1      43.021 -11.356   6.453  1.00  0.00    -0.298 N 
HETATM   17  S   UNL     1      41.488  -9.115   6.066  1.00  0.00    -0.052 SA
HETATM   18  C   UNL     1      43.053 -12.735   6.366  1.00  0.00     0.266 A 
HETATM   19  O   UNL     1      44.040 -13.442   6.525  1.00  0.00    -0.266 OA
BRANCH  16  20
HETATM   20  C   UNL     1      44.235 -10.661   6.887  1.00  0.00     0.138 C 
BRANCH  20  21
HETATM   21  C   UNL     1      44.591 -10.940   8.350  1.00  0.00     0.059 C 
BRANCH  21  22
HETATM   22  C   UNL     1      44.043  -9.863   9.256  1.00  0.00    -0.057 A 
HETATM   23  C   UNL     1      43.929  -8.546   8.796  1.00  0.00     0.010 A 
HETATM   24  C   UNL     1      43.457  -7.541   9.643  1.00  0.00     0.037 A 
HETATM   25  C   UNL     1      43.078  -7.833  10.953  1.00  0.00     0.068 A 
HETATM   26  C   UNL     1      43.191  -9.144  11.417  1.00  0.00     0.037 A 
HETATM   27  C   UNL     1      43.672 -10.153  10.574  1.00  0.00     0.010 A 
BRANCH  25  28
HETATM   28  O   UNL     1      42.629  -6.760  11.672  1.00  0.00    -0.356 OA
HETATM   29  C   UNL     1      41.230  -6.693  11.913  1.00  0.00     0.210 C 
ENDBRANCH  25  28
ENDBRANCH  21  22
ENDBRANCH  20  21
ENDBRANCH  16  20
ENDBRANCH  12  13
ENDBRANCH   1  12
BRANCH  11  30
HETATM   30  N   UNL     1      40.507 -14.626   3.272  1.00  0.00    -0.274 NA
HETATM   31  H   UNL     1      39.760 -14.543   3.965  1.00  0.00     0.129 HD
BRANCH  30  32
HETATM   32  C   UNL     1      39.867 -14.780   1.951  1.00  0.00     0.130 C 
BRANCH  32  33
HETATM   33  C   UNL     1      40.581 -13.963   0.843  1.00  0.00     0.164 C 
BRANCH  33  34
HETATM   34  O   UNL     1      41.752 -14.661   0.394  1.00  0.00    -0.390 OA
HETATM   35  H   UNL     1      42.006 -15.235   1.146  1.00  0.00     0.210 HD
ENDBRANCH  33  34
BRANCH  33  36
HETATM   36  C   UNL     1      39.647 -13.685  -0.318  1.00  0.00    -0.029 A 
HETATM   37  C   UNL     1      38.896 -12.497  -0.341  1.00  0.00     0.010 A 
HETATM   38  C   UNL     1      38.007 -12.237  -1.385  1.00  0.00     0.001 A 
HETATM   39  C   UNL     1      37.856 -13.157  -2.421  1.00  0.00     0.000 A 
HETATM   40  C   UNL     1      38.594 -14.338  -2.413  1.00  0.00     0.001 A 
HETATM   41  C   UNL     1      39.481 -14.602  -1.367  1.00  0.00     0.010 A 
ENDBRANCH  33  36
ENDBRANCH  32  33
ENDBRANCH  30  32
ENDBRANCH  11  30
TORSDOF 11
ENDMDL
MODEL 7
REMARK VINA RESULT:      -8.8      5.348      9.064
REMARK  11 active torsions:
REMARK  status: ('A' for Active; 'I' for Inactive)
REMARK    1  A    between atoms: O_2  and  C_3 
REMARK    2  A    between atoms: C_6  and  C_7 
REMARK    3  A    between atoms: C_7  and  C_8 
REMARK    4  A    between atoms: C_8  and  N_9 
REMARK    5  A    between atoms: C_13  and  C_14 
REMARK    6  A    between atoms: C_14  and  C_15 
REMARK    7  A    between atoms: C_25  and  N_26 
REMARK    8  A    between atoms: N_26  and  C_27 
REMARK    9  A    between atoms: C_27  and  C_28 
REMARK   10  A    between atoms: C_28  and  O_29 
REMARK   11  A    between atoms: C_28  and  C_30 
ROOT
HETATM    1  C   UNL     1      43.232 -15.585   3.624  1.00  0.00     0.074 A 
HETATM    2  C   UNL     1      43.750 -16.689   4.491  1.00  0.00     0.266 A 
HETATM    3  O   UNL     1      44.195 -16.427   5.612  1.00  0.00    -0.267 OA
HETATM    4  N   UNL     1      43.696 -17.965   3.962  1.00  0.00    -0.273 N 
HETATM    5  C   UNL     1      43.226 -18.147   2.674  1.00  0.00     0.138 A 
HETATM    6  N   UNL     1      42.817 -17.190   1.903  1.00  0.00    -0.218 NA
HETATM    7  C   UNL     1      44.131 -19.041   4.727  1.00  0.00     0.102 A 
HETATM    8  C   UNL     1      44.108 -20.295   4.259  1.00  0.00     0.018 A 
HETATM    9  C   UNL     1      43.628 -20.551   2.927  1.00  0.00     0.005 A 
HETATM   10  C   UNL     1      43.203 -19.545   2.155  1.00  0.00     0.051 A 
HETATM   11  C   UNL     1      42.819 -15.905   2.379  1.00  0.00     0.121 A 
ENDROOT
BRANCH   1  12
HETATM   12  C   UNL     1      43.240 -14.250   4.206  1.00  0.00     0.045 C 
BRANCH  12  13
HETATM   13  C   UNL     1      42.192 -13.452   4.439  1.00  0.00     0.077 A 
HETATM   14  S   UNL     1      41.061 -13.505   5.728  1.00  0.00    -0.055 SA
HETATM   15  C   UNL     1      40.246 -12.037   5.200  1.00  0.00     0.148 A 
HETATM   16  N   UNL     1      40.892 -11.516   4.100  1.00  0.00    -0.298 N 
HETATM   17  S   UNL     1      38.899 -11.438   5.982  1.00  0.00    -0.052 SA
HETATM   18  C   UNL     1      41.935 -12.264   3.584  1.00  0.00     0.266 A 
HETATM   19  O   UNL     1      42.578 -11.999   2.578  1.00  0.00    -0.266 OA
BRANCH  16  20
HETATM   20  C   UNL     1      40.587 -10.229   3.472  1.00  0.00     0.138 C 
BRANCH  20  21
HETATM   21  C   UNL     1      39.408 -10.307   2.496  1.00  0.00     0.059 C 
BRANCH  21  22
HETATM   22  C   UNL     1      39.787  -9.751   1.144  1.00  0.00    -0.057 A 
HETATM   23  C   UNL     1      41.102  -9.344   0.893  1.00  0.00     0.010 A 
HETATM   24  C   UNL     1      41.447  -8.796  -0.345  1.00  0.00     0.037 A 
HETATM   25  C   UNL     1      40.494  -8.658  -1.353  1.00  0.00     0.068 A 
HETATM   26  C   UNL     1      39.181  -9.060  -1.107  1.00  0.00     0.037 A 
HETATM   27  C   UNL     1      38.829  -9.602   0.135  1.00  0.00     0.010 A 
BRANCH  25  28
HETATM   28  O   UNL     1      40.963  -8.112  -2.515  1.00  0.00    -0.356 OA
HETATM   29  C   UNL     1      42.363  -7.871  -2.588  1.00  0.00     0.210 C 
ENDBRANCH  25  28
ENDBRANCH  21  22
ENDBRANCH  20  21
ENDBRANCH  16  20
ENDBRANCH  12  13
ENDBRANCH   1  12
BRANCH  11  30
HETATM   30  N   UNL     1      42.350 -14.949   1.484  1.00  0.00    -0.274 NA
HETATM   31  H   UNL     1      42.443 -14.046   1.953  1.00  0.00     0.129 HD
BRANCH  30  32
HETATM   32  C   UNL     1      40.986 -15.017   0.924  1.00  0.00     0.130 C 
BRANCH  32  33
HETATM   33  C   UNL     1      40.504 -13.658   0.356  1.00  0.00     0.164 C 
BRANCH  33  34
HETATM   34  O   UNL     1      41.625 -12.783   0.156  1.00  0.00    -0.390 OA
HETATM   35  H   UNL     1      42.039 -13.091  -0.677  1.00  0.00     0.210 HD
ENDBRANCH  33  34
BRANCH  33  36
HETATM   36  C   UNL     1      39.737 -13.847  -0.937  1.00  0.00    -0.029 A 
HETATM   37  C   UNL     1      39.350 -12.725  -1.690  1.00  0.00     0.010 A 
HETATM   38  C   UNL     1      38.615 -12.876  -2.867  1.00  0.00     0.001 A 
HETATM   39  C   UNL     1      38.257 -14.148  -3.310  1.00  0.00     0.000 A 
HETATM   40  C   UNL     1      38.635 -15.270  -2.576  1.00  0.00     0.001 A 
HETATM   41  C   UNL     1      39.366 -15.120  -1.397  1.00  0.00     0.010 A 
ENDBRANCH  33  36
ENDBRANCH  32  33
ENDBRANCH  30  32
ENDBRANCH  11  30
TORSDOF 11
ENDMDL
MODEL 8
REMARK VINA RESULT:      -8.8      3.515      9.129
REMARK  11 active torsions:
REMARK  status: ('A' for Active; 'I' for Inactive)
REMARK    1  A    between atoms: O_2  and  C_3 
REMARK    2  A    between atoms: C_6  and  C_7 
REMARK    3  A    between atoms: C_7  and  C_8 
REMARK    4  A    between atoms: C_8  and  N_9 
REMARK    5  A    between atoms: C_13  and  C_14 
REMARK    6  A    between atoms: C_14  and  C_15 
REMARK    7  A    between atoms: C_25  and  N_26 
REMARK    8  A    between atoms: N_26  and  C_27 
REMARK    9  A    between atoms: C_27  and  C_28 
REMARK   10  A    between atoms: C_28  and  O_29 
REMARK   11  A    between atoms: C_28  and  C_30 
ROOT
HETATM    1  C   UNL     1      41.965 -11.772   6.361  1.00  0.00     0.074 A 
HETATM    2  C   UNL     1      42.175 -10.440   7.007  1.00  0.00     0.266 A 
HETATM    3  O   UNL     1      41.220  -9.670   7.142  1.00  0.00    -0.267 OA
HETATM    4  N   UNL     1      43.463 -10.151   7.419  1.00  0.00    -0.273 N 
HETATM    5  C   UNL     1      44.474 -11.062   7.176  1.00  0.00     0.138 A 
HETATM    6  N   UNL     1      44.307 -12.199   6.578  1.00  0.00    -0.218 NA
HETATM    7  C   UNL     1      43.721  -8.943   8.057  1.00  0.00     0.102 A 
HETATM    8  C   UNL     1      44.951  -8.610   8.468  1.00  0.00     0.018 A 
HETATM    9  C   UNL     1      46.047  -9.517   8.247  1.00  0.00     0.005 A 
HETATM   10  C   UNL     1      45.844 -10.688   7.634  1.00  0.00     0.051 A 
HETATM   11  C   UNL     1      43.049 -12.556   6.169  1.00  0.00     0.121 A 
ENDROOT
BRANCH   1  12
HETATM   12  C   UNL     1      40.598 -12.095   5.977  1.00  0.00     0.045 C 
BRANCH  12  13
HETATM   13  C   UNL     1      39.997 -11.849   4.807  1.00  0.00     0.077 A 
HETATM   14  S   UNL     1      39.199 -10.424   4.283  1.00  0.00    -0.055 SA
HETATM   15  C   UNL     1      38.918 -11.061   2.666  1.00  0.00     0.148 A 
HETATM   16  N   UNL     1      39.491 -12.310   2.552  1.00  0.00    -0.298 N 
HETATM   17  S   UNL     1      38.075 -10.206   1.508  1.00  0.00    -0.052 SA
HETATM   18  C   UNL     1      40.052 -12.839   3.700  1.00  0.00     0.266 A 
HETATM   19  O   UNL     1      40.543 -13.954   3.810  1.00  0.00    -0.266 OA
BRANCH  16  20
HETATM   20  C   UNL     1      39.584 -13.086   1.314  1.00  0.00     0.138 C 
BRANCH  20  21
HETATM   21  C   UNL     1      40.970 -13.012   0.666  1.00  0.00     0.059 C 
BRANCH  21  22
HETATM   22  C   UNL     1      40.933 -12.189  -0.599  1.00  0.00    -0.057 A 
HETATM   23  C   UNL     1      41.237 -10.823  -0.560  1.00  0.00     0.010 A 
HETATM   24  C   UNL     1      41.168 -10.052  -1.723  1.00  0.00     0.037 A 
HETATM   25  C   UNL     1      40.810 -10.629  -2.941  1.00  0.00     0.068 A 
HETATM   26  C   UNL     1      40.504 -11.990  -2.984  1.00  0.00     0.037 A 
HETATM   27  C   UNL     1      40.563 -12.765  -1.820  1.00  0.00     0.010 A 
BRANCH  25  28
HETATM   28  O   UNL     1      40.785  -9.765  -4.000  1.00  0.00    -0.356 OA
HETATM   29  C   UNL     1      40.686  -8.380  -3.692  1.00  0.00     0.210 C 
ENDBRANCH  25  28
ENDBRANCH  21  22
ENDBRANCH  20  21
ENDBRANCH  16  20
ENDBRANCH  12  13
ENDBRANCH   1  12
BRANCH  11  30
HETATM   30  N   UNL     1      42.966 -13.798   5.549  1.00  0.00    -0.274 NA
HETATM   31  H   UNL     1      41.973 -13.968   5.376  1.00  0.00     0.129 HD
BRANCH  30  32
HETATM   32  C   UNL     1      43.518 -15.014   6.178  1.00  0.00     0.130 C 
BRANCH  32  33
HETATM   33  C   UNL     1      42.577 -16.238   6.041  1.00  0.00     0.164 C 
BRANCH  33  34
HETATM   34  O   UNL     1      41.216 -15.800   5.909  1.00  0.00    -0.390 OA
HETATM   35  H   UNL     1      40.702 -16.399   6.489  1.00  0.00     0.210 HD
ENDBRANCH  33  34
BRANCH  33  36
HETATM   36  C   UNL     1      42.975 -17.104   4.863  1.00  0.00    -0.029 A 
HETATM   37  C   UNL     1      43.893 -18.152   5.045  1.00  0.00     0.010 A 
HETATM   38  C   UNL     1      44.298 -18.941   3.967  1.00  0.00     0.001 A 
HETATM   39  C   UNL     1      43.790 -18.697   2.693  1.00  0.00     0.000 A 
HETATM   40  C   UNL     1      42.879 -17.662   2.496  1.00  0.00     0.001 A 
HETATM   41  C   UNL     1      42.476 -16.870   3.572  1.00  0.00     0.010 A 
ENDBRANCH  33  36
ENDBRANCH  32  33
ENDBRANCH  30  32
ENDBRANCH  11  30
TORSDOF 11
ENDMDL
MODEL 9
REMARK VINA RESULT:      -8.7      2.326      3.212
REMARK  11 active torsions:
REMARK  status: ('A' for Active; 'I' for Inactive)
REMARK    1  A    between atoms: O_2  and  C_3 
REMARK    2  A    between atoms: C_6  and  C_7 
REMARK    3  A    between atoms: C_7  and  C_8 
REMARK    4  A    between atoms: C_8  and  N_9 
REMARK    5  A    between atoms: C_13  and  C_14 
REMARK    6  A    between atoms: C_14  and  C_15 
REMARK    7  A    between atoms: C_25  and  N_26 
REMARK    8  A    between atoms: N_26  and  C_27 
REMARK    9  A    between atoms: C_27  and  C_28 
REMARK   10  A    between atoms: C_28  and  O_29 
REMARK   11  A    between atoms: C_28  and  C_30 
ROOT
HETATM    1  C   UNL     1      40.648 -12.195   2.488  1.00  0.00     0.074 A 
HETATM    2  C   UNL     1      40.835 -11.583   1.135  1.00  0.00     0.266 A 
HETATM    3  O   UNL     1      41.180 -10.402   1.042  1.00  0.00    -0.267 OA
HETATM    4  N   UNL     1      40.599 -12.406   0.049  1.00  0.00    -0.273 N 
HETATM    5  C   UNL     1      40.166 -13.701   0.260  1.00  0.00     0.138 A 
HETATM    6  N   UNL     1      39.960 -14.223   1.428  1.00  0.00    -0.218 NA
HETATM    7  C   UNL     1      40.787 -11.910  -1.237  1.00  0.00     0.102 A 
HETATM    8  C   UNL     1      40.564 -12.661  -2.322  1.00  0.00     0.018 A 
HETATM    9  C   UNL     1      40.114 -14.019  -2.170  1.00  0.00     0.005 A 
HETATM   10  C   UNL     1      39.918 -14.536  -0.951  1.00  0.00     0.051 A 
HETATM   11  C   UNL     1      40.202 -13.469   2.545  1.00  0.00     0.121 A 
ENDROOT
BRANCH   1  12
HETATM   12  C   UNL     1      40.950 -11.342   3.629  1.00  0.00     0.045 C 
BRANCH  12  13
HETATM   13  C   UNL     1      42.030 -11.380   4.416  1.00  0.00     0.077 A 
HETATM   14  S   UNL     1      43.683 -11.519   3.975  1.00  0.00    -0.055 SA
HETATM   15  C   UNL     1      44.240 -11.341   5.635  1.00  0.00     0.148 A 
HETATM   16  N   UNL     1      43.163 -11.119   6.466  1.00  0.00    -0.298 N 
HETATM   17  S   UNL     1      45.855 -11.437   6.045  1.00  0.00    -0.052 SA
HETATM   18  C   UNL     1      41.910 -11.183   5.884  1.00  0.00     0.266 A 
HETATM   19  O   UNL     1      40.841 -11.082   6.471  1.00  0.00    -0.266 OA
BRANCH  16  20
HETATM   20  C   UNL     1      43.250 -10.785   7.889  1.00  0.00     0.138 C 
BRANCH  20  21
HETATM   21  C   UNL     1      43.434  -9.284   8.139  1.00  0.00     0.059 C 
BRANCH  21  22
HETATM   22  C   UNL     1      43.257  -8.953   9.601  1.00  0.00    -0.057 A 
HETATM   23  C   UNL     1      43.515  -9.920  10.579  1.00  0.00     0.010 A 
HETATM   24  C   UNL     1      43.317  -9.629  11.931  1.00  0.00     0.037 A 
HETATM   25  C   UNL     1      42.873  -8.368  12.329  1.00  0.00     0.068 A 
HETATM   26  C   UNL     1      42.611  -7.401  11.359  1.00  0.00     0.037 A 
HETATM   27  C   UNL     1      42.800  -7.692  10.002  1.00  0.00     0.010 A 
BRANCH  25  28
HETATM   28  O   UNL     1      42.724  -8.213  13.680  1.00  0.00    -0.356 OA
HETATM   29  C   UNL     1      43.277  -7.034  14.252  1.00  0.00     0.210 C 
ENDBRANCH  25  28
ENDBRANCH  21  22
ENDBRANCH  20  21
ENDBRANCH  16  20
ENDBRANCH  12  13
ENDBRANCH   1  12
BRANCH  11  30
HETATM   30  N   UNL     1      39.965 -14.118   3.752  1.00  0.00    -0.274 NA
HETATM   31  H   UNL     1      40.177 -13.442   4.489  1.00  0.00     0.129 HD
BRANCH  30  32
HETATM   32  C   UNL     1      40.652 -15.378   4.099  1.00  0.00     0.130 C 
BRANCH  32  33
HETATM   33  C   UNL     1      42.194 -15.268   3.990  1.00  0.00     0.164 C 
BRANCH  33  34
HETATM   34  O   UNL     1      42.735 -14.705   5.195  1.00  0.00    -0.390 OA
HETATM   35  H   UNL     1      43.703 -14.681   5.049  1.00  0.00     0.210 HD
ENDBRANCH  33  34
BRANCH  33  36
HETATM   36  C   UNL     1      42.819 -16.619   3.704  1.00  0.00    -0.029 A 
HETATM   37  C   UNL     1      43.709 -17.187   4.632  1.00  0.00     0.010 A 
HETATM   38  C   UNL     1      44.321 -18.415   4.374  1.00  0.00     0.001 A 
HETATM   39  C   UNL     1      44.051 -19.094   3.188  1.00  0.00     0.000 A 
HETATM   40  C   UNL     1      43.171 -18.545   2.259  1.00  0.00     0.001 A 
HETATM   41  C   UNL     1      42.561 -17.316   2.514  1.00  0.00     0.010 A 
ENDBRANCH  33  36
ENDBRANCH  32  33
ENDBRANCH  30  32
ENDBRANCH  11  30
TORSDOF 11
ENDMDL
MODEL 10
REMARK VINA RESULT:      -8.7      4.894      6.332
REMARK  11 active torsions:
REMARK  status: ('A' for Active; 'I' for Inactive)
REMARK    1  A    between atoms: O_2  and  C_3 
REMARK    2  A    between atoms: C_6  and  C_7 
REMARK    3  A    between atoms: C_7  and  C_8 
REMARK    4  A    between atoms: C_8  and  N_9 
REMARK    5  A    between atoms: C_13  and  C_14 
REMARK    6  A    between atoms: C_14  and  C_15 
REMARK    7  A    between atoms: C_25  and  N_26 
REMARK    8  A    between atoms: N_26  and  C_27 
REMARK    9  A    between atoms: C_27  and  C_28 
REMARK   10  A    between atoms: C_28  and  O_29 
REMARK   11  A    between atoms: C_28  and  C_30 
ROOT
HETATM    1  C   UNL     1      40.623 -12.236   0.169  1.00  0.00     0.074 A 
HETATM    2  C   UNL     1      39.557 -11.893  -0.824  1.00  0.00     0.266 A 
HETATM    3  O   UNL     1      39.153 -10.730  -0.907  1.00  0.00    -0.267 OA
HETATM    4  N   UNL     1      39.080 -12.933  -1.601  1.00  0.00    -0.273 N 
HETATM    5  C   UNL     1      39.563 -14.212  -1.394  1.00  0.00     0.138 A 
HETATM    6  N   UNL     1      40.454 -14.523  -0.506  1.00  0.00    -0.218 NA
HETATM    7  C   UNL     1      38.113 -12.676  -2.566  1.00  0.00     0.102 A 
HETATM    8  C   UNL     1      37.611 -13.648  -3.338  1.00  0.00     0.018 A 
HETATM    9  C   UNL     1      38.074 -15.000  -3.174  1.00  0.00     0.005 A 
HETATM   10  C   UNL     1      39.001 -15.293  -2.255  1.00  0.00     0.051 A 
HETATM   11  C   UNL     1      40.986 -13.533   0.277  1.00  0.00     0.121 A 
ENDROOT
BRANCH   1  12
HETATM   12  C   UNL     1      41.160 -11.129   0.947  1.00  0.00     0.045 C 
BRANCH  12  13
HETATM   13  C   UNL     1      40.727 -10.672   2.126  1.00  0.00     0.077 A 
HETATM   14  S   UNL     1      39.589  -9.428   2.449  1.00  0.00    -0.055 SA
HETATM   15  C   UNL     1      39.633  -9.707   4.186  1.00  0.00     0.148 A 
HETATM   16  N   UNL     1      40.460 -10.774   4.466  1.00  0.00    -0.298 N 
HETATM   17  S   UNL     1      38.765  -8.768   5.259  1.00  0.00    -0.052 SA
HETATM   18  C   UNL     1      41.144 -11.322   3.396  1.00  0.00     0.266 A 
HETATM   19  O   UNL     1      41.969 -12.223   3.458  1.00  0.00    -0.266 OA
BRANCH  16  20
HETATM   20  C   UNL     1      40.633 -11.385   5.785  1.00  0.00     0.138 C 
BRANCH  20  21
HETATM   21  C   UNL     1      39.790 -12.650   5.971  1.00  0.00     0.059 C 
BRANCH  21  22
HETATM   22  C   UNL     1      40.656 -13.827   6.351  1.00  0.00    -0.057 A 
HETATM   23  C   UNL     1      41.996 -13.631   6.704  1.00  0.00     0.010 A 
HETATM   24  C   UNL     1      42.810 -14.721   7.020  1.00  0.00     0.037 A 
HETATM   25  C   UNL     1      42.299 -16.019   7.002  1.00  0.00     0.068 A 
HETATM   26  C   UNL     1      40.965 -16.221   6.648  1.00  0.00     0.037 A 
HETATM   27  C   UNL     1      40.148 -15.131   6.322  1.00  0.00     0.010 A 
BRANCH  25  28
HETATM   28  O   UNL     1      43.199 -16.994   7.336  1.00  0.00    -0.356 OA
HETATM   29  C   UNL     1      44.574 -16.630   7.309  1.00  0.00     0.210 C 
ENDBRANCH  25  28
ENDBRANCH  21  22
ENDBRANCH  20  21
ENDBRANCH  16  20
ENDBRANCH  12  13
ENDBRANCH   1  12
BRANCH  11  30
HETATM   30  N   UNL     1      41.944 -13.962   1.190  1.00  0.00    -0.274 NA
HETATM   31  H   UNL     1      42.833 -13.562   0.883  1.00  0.00     0.129 HD
BRANCH  30  32
HETATM   32  C   UNL     1      42.173 -15.396   1.454  1.00  0.00     0.130 C 
BRANCH  32  33
HETATM   33  C   UNL     1      43.301 -15.641   2.488  1.00  0.00     0.164 C 
BRANCH  33  34
HETATM   34  O   UNL     1      43.033 -14.906   3.692  1.00  0.00    -0.390 OA
HETATM   35  H   UNL     1      43.502 -15.399   4.397  1.00  0.00     0.210 HD
ENDBRANCH  33  34
BRANCH  33  36
HETATM   36  C   UNL     1      43.457 -17.118   2.788  1.00  0.00    -0.029 A 
HETATM   37  C   UNL     1      42.973 -18.071   1.875  1.00  0.00     0.010 A 
HETATM   38  C   UNL     1      43.077 -19.436   2.147  1.00  0.00     0.001 A 
HETATM   39  C   UNL     1      43.667 -19.869   3.332  1.00  0.00     0.000 A 
HETATM   40  C   UNL     1      44.152 -18.938   4.247  1.00  0.00     0.001 A 
HETATM   41  C   UNL     1      44.045 -17.572   3.978  1.00  0.00     0.010 A 
ENDBRANCH  33  36
ENDBRANCH  32  33
ENDBRANCH  30  32
ENDBRANCH  11  30
TORSDOF 11
ENDMDL
