MODEL 1
REMARK VINA RESULT:      -8.5      0.000      0.000
REMARK  10 active torsions:
REMARK  status: ('A' for Active; 'I' for Inactive)
REMARK    1  A    between atoms: C_3  and  C_4 
REMARK    2  A    between atoms: C_4  and  C_5 
REMARK       I    between atoms: C_5  and  N_6 
REMARK    3  A    between atoms: N_6  and  C_7 
REMARK    4  A    between atoms: C_7  and  C_8 
REMARK    5  A    between atoms: C_8  and  O_9 
REMARK    6  A    between atoms: C_15  and  N_16 
REMARK       I    between atoms: N_16  and  C_17 
REMARK    7  A    between atoms: C_17  and  C_18 
REMARK    8  A    between atoms: C_26  and  C_27 
REMARK    9  A    between atoms: C_27  and  O_28 
REMARK   10  A    between atoms: C_30  and  O_31 
ROOT
HETATM    1  C   UNL     1      40.777 -15.412   6.818  1.00  0.00     0.016 C 
HETATM    2  C   UNL     1      41.836 -14.602   5.987  1.00  0.00    -0.030 C 
HETATM    3  C   UNL     1      41.775 -15.251   4.510  1.00  0.00     0.056 C 
HETATM    4  C   UNL     1      40.841 -14.469   3.609  1.00  0.00     0.056 A 
HETATM    5  C   UNL     1      40.082 -13.389   4.005  1.00  0.00     0.012 A 
HETATM    6  S   UNL     1      39.134 -12.814   2.712  1.00  0.00    -0.055 SA
HETATM    7  C   UNL     1      39.864 -13.978   1.701  1.00  0.00     0.173 A 
HETATM    8  N   UNL     1      40.726 -14.784   2.267  1.00  0.00    -0.227 NA
HETATM    9  C   UNL     1      40.073 -12.782   5.354  1.00  0.00     0.055 C 
HETATM   10  C   UNL     1      41.410 -13.065   6.087  1.00  0.00     0.012 C 
HETATM   11  C   UNL     1      42.556 -12.009   5.802  1.00  0.00     0.008 C 
HETATM   12  C   UNL     1      42.076 -10.588   6.217  1.00  0.00     0.020 C 
HETATM   13  C   UNL     1      43.794 -12.361   6.676  1.00  0.00     0.128 C 
HETATM   14  C   UNL     1      44.272 -13.792   6.459  1.00  0.00     0.033 C 
HETATM   15  C   UNL     1      43.176 -14.821   6.741  1.00  0.00     0.013 C 
ENDROOT
BRANCH   3  16
HETATM   16  C   UNL     1      43.104 -15.556   3.789  1.00  0.00     0.114 C 
BRANCH  16  17
HETATM   17  C   UNL     1      43.530 -17.012   3.916  1.00  0.00     0.218 C 
HETATM   18  N   UNL     1      43.771 -17.664   2.737  1.00  0.00    -0.359 N 
HETATM   19  H   UNL     1      43.565 -17.201   1.847  1.00  0.00     0.162 HD
HETATM   20  O   UNL     1      43.682 -17.537   5.018  1.00  0.00    -0.274 OA
BRANCH  18  21
HETATM   21  C   UNL     1      44.343 -18.996   2.688  1.00  0.00     0.148 C 
BRANCH  21  22
HETATM   22  C   UNL     1      43.339 -20.094   2.326  1.00  0.00     0.186 C 
BRANCH  22  23
HETATM   23  O   UNL     1      43.651 -21.300   3.035  1.00  0.00    -0.394 OA
HETATM   24  C   UNL     1      43.958 -21.032   4.396  1.00  0.00     0.201 C 
ENDBRANCH  22  23
ENDBRANCH  21  22
ENDBRANCH  18  21
ENDBRANCH  16  17
ENDBRANCH   3  16
BRANCH  11  25
HETATM   25  C   UNL     1      42.969 -11.926   4.313  1.00  0.00     0.176 C 
BRANCH  25  26
HETATM   26  O   UNL     1      44.200 -11.224   4.166  1.00  0.00    -0.400 OA
HETATM   27  H   UNL     1      44.018 -10.441   3.615  1.00  0.00     0.209 HD
ENDBRANCH  25  26
ENDBRANCH  11  25
BRANCH   7  28
HETATM   28  N   UNL     1      39.464 -13.908   0.398  1.00  0.00    -0.305 N 
HETATM   29  C   UNL     1      40.127 -13.148  -0.540  1.00  0.00     0.227 C 
HETATM   30  O   UNL     1      41.122 -12.457  -0.310  1.00  0.00    -0.273 OA
HETATM   31  H   UNL     1      38.622 -14.407   0.159  1.00  0.00     0.171 HD
BRANCH  29  32
HETATM   32  C   UNL     1      39.458 -13.226  -1.945  1.00  0.00     0.078 C 
HETATM   33  C   UNL     1      39.301 -14.638  -2.574  1.00  0.00     0.014 C 
HETATM   34  C   UNL     1      37.960 -14.156  -3.159  1.00  0.00     0.002 C 
HETATM   35  C   UNL     1      37.910 -13.127  -2.012  1.00  0.00     0.014 C 
ENDBRANCH  29  32
ENDBRANCH   7  28
BRANCH  13  36
HETATM   36  O   UNL     1      43.484 -12.222   8.068  1.00  0.00    -0.395 OA
HETATM   37  H   UNL     1      43.759 -13.047   8.506  1.00  0.00     0.210 HD
ENDBRANCH  13  36
TORSDOF 10
ENDMDL
MODEL 2
REMARK VINA RESULT:      -8.3      3.012      6.953
REMARK  10 active torsions:
REMARK  status: ('A' for Active; 'I' for Inactive)
REMARK    1  A    between atoms: C_3  and  C_4 
REMARK    2  A    between atoms: C_4  and  C_5 
REMARK       I    between atoms: C_5  and  N_6 
REMARK    3  A    between atoms: N_6  and  C_7 
REMARK    4  A    between atoms: C_7  and  C_8 
REMARK    5  A    between atoms: C_8  and  O_9 
REMARK    6  A    between atoms: C_15  and  N_16 
REMARK       I    between atoms: N_16  and  C_17 
REMARK    7  A    between atoms: C_17  and  C_18 
REMARK    8  A    between atoms: C_26  and  C_27 
REMARK    9  A    between atoms: C_27  and  O_28 
REMARK   10  A    between atoms: C_30  and  O_31 
ROOT
HETATM    1  C   UNL     1      43.781 -14.305   1.882  1.00  0.00     0.016 C 
HETATM    2  C   UNL     1      42.594 -14.602   2.867  1.00  0.00    -0.030 C 
HETATM    3  C   UNL     1      43.283 -14.668   4.326  1.00  0.00     0.056 C 
HETATM    4  C   UNL     1      43.199 -13.329   5.028  1.00  0.00     0.056 A 
HETATM    5  C   UNL     1      42.672 -12.180   4.479  1.00  0.00     0.012 A 
HETATM    6  S   UNL     1      42.800 -10.878   5.570  1.00  0.00    -0.055 SA
HETATM    7  C   UNL     1      43.459 -11.950   6.722  1.00  0.00     0.173 A 
HETATM    8  N   UNL     1      43.627 -13.189   6.336  1.00  0.00    -0.227 NA
HETATM    9  C   UNL     1      42.066 -12.058   3.135  1.00  0.00     0.055 C 
HETATM   10  C   UNL     1      41.527 -13.431   2.656  1.00  0.00     0.012 C 
HETATM   11  C   UNL     1      40.045 -13.754   3.112  1.00  0.00     0.008 C 
HETATM   12  C   UNL     1      39.081 -12.653   2.585  1.00  0.00     0.020 C 
HETATM   13  C   UNL     1      39.606 -15.106   2.478  1.00  0.00     0.128 C 
HETATM   14  C   UNL     1      40.565 -16.244   2.812  1.00  0.00     0.033 C 
HETATM   15  C   UNL     1      41.997 -15.947   2.366  1.00  0.00     0.013 C 
ENDROOT
BRANCH   3  16
HETATM   16  C   UNL     1      42.876 -15.813   5.276  1.00  0.00     0.114 C 
BRANCH  16  17
HETATM   17  C   UNL     1      43.898 -16.940   5.323  1.00  0.00     0.218 C 
HETATM   18  N   UNL     1      43.568 -18.069   4.625  1.00  0.00    -0.359 N 
HETATM   19  H   UNL     1      42.640 -18.152   4.199  1.00  0.00     0.162 HD
HETATM   20  O   UNL     1      44.964 -16.807   5.922  1.00  0.00    -0.274 OA
BRANCH  18  21
HETATM   21  C   UNL     1      44.500 -19.164   4.430  1.00  0.00     0.148 C 
BRANCH  21  22
HETATM   22  C   UNL     1      43.867 -20.552   4.554  1.00  0.00     0.186 C 
BRANCH  22  23
HETATM   23  O   UNL     1      43.966 -21.252   3.308  1.00  0.00    -0.394 OA
HETATM   24  C   UNL     1      43.612 -20.412   2.218  1.00  0.00     0.201 C 
ENDBRANCH  22  23
ENDBRANCH  21  22
ENDBRANCH  18  21
ENDBRANCH  16  17
ENDBRANCH   3  16
BRANCH  11  25
HETATM   25  C   UNL     1      39.865 -13.810   4.648  1.00  0.00     0.176 C 
BRANCH  25  26
HETATM   26  O   UNL     1      39.100 -12.700   5.110  1.00  0.00    -0.400 OA
HETATM   27  H   UNL     1      39.430 -12.477   6.000  1.00  0.00     0.209 HD
ENDBRANCH  25  26
ENDBRANCH  11  25
BRANCH   7  28
HETATM   28  N   UNL     1      43.714 -11.373   7.933  1.00  0.00    -0.305 N 
HETATM   29  C   UNL     1      44.941 -10.833   8.252  1.00  0.00     0.227 C 
HETATM   30  O   UNL     1      45.920 -10.821   7.504  1.00  0.00    -0.273 OA
HETATM   31  H   UNL     1      42.969 -11.403   8.610  1.00  0.00     0.171 HD
BRANCH  29  32
HETATM   32  C   UNL     1      44.974 -10.256   9.698  1.00  0.00     0.078 C 
HETATM   33  C   UNL     1      44.470  -8.798   9.888  1.00  0.00     0.014 C 
HETATM   34  C   UNL     1      43.889  -9.246  11.243  1.00  0.00     0.002 C 
HETATM   35  C   UNL     1      43.836 -10.676  10.669  1.00  0.00     0.014 C 
ENDBRANCH  29  32
ENDBRANCH   7  28
BRANCH  13  36
HETATM   36  O   UNL     1      39.551 -14.999   1.052  1.00  0.00    -0.395 OA
HETATM   37  H   UNL     1      40.124 -15.699   0.690  1.00  0.00     0.210 HD
ENDBRANCH  13  36
TORSDOF 10
ENDMDL
MODEL 3
REMARK VINA RESULT:      -7.8      2.344      6.972
REMARK  10 active torsions:
REMARK  status: ('A' for Active; 'I' for Inactive)
REMARK    1  A    between atoms: C_3  and  C_4 
REMARK    2  A    between atoms: C_4  and  C_5 
REMARK       I    between atoms: C_5  and  N_6 
REMARK    3  A    between atoms: N_6  and  C_7 
REMARK    4  A    between atoms: C_7  and  C_8 
REMARK    5  A    between atoms: C_8  and  O_9 
REMARK    6  A    between atoms: C_15  and  N_16 
REMARK       I    between atoms: N_16  and  C_17 
REMARK    7  A    between atoms: C_17  and  C_18 
REMARK    8  A    between atoms: C_26  and  C_27 
REMARK    9  A    between atoms: C_27  and  O_28 
REMARK   10  A    between atoms: C_30  and  O_31 
ROOT
HETATM    1  C   UNL     1      39.763 -11.055   4.725  1.00  0.00     0.016 C 
HETATM    2  C   UNL     1      40.600 -11.302   3.419  1.00  0.00    -0.030 C 
HETATM    3  C   UNL     1      41.894 -12.129   3.916  1.00  0.00     0.056 C 
HETATM    4  C   UNL     1      41.680 -13.620   3.760  1.00  0.00     0.056 A 
HETATM    5  C   UNL     1      40.515 -14.210   3.321  1.00  0.00     0.012 A 
HETATM    6  S   UNL     1      40.660 -15.908   3.325  1.00  0.00    -0.055 SA
HETATM    7  C   UNL     1      42.284 -15.735   3.820  1.00  0.00     0.173 A 
HETATM    8  N   UNL     1      42.706 -14.512   4.021  1.00  0.00    -0.227 NA
HETATM    9  C   UNL     1      39.290 -13.500   2.892  1.00  0.00     0.055 C 
HETATM   10  C   UNL     1      39.635 -12.069   2.401  1.00  0.00     0.012 C 
HETATM   11  C   UNL     1      40.027 -11.973   0.869  1.00  0.00     0.008 C 
HETATM   12  C   UNL     1      38.858 -12.509  -0.007  1.00  0.00     0.020 C 
HETATM   13  C   UNL     1      40.246 -10.478   0.498  1.00  0.00     0.128 C 
HETATM   14  C   UNL     1      41.279  -9.801   1.394  1.00  0.00     0.033 C 
HETATM   15  C   UNL     1      40.905  -9.879   2.875  1.00  0.00     0.013 C 
ENDROOT
BRANCH   3  16
HETATM   16  C   UNL     1      43.279 -11.714   3.379  1.00  0.00     0.114 C 
BRANCH  16  17
HETATM   17  C   UNL     1      44.328 -11.580   4.473  1.00  0.00     0.218 C 
HETATM   18  N   UNL     1      43.924 -11.944   5.729  1.00  0.00    -0.359 N 
HETATM   19  H   UNL     1      42.944 -12.185   5.899  1.00  0.00     0.162 HD
HETATM   20  O   UNL     1      45.471 -11.207   4.217  1.00  0.00    -0.274 OA
BRANCH  18  21
HETATM   21  C   UNL     1      44.846 -12.036   6.846  1.00  0.00     0.148 C 
BRANCH  21  22
HETATM   22  C   UNL     1      44.759 -10.862   7.825  1.00  0.00     0.186 C 
BRANCH  22  23
HETATM   23  O   UNL     1      44.328 -11.323   9.111  1.00  0.00    -0.394 OA
HETATM   24  C   UNL     1      43.801 -10.257   9.889  1.00  0.00     0.201 C 
ENDBRANCH  22  23
ENDBRANCH  21  22
ENDBRANCH  18  21
ENDBRANCH  16  17
ENDBRANCH   3  16
BRANCH  11  25
HETATM   25  C   UNL     1      41.282 -12.798   0.496  1.00  0.00     0.176 C 
BRANCH  25  26
HETATM   26  O   UNL     1      40.923 -13.964  -0.241  1.00  0.00    -0.400 OA
HETATM   27  H   UNL     1      41.371 -14.718   0.183  1.00  0.00     0.209 HD
ENDBRANCH  25  26
ENDBRANCH  11  25
BRANCH   7  28
HETATM   28  N   UNL     1      42.959 -16.916   3.926  1.00  0.00    -0.305 N 
HETATM   29  C   UNL     1      43.431 -17.601   2.828  1.00  0.00     0.227 C 
HETATM   30  O   UNL     1      43.290 -17.239   1.659  1.00  0.00    -0.273 OA
HETATM   31  H   UNL     1      43.057 -17.295   4.855  1.00  0.00     0.171 HD
BRANCH  29  32
HETATM   32  C   UNL     1      44.147 -18.928   3.222  1.00  0.00     0.078 C 
HETATM   33  C   UNL     1      43.855 -19.494   4.639  1.00  0.00     0.014 C 
HETATM   34  C   UNL     1      43.933 -20.902   4.021  1.00  0.00     0.002 C 
HETATM   35  C   UNL     1      43.557 -20.256   2.673  1.00  0.00     0.014 C 
ENDBRANCH  29  32
ENDBRANCH   7  28
BRANCH  13  36
HETATM   36  O   UNL     1      39.024  -9.743   0.627  1.00  0.00    -0.395 OA
HETATM   37  H   UNL     1      39.259  -8.846   0.923  1.00  0.00     0.210 HD
ENDBRANCH  13  36
TORSDOF 10
ENDMDL
MODEL 4
REMARK VINA RESULT:      -7.3      3.026      6.778
REMARK  10 active torsions:
REMARK  status: ('A' for Active; 'I' for Inactive)
REMARK    1  A    between atoms: C_3  and  C_4 
REMARK    2  A    between atoms: C_4  and  C_5 
REMARK       I    between atoms: C_5  and  N_6 
REMARK    3  A    between atoms: N_6  and  C_7 
REMARK    4  A    between atoms: C_7  and  C_8 
REMARK    5  A    between atoms: C_8  and  O_9 
REMARK    6  A    between atoms: C_15  and  N_16 
REMARK       I    between atoms: N_16  and  C_17 
REMARK    7  A    between atoms: C_17  and  C_18 
REMARK    8  A    between atoms: C_26  and  C_27 
REMARK    9  A    between atoms: C_27  and  O_28 
REMARK   10  A    between atoms: C_30  and  O_31 
ROOT
HETATM    1  C   UNL     1      43.592 -14.218   2.231  1.00  0.00     0.016 C 
HETATM    2  C   UNL     1      42.030 -14.083   2.307  1.00  0.00    -0.030 C 
HETATM    3  C   UNL     1      41.697 -14.085   3.887  1.00  0.00     0.056 C 
HETATM    4  C   UNL     1      41.593 -12.673   4.424  1.00  0.00     0.056 A 
HETATM    5  C   UNL     1      41.820 -11.530   3.689  1.00  0.00     0.012 A 
HETATM    6  S   UNL     1      41.643 -10.143   4.663  1.00  0.00    -0.055 SA
HETATM    7  C   UNL     1      41.190 -11.153   5.962  1.00  0.00     0.173 A 
HETATM    8  N   UNL     1      41.203 -12.441   5.731  1.00  0.00    -0.227 NA
HETATM    9  C   UNL     1      42.165 -11.475   2.251  1.00  0.00     0.055 C 
HETATM   10  C   UNL     1      41.652 -12.743   1.521  1.00  0.00     0.012 C 
HETATM   11  C   UNL     1      40.161 -12.646   0.996  1.00  0.00     0.008 C 
HETATM   12  C   UNL     1      40.027 -11.444   0.016  1.00  0.00     0.020 C 
HETATM   13  C   UNL     1      39.820 -13.940   0.202  1.00  0.00     0.128 C 
HETATM   14  C   UNL     1      40.053 -15.204   1.022  1.00  0.00     0.033 C 
HETATM   15  C   UNL     1      41.493 -15.314   1.526  1.00  0.00     0.013 C 
ENDROOT
BRANCH   3  16
HETATM   16  C   UNL     1      40.522 -14.951   4.386  1.00  0.00     0.114 C 
BRANCH  16  17
HETATM   17  C   UNL     1      40.892 -15.835   5.567  1.00  0.00     0.218 C 
HETATM   18  N   UNL     1      42.210 -16.194   5.649  1.00  0.00    -0.359 N 
HETATM   19  H   UNL     1      42.853 -15.951   4.890  1.00  0.00     0.162 HD
HETATM   20  O   UNL     1      40.054 -16.161   6.406  1.00  0.00    -0.274 OA
BRANCH  18  21
HETATM   21  C   UNL     1      42.757 -16.891   6.799  1.00  0.00     0.148 C 
BRANCH  21  22
HETATM   22  C   UNL     1      43.437 -18.220   6.458  1.00  0.00     0.186 C 
BRANCH  22  23
HETATM   23  O   UNL     1      43.583 -18.349   5.039  1.00  0.00    -0.394 OA
HETATM   24  C   UNL     1      44.297 -19.530   4.701  1.00  0.00     0.201 C 
ENDBRANCH  22  23
ENDBRANCH  21  22
ENDBRANCH  18  21
ENDBRANCH  16  17
ENDBRANCH   3  16
BRANCH  11  25
HETATM   25  C   UNL     1      39.119 -12.427   2.119  1.00  0.00     0.176 C 
BRANCH  25  26
HETATM   26  O   UNL     1      37.814 -12.256   1.574  1.00  0.00    -0.400 OA
HETATM   27  H   UNL     1      37.926 -11.916   0.668  1.00  0.00     0.209 HD
ENDBRANCH  25  26
ENDBRANCH  11  25
BRANCH   7  28
HETATM   28  N   UNL     1      40.844 -10.476   7.095  1.00  0.00    -0.305 N 
HETATM   29  C   UNL     1      39.539 -10.152   7.395  1.00  0.00     0.227 C 
HETATM   30  O   UNL     1      38.567 -10.422   6.687  1.00  0.00    -0.273 OA
HETATM   31  H   UNL     1      41.602 -10.176   7.688  1.00  0.00     0.171 HD
BRANCH  29  32
HETATM   32  C   UNL     1      39.418  -9.364   8.733  1.00  0.00     0.078 C 
HETATM   33  C   UNL     1      38.957 -10.164   9.983  1.00  0.00     0.014 C 
HETATM   34  C   UNL     1      39.918  -9.293  10.814  1.00  0.00     0.002 C 
HETATM   35  C   UNL     1      40.726  -9.073   9.519  1.00  0.00     0.014 C 
ENDBRANCH  29  32
ENDBRANCH   7  28
BRANCH  13  36
HETATM   36  O   UNL     1      40.633 -14.038  -0.973  1.00  0.00    -0.395 OA
HETATM   37  H   UNL     1      41.073 -14.906  -0.944  1.00  0.00     0.210 HD
ENDBRANCH  13  36
TORSDOF 10
ENDMDL
MODEL 5
REMARK VINA RESULT:      -7.1      2.865      7.568
REMARK  10 active torsions:
REMARK  status: ('A' for Active; 'I' for Inactive)
REMARK    1  A    between atoms: C_3  and  C_4 
REMARK    2  A    between atoms: C_4  and  C_5 
REMARK       I    between atoms: C_5  and  N_6 
REMARK    3  A    between atoms: N_6  and  C_7 
REMARK    4  A    between atoms: C_7  and  C_8 
REMARK    5  A    between atoms: C_8  and  O_9 
REMARK    6  A    between atoms: C_15  and  N_16 
REMARK       I    between atoms: N_16  and  C_17 
REMARK    7  A    between atoms: C_17  and  C_18 
REMARK    8  A    between atoms: C_26  and  C_27 
REMARK    9  A    between atoms: C_27  and  O_28 
REMARK   10  A    between atoms: C_30  and  O_31 
ROOT
HETATM    1  C   UNL     1      41.441 -10.170   0.201  1.00  0.00     0.016 C 
HETATM    2  C   UNL     1      40.472 -11.093   1.024  1.00  0.00    -0.030 C 
HETATM    3  C   UNL     1      40.715 -12.573   0.425  1.00  0.00     0.056 C 
HETATM    4  C   UNL     1      41.734 -13.334   1.248  1.00  0.00     0.056 A 
HETATM    5  C   UNL     1      42.423 -12.819   2.325  1.00  0.00     0.012 A 
HETATM    6  S   UNL     1      43.505 -13.974   2.955  1.00  0.00    -0.055 SA
HETATM    7  C   UNL     1      42.917 -15.099   1.814  1.00  0.00     0.173 A 
HETATM    8  N   UNL     1      42.009 -14.662   0.979  1.00  0.00    -0.227 NA
HETATM    9  C   UNL     1      42.266 -11.460   2.887  1.00  0.00     0.055 C 
HETATM   10  C   UNL     1      40.858 -10.896   2.562  1.00  0.00     0.012 C 
HETATM   11  C   UNL     1      39.735 -11.280   3.612  1.00  0.00     0.008 C 
HETATM   12  C   UNL     1      40.139 -10.767   5.025  1.00  0.00     0.020 C 
HETATM   13  C   UNL     1      38.410 -10.567   3.215  1.00  0.00     0.128 C 
HETATM   14  C   UNL     1      37.984 -10.884   1.785  1.00  0.00     0.033 C 
HETATM   15  C   UNL     1      39.057 -10.508   0.762  1.00  0.00     0.013 C 
ENDROOT
BRANCH   3  16
HETATM   16  C   UNL     1      39.484 -13.453   0.126  1.00  0.00     0.114 C 
BRANCH  16  17
HETATM   17  C   UNL     1      39.035 -13.376  -1.326  1.00  0.00     0.218 C 
HETATM   18  N   UNL     1      37.683 -13.320  -1.527  1.00  0.00    -0.359 N 
HETATM   19  H   UNL     1      37.044 -13.430  -0.733  1.00  0.00     0.162 HD
HETATM   20  O   UNL     1      39.853 -13.327  -2.243  1.00  0.00    -0.274 OA
BRANCH  18  21
HETATM   21  C   UNL     1      37.099 -13.076  -2.833  1.00  0.00     0.148 C 
BRANCH  21  22
HETATM   22  C   UNL     1      36.498 -11.677  -2.996  1.00  0.00     0.186 C 
BRANCH  22  23
HETATM   23  O   UNL     1      37.284 -10.716  -2.281  1.00  0.00    -0.394 OA
HETATM   24  C   UNL     1      38.087  -9.948  -3.167  1.00  0.00     0.201 C 
ENDBRANCH  22  23
ENDBRANCH  21  22
ENDBRANCH  18  21
ENDBRANCH  16  17
ENDBRANCH   3  16
BRANCH  11  25
HETATM   25  C   UNL     1      39.496 -12.803   3.738  1.00  0.00     0.176 C 
BRANCH  25  26
HETATM   26  O   UNL     1      39.412 -13.192   5.107  1.00  0.00    -0.400 OA
HETATM   27  H   UNL     1      40.283 -13.552   5.355  1.00  0.00     0.209 HD
ENDBRANCH  25  26
ENDBRANCH  11  25
BRANCH   7  28
HETATM   28  N   UNL     1      43.464 -16.344   1.933  1.00  0.00    -0.305 N 
HETATM   29  C   UNL     1      42.977 -17.286   2.812  1.00  0.00     0.227 C 
HETATM   30  O   UNL     1      42.026 -17.110   3.576  1.00  0.00    -0.273 OA
HETATM   31  H   UNL     1      44.282 -16.530   1.374  1.00  0.00     0.171 HD
BRANCH  29  32
HETATM   32  C   UNL     1      43.789 -18.615   2.765  1.00  0.00     0.078 C 
HETATM   33  C   UNL     1      43.831 -19.463   4.066  1.00  0.00     0.014 C 
HETATM   34  C   UNL     1      43.798 -20.717   3.172  1.00  0.00     0.002 C 
HETATM   35  C   UNL     1      43.119 -19.846   2.096  1.00  0.00     0.014 C 
ENDBRANCH  29  32
ENDBRANCH   7  28
BRANCH  13  36
HETATM   36  O   UNL     1      38.554  -9.146   3.312  1.00  0.00    -0.395 OA
HETATM   37  H   UNL     1      38.292  -8.772   2.452  1.00  0.00     0.210 HD
ENDBRANCH  13  36
TORSDOF 10
ENDMDL
MODEL 6
REMARK VINA RESULT:      -7.0      2.763      7.397
REMARK  10 active torsions:
REMARK  status: ('A' for Active; 'I' for Inactive)
REMARK    1  A    between atoms: C_3  and  C_4 
REMARK    2  A    between atoms: C_4  and  C_5 
REMARK       I    between atoms: C_5  and  N_6 
REMARK    3  A    between atoms: N_6  and  C_7 
REMARK    4  A    between atoms: C_7  and  C_8 
REMARK    5  A    between atoms: C_8  and  O_9 
REMARK    6  A    between atoms: C_15  and  N_16 
REMARK       I    between atoms: N_16  and  C_17 
REMARK    7  A    between atoms: C_17  and  C_18 
REMARK    8  A    between atoms: C_26  and  C_27 
REMARK    9  A    between atoms: C_27  and  O_28 
REMARK   10  A    between atoms: C_30  and  O_31 
ROOT
HETATM    1  C   UNL     1      37.804 -10.683   1.747  1.00  0.00     0.016 C 
HETATM    2  C   UNL     1      39.152 -10.422   0.986  1.00  0.00    -0.030 C 
HETATM    3  C   UNL     1      40.271 -11.182   1.867  1.00  0.00     0.056 C 
HETATM    4  C   UNL     1      40.531 -12.576   1.334  1.00  0.00     0.056 A 
HETATM    5  C   UNL     1      39.858 -13.156   0.281  1.00  0.00     0.012 A 
HETATM    6  S   UNL     1      40.413 -14.745   0.015  1.00  0.00    -0.055 SA
HETATM    7  C   UNL     1      41.565 -14.515   1.253  1.00  0.00     0.173 A 
HETATM    8  N   UNL     1      41.534 -13.362   1.871  1.00  0.00    -0.227 NA
HETATM    9  C   UNL     1      38.800 -12.518  -0.533  1.00  0.00     0.055 C 
HETATM   10  C   UNL     1      38.947 -10.974  -0.500  1.00  0.00     0.012 C 
HETATM   11  C   UNL     1      39.920 -10.380  -1.600  1.00  0.00     0.008 C 
HETATM   12  C   UNL     1      39.418 -10.781  -3.017  1.00  0.00     0.020 C 
HETATM   13  C   UNL     1      39.890  -8.826  -1.513  1.00  0.00     0.128 C 
HETATM   14  C   UNL     1      40.229  -8.315  -0.117  1.00  0.00     0.033 C 
HETATM   15  C   UNL     1      39.289  -8.875   0.952  1.00  0.00     0.013 C 
ENDROOT
BRANCH   3  16
HETATM   16  C   UNL     1      41.597 -10.449   2.158  1.00  0.00     0.114 C 
BRANCH  16  17
HETATM   17  C   UNL     1      41.902 -10.335   3.644  1.00  0.00     0.218 C 
HETATM   18  N   UNL     1      42.218 -11.506   4.276  1.00  0.00    -0.359 N 
HETATM   19  H   UNL     1      42.142 -12.395   3.773  1.00  0.00     0.162 HD
HETATM   20  O   UNL     1      41.899  -9.244   4.213  1.00  0.00    -0.274 OA
BRANCH  18  21
HETATM   21  C   UNL     1      42.696 -11.547   5.646  1.00  0.00     0.148 C 
BRANCH  21  22
HETATM   22  C   UNL     1      43.438 -12.836   6.010  1.00  0.00     0.186 C 
BRANCH  22  23
HETATM   23  O   UNL     1      44.608 -12.532   6.778  1.00  0.00    -0.394 OA
HETATM   24  C   UNL     1      45.285 -11.397   6.255  1.00  0.00     0.201 C 
ENDBRANCH  22  23
ENDBRANCH  21  22
ENDBRANCH  18  21
ENDBRANCH  16  17
ENDBRANCH   3  16
BRANCH  11  25
HETATM   25  C   UNL     1      41.377 -10.886  -1.480  1.00  0.00     0.176 C 
BRANCH  25  26
HETATM   26  O   UNL     1      41.607 -11.983  -2.360  1.00  0.00    -0.400 OA
HETATM   27  H   UNL     1      40.847 -12.025  -2.968  1.00  0.00     0.209 HD
ENDBRANCH  25  26
ENDBRANCH  11  25
BRANCH   7  28
HETATM   28  N   UNL     1      42.404 -15.577   1.432  1.00  0.00    -0.305 N 
HETATM   29  C   UNL     1      42.222 -16.503   2.436  1.00  0.00     0.227 C 
HETATM   30  O   UNL     1      41.313 -16.470   3.268  1.00  0.00    -0.273 OA
HETATM   31  H   UNL     1      43.201 -15.628   0.818  1.00  0.00     0.171 HD
BRANCH  29  32
HETATM   32  C   UNL     1      43.327 -17.601   2.434  1.00  0.00     0.078 C 
HETATM   33  C   UNL     1      43.827 -18.102   3.817  1.00  0.00     0.014 C 
HETATM   34  C   UNL     1      43.954 -19.504   3.191  1.00  0.00     0.002 C 
HETATM   35  C   UNL     1      42.885 -19.067   2.169  1.00  0.00     0.014 C 
ENDBRANCH  29  32
ENDBRANCH   7  28
BRANCH  13  36
HETATM   36  O   UNL     1      38.589  -8.329  -1.845  1.00  0.00    -0.395 OA
HETATM   37  H   UNL     1      38.516  -7.438  -1.459  1.00  0.00     0.210 HD
ENDBRANCH  13  36
TORSDOF 10
ENDMDL
MODEL 7
REMARK VINA RESULT:      -7.0      2.713      7.611
REMARK  10 active torsions:
REMARK  status: ('A' for Active; 'I' for Inactive)
REMARK    1  A    between atoms: C_3  and  C_4 
REMARK    2  A    between atoms: C_4  and  C_5 
REMARK       I    between atoms: C_5  and  N_6 
REMARK    3  A    between atoms: N_6  and  C_7 
REMARK    4  A    between atoms: C_7  and  C_8 
REMARK    5  A    between atoms: C_8  and  O_9 
REMARK    6  A    between atoms: C_15  and  N_16 
REMARK       I    between atoms: N_16  and  C_17 
REMARK    7  A    between atoms: C_17  and  C_18 
REMARK    8  A    between atoms: C_26  and  C_27 
REMARK    9  A    between atoms: C_27  and  O_28 
REMARK   10  A    between atoms: C_30  and  O_31 
ROOT
HETATM    1  C   UNL     1      41.309 -12.292  -2.841  1.00  0.00     0.016 C 
HETATM    2  C   UNL     1      40.054 -12.391  -1.903  1.00  0.00    -0.030 C 
HETATM    3  C   UNL     1      40.615 -13.054  -0.541  1.00  0.00     0.056 C 
HETATM    4  C   UNL     1      40.976 -11.990   0.474  1.00  0.00     0.056 A 
HETATM    5  C   UNL     1      40.908 -10.632   0.253  1.00  0.00     0.012 A 
HETATM    6  S   UNL     1      41.438  -9.772   1.626  1.00  0.00    -0.055 SA
HETATM    7  C   UNL     1      41.631 -11.258   2.442  1.00  0.00     0.173 A 
HETATM    8  N   UNL     1      41.371 -12.340   1.753  1.00  0.00    -0.227 NA
HETATM    9  C   UNL     1      40.439  -9.976  -0.987  1.00  0.00     0.055 C 
HETATM   10  C   UNL     1      39.474 -10.908  -1.764  1.00  0.00     0.012 C 
HETATM   11  C   UNL     1      37.955 -10.797  -1.328  1.00  0.00     0.008 C 
HETATM   12  C   UNL     1      37.460  -9.333  -1.519  1.00  0.00     0.020 C 
HETATM   13  C   UNL     1      37.097 -11.707  -2.255  1.00  0.00     0.128 C 
HETATM   14  C   UNL     1      37.583 -13.152  -2.262  1.00  0.00     0.033 C 
HETATM   15  C   UNL     1      39.046 -13.273  -2.690  1.00  0.00     0.013 C 
ENDROOT
BRANCH   3  16
HETATM   16  C   UNL     1      39.794 -14.184   0.115  1.00  0.00     0.114 C 
BRANCH  16  17
HETATM   17  C   UNL     1      40.659 -15.211   0.830  1.00  0.00     0.218 C 
HETATM   18  N   UNL     1      42.010 -15.040   0.703  1.00  0.00    -0.359 N 
HETATM   19  H   UNL     1      42.376 -14.320   0.074  1.00  0.00     0.162 HD
HETATM   20  O   UNL     1      40.156 -16.106   1.508  1.00  0.00    -0.274 OA
BRANCH  18  21
HETATM   21  C   UNL     1      42.969 -15.828   1.456  1.00  0.00     0.148 C 
BRANCH  21  22
HETATM   22  C   UNL     1      43.195 -15.334   2.887  1.00  0.00     0.186 C 
BRANCH  22  23
HETATM   23  O   UNL     1      43.504 -16.438   3.746  1.00  0.00    -0.394 OA
HETATM   24  C   UNL     1      43.450 -16.056   5.114  1.00  0.00     0.201 C 
ENDBRANCH  22  23
ENDBRANCH  21  22
ENDBRANCH  18  21
ENDBRANCH  16  17
ENDBRANCH   3  16
BRANCH  11  25
HETATM   25  C   UNL     1      37.704 -11.167   0.153  1.00  0.00     0.176 C 
BRANCH  25  26
HETATM   26  O   UNL     1      37.458 -10.000   0.933  1.00  0.00    -0.400 OA
HETATM   27  H   UNL     1      38.261  -9.449   0.882  1.00  0.00     0.209 HD
ENDBRANCH  25  26
ENDBRANCH  11  25
BRANCH   7  28
HETATM   28  N   UNL     1      42.022 -11.127   3.743  1.00  0.00    -0.305 N 
HETATM   29  C   UNL     1      43.335 -11.258   4.139  1.00  0.00     0.227 C 
HETATM   30  O   UNL     1      44.275 -11.512   3.384  1.00  0.00    -0.273 OA
HETATM   31  H   UNL     1      41.289 -10.975   4.419  1.00  0.00     0.171 HD
BRANCH  29  32
HETATM   32  C   UNL     1      43.509 -11.082   5.677  1.00  0.00     0.078 C 
HETATM   33  C   UNL     1      43.213 -12.322   6.567  1.00  0.00     0.014 C 
HETATM   34  C   UNL     1      44.368 -11.862   7.477  1.00  0.00     0.002 C 
HETATM   35  C   UNL     1      44.952 -11.133   6.250  1.00  0.00     0.014 C 
ENDBRANCH  29  32
ENDBRANCH   7  28
BRANCH  13  36
HETATM   36  O   UNL     1      37.143 -11.236  -3.606  1.00  0.00    -0.395 OA
HETATM   37  H   UNL     1      36.455 -11.716  -4.100  1.00  0.00     0.210 HD
ENDBRANCH  13  36
TORSDOF 10
ENDMDL
MODEL 8
REMARK VINA RESULT:      -6.9      2.592      5.836
REMARK  10 active torsions:
REMARK  status: ('A' for Active; 'I' for Inactive)
REMARK    1  A    between atoms: C_3  and  C_4 
REMARK    2  A    between atoms: C_4  and  C_5 
REMARK       I    between atoms: C_5  and  N_6 
REMARK    3  A    between atoms: N_6  and  C_7 
REMARK    4  A    between atoms: C_7  and  C_8 
REMARK    5  A    between atoms: C_8  and  O_9 
REMARK    6  A    between atoms: C_15  and  N_16 
REMARK       I    between atoms: N_16  and  C_17 
REMARK    7  A    between atoms: C_17  and  C_18 
REMARK    8  A    between atoms: C_26  and  C_27 
REMARK    9  A    between atoms: C_27  and  O_28 
REMARK   10  A    between atoms: C_30  and  O_31 
ROOT
HETATM    1  C   UNL     1      43.591 -12.391   4.849  1.00  0.00     0.016 C 
HETATM    2  C   UNL     1      42.454 -13.467   4.978  1.00  0.00    -0.030 C 
HETATM    3  C   UNL     1      41.098 -12.673   4.609  1.00  0.00     0.056 C 
HETATM    4  C   UNL     1      40.748 -12.843   3.146  1.00  0.00     0.056 A 
HETATM    5  C   UNL     1      41.514 -13.524   2.224  1.00  0.00     0.012 A 
HETATM    6  S   UNL     1      40.799 -13.453   0.678  1.00  0.00    -0.055 SA
HETATM    7  C   UNL     1      39.484 -12.606   1.360  1.00  0.00     0.173 A 
HETATM    8  N   UNL     1      39.563 -12.339   2.639  1.00  0.00    -0.227 NA
HETATM    9  C   UNL     1      42.781 -14.234   2.502  1.00  0.00     0.055 C 
HETATM   10  C   UNL     1      42.848 -14.662   3.991  1.00  0.00     0.012 C 
HETATM   11  C   UNL     1      42.186 -16.066   4.306  1.00  0.00     0.008 C 
HETATM   12  C   UNL     1      42.878 -17.174   3.459  1.00  0.00     0.020 C 
HETATM   13  C   UNL     1      42.417 -16.408   5.806  1.00  0.00     0.128 C 
HETATM   14  C   UNL     1      41.903 -15.315   6.738  1.00  0.00     0.033 C 
HETATM   15  C   UNL     1      42.544 -13.956   6.450  1.00  0.00     0.013 C 
ENDROOT
BRANCH   3  16
HETATM   16  C   UNL     1      39.857 -12.890   5.500  1.00  0.00     0.114 C 
BRANCH  16  17
HETATM   17  C   UNL     1      39.546 -11.696   6.390  1.00  0.00     0.218 C 
HETATM   18  N   UNL     1      40.626 -10.958   6.792  1.00  0.00    -0.359 N 
HETATM   19  H   UNL     1      41.573 -11.280   6.574  1.00  0.00     0.162 HD
HETATM   20  O   UNL     1      38.387 -11.405   6.683  1.00  0.00    -0.274 OA
BRANCH  18  21
HETATM   21  C   UNL     1      40.488  -9.699   7.500  1.00  0.00     0.148 C 
BRANCH  21  22
HETATM   22  C   UNL     1      41.809  -8.955   7.713  1.00  0.00     0.186 C 
BRANCH  22  23
HETATM   23  O   UNL     1      42.894  -9.707   7.156  1.00  0.00    -0.394 OA
HETATM   24  C   UNL     1      43.739 -10.223   8.176  1.00  0.00     0.201 C 
ENDBRANCH  22  23
ENDBRANCH  21  22
ENDBRANCH  18  21
ENDBRANCH  16  17
ENDBRANCH   3  16
BRANCH  11  25
HETATM   25  C   UNL     1      40.675 -16.128   3.978  1.00  0.00     0.176 C 
BRANCH  25  26
HETATM   26  O   UNL     1      39.923 -16.521   5.123  1.00  0.00    -0.400 OA
HETATM   27  H   UNL     1      39.735 -17.473   5.027  1.00  0.00     0.209 HD
ENDBRANCH  25  26
ENDBRANCH  11  25
BRANCH   7  28
HETATM   28  N   UNL     1      38.487 -12.325   0.473  1.00  0.00    -0.305 N 
HETATM   29  C   UNL     1      38.458 -11.163  -0.266  1.00  0.00     0.227 C 
HETATM   30  O   UNL     1      39.302 -10.267  -0.202  1.00  0.00    -0.273 OA
HETATM   31  H   UNL     1      37.735 -12.995   0.415  1.00  0.00     0.171 HD
BRANCH  29  32
HETATM   32  C   UNL     1      37.206 -11.080  -1.189  1.00  0.00     0.078 C 
HETATM   33  C   UNL     1      36.984  -9.748  -1.959  1.00  0.00     0.014 C 
HETATM   34  C   UNL     1      36.449 -10.592  -3.131  1.00  0.00     0.002 C 
HETATM   35  C   UNL     1      37.289 -11.761  -2.582  1.00  0.00     0.014 C 
ENDBRANCH  29  32
ENDBRANCH   7  28
BRANCH  13  36
HETATM   36  O   UNL     1      43.814 -16.575   6.075  1.00  0.00    -0.395 OA
HETATM   37  H   UNL     1      44.279 -16.517   5.222  1.00  0.00     0.210 HD
ENDBRANCH  13  36
TORSDOF 10
ENDMDL
MODEL 9
REMARK VINA RESULT:      -6.9      3.041      7.088
REMARK  10 active torsions:
REMARK  status: ('A' for Active; 'I' for Inactive)
REMARK    1  A    between atoms: C_3  and  C_4 
REMARK    2  A    between atoms: C_4  and  C_5 
REMARK       I    between atoms: C_5  and  N_6 
REMARK    3  A    between atoms: N_6  and  C_7 
REMARK    4  A    between atoms: C_7  and  C_8 
REMARK    5  A    between atoms: C_8  and  O_9 
REMARK    6  A    between atoms: C_15  and  N_16 
REMARK       I    between atoms: N_16  and  C_17 
REMARK    7  A    between atoms: C_17  and  C_18 
REMARK    8  A    between atoms: C_26  and  C_27 
REMARK    9  A    between atoms: C_27  and  O_28 
REMARK   10  A    between atoms: C_30  and  O_31 
ROOT
HETATM    1  C   UNL     1      39.463 -11.125   6.771  1.00  0.00     0.016 C 
HETATM    2  C   UNL     1      40.522 -10.864   5.641  1.00  0.00    -0.030 C 
HETATM    3  C   UNL     1      41.689 -11.945   5.920  1.00  0.00     0.056 C 
HETATM    4  C   UNL     1      41.484 -13.195   5.091  1.00  0.00     0.056 A 
HETATM    5  C   UNL     1      40.410 -13.423   4.259  1.00  0.00     0.012 A 
HETATM    6  S   UNL     1      40.525 -14.963   3.536  1.00  0.00    -0.055 SA
HETATM    7  C   UNL     1      42.032 -15.176   4.306  1.00  0.00     0.173 A 
HETATM    8  N   UNL     1      42.430 -14.205   5.090  1.00  0.00    -0.227 NA
HETATM    9  C   UNL     1      39.297 -12.484   3.999  1.00  0.00     0.055 C 
HETATM   10  C   UNL     1      39.749 -11.023   4.251  1.00  0.00     0.012 C 
HETATM   11  C   UNL     1      40.419 -10.314   3.002  1.00  0.00     0.008 C 
HETATM   12  C   UNL     1      39.422 -10.305   1.807  1.00  0.00     0.020 C 
HETATM   13  C   UNL     1      40.726  -8.833   3.368  1.00  0.00     0.128 C 
HETATM   14  C   UNL     1      41.587  -8.710   4.621  1.00  0.00     0.033 C 
HETATM   15  C   UNL     1      40.946  -9.382   5.836  1.00  0.00     0.013 C 
ENDROOT
BRANCH   3  16
HETATM   16  C   UNL     1      43.156 -11.473   5.848  1.00  0.00     0.114 C 
BRANCH  16  17
HETATM   17  C   UNL     1      43.839 -11.436   7.207  1.00  0.00     0.218 C 
HETATM   18  N   UNL     1      43.232 -10.659   8.155  1.00  0.00    -0.359 N 
HETATM   19  H   UNL     1      42.432 -10.072   7.898  1.00  0.00     0.162 HD
HETATM   20  O   UNL     1      44.847 -12.104   7.431  1.00  0.00    -0.274 OA
BRANCH  18  21
HETATM   21  C   UNL     1      43.657 -10.648   9.542  1.00  0.00     0.148 C 
BRANCH  21  22
HETATM   22  C   UNL     1      42.986  -9.566  10.393  1.00  0.00     0.186 C 
BRANCH  22  23
HETATM   23  O   UNL     1      43.467  -8.272  10.012  1.00  0.00    -0.394 OA
HETATM   24  C   UNL     1      42.759  -7.241  10.688  1.00  0.00     0.201 C 
ENDBRANCH  22  23
ENDBRANCH  21  22
ENDBRANCH  18  21
ENDBRANCH  16  17
ENDBRANCH   3  16
BRANCH  11  25
HETATM   25  C   UNL     1      41.707 -11.012   2.507  1.00  0.00     0.176 C 
BRANCH  25  26
HETATM   26  O   UNL     1      41.470 -11.709   1.286  1.00  0.00    -0.400 OA
HETATM   27  H   UNL     1      42.001 -12.525   1.316  1.00  0.00     0.209 HD
ENDBRANCH  25  26
ENDBRANCH  11  25
BRANCH   7  28
HETATM   28  N   UNL     1      42.657 -16.346   3.986  1.00  0.00    -0.305 N 
HETATM   29  C   UNL     1      43.374 -16.509   2.821  1.00  0.00     0.227 C 
HETATM   30  O   UNL     1      43.519 -15.641   1.957  1.00  0.00    -0.273 OA
HETATM   31  H   UNL     1      42.528 -17.114   4.627  1.00  0.00     0.171 HD
BRANCH  29  32
HETATM   32  C   UNL     1      43.970 -17.942   2.688  1.00  0.00     0.078 C 
HETATM   33  C   UNL     1      44.153 -18.754   4.000  1.00  0.00     0.014 C 
HETATM   34  C   UNL     1      43.770 -20.012   3.198  1.00  0.00     0.002 C 
HETATM   35  C   UNL     1      43.016 -19.079   2.229  1.00  0.00     0.014 C 
ENDBRANCH  29  32
ENDBRANCH   7  28
BRANCH  13  36
HETATM   36  O   UNL     1      39.513  -8.112   3.612  1.00  0.00    -0.395 OA
HETATM   37  H   UNL     1      39.750  -7.316   4.120  1.00  0.00     0.210 HD
ENDBRANCH  13  36
TORSDOF 10
ENDMDL
MODEL 10
REMARK VINA RESULT:      -6.7      6.136      8.936
REMARK  10 active torsions:
REMARK  status: ('A' for Active; 'I' for Inactive)
REMARK    1  A    between atoms: C_3  and  C_4 
REMARK    2  A    between atoms: C_4  and  C_5 
REMARK       I    between atoms: C_5  and  N_6 
REMARK    3  A    between atoms: N_6  and  C_7 
REMARK    4  A    between atoms: C_7  and  C_8 
REMARK    5  A    between atoms: C_8  and  O_9 
REMARK    6  A    between atoms: C_15  and  N_16 
REMARK       I    between atoms: N_16  and  C_17 
REMARK    7  A    between atoms: C_17  and  C_18 
REMARK    8  A    between atoms: C_26  and  C_27 
REMARK    9  A    between atoms: C_27  and  O_28 
REMARK   10  A    between atoms: C_30  and  O_31 
ROOT
HETATM    1  C   UNL     1      40.431 -10.079  13.267  1.00  0.00     0.016 C 
HETATM    2  C   UNL     1      41.320  -8.857  12.838  1.00  0.00    -0.030 C 
HETATM    3  C   UNL     1      42.172  -9.398  11.578  1.00  0.00     0.056 C 
HETATM    4  C   UNL     1      41.497  -9.043  10.270  1.00  0.00     0.056 A 
HETATM    5  C   UNL     1      40.279  -8.407  10.157  1.00  0.00     0.012 A 
HETATM    6  S   UNL     1      39.844  -8.227   8.519  1.00  0.00    -0.055 SA
HETATM    7  C   UNL     1      41.340  -8.921   8.079  1.00  0.00     0.173 A 
HETATM    8  N   UNL     1      42.113  -9.312   9.060  1.00  0.00    -0.227 NA
HETATM    9  C   UNL     1      39.442  -7.928  11.278  1.00  0.00     0.055 C 
HETATM   10  C   UNL     1      40.316  -7.653  12.530  1.00  0.00     0.012 C 
HETATM   11  C   UNL     1      40.940  -6.198  12.593  1.00  0.00     0.008 C 
HETATM   12  C   UNL     1      39.802  -5.137  12.563  1.00  0.00     0.020 C 
HETATM   13  C   UNL     1      41.700  -6.034  13.940  1.00  0.00     0.128 C 
HETATM   14  C   UNL     1      42.755  -7.115  14.149  1.00  0.00     0.033 C 
HETATM   15  C   UNL     1      42.162  -8.524  14.100  1.00  0.00     0.013 C 
ENDROOT
BRANCH   3  16
HETATM   16  C   UNL     1      43.680  -9.075  11.522  1.00  0.00     0.114 C 
BRANCH  16  17
HETATM   17  C   UNL     1      44.481 -10.104  10.736  1.00  0.00     0.218 C 
HETATM   18  N   UNL     1      44.952  -9.687   9.521  1.00  0.00    -0.359 N 
HETATM   19  H   UNL     1      44.674  -8.772   9.153  1.00  0.00     0.162 HD
HETATM   20  O   UNL     1      44.714 -11.219  11.201  1.00  0.00    -0.274 OA
BRANCH  18  21
HETATM   21  C   UNL     1      45.869 -10.483   8.727  1.00  0.00     0.148 C 
BRANCH  21  22
HETATM   22  C   UNL     1      45.259 -11.036   7.436  1.00  0.00     0.186 C 
BRANCH  22  23
HETATM   23  O   UNL     1      44.169 -11.913   7.742  1.00  0.00    -0.394 OA
HETATM   24  C   UNL     1      44.067 -12.959   6.786  1.00  0.00     0.201 C 
ENDBRANCH  22  23
ENDBRANCH  21  22
ENDBRANCH  18  21
ENDBRANCH  16  17
ENDBRANCH   3  16
BRANCH  11  25
HETATM   25  C   UNL     1      41.886  -5.876  11.411  1.00  0.00     0.176 C 
BRANCH  25  26
HETATM   26  O   UNL     1      42.422  -4.561  11.535  1.00  0.00    -0.400 OA
HETATM   27  H   UNL     1      42.627  -4.425  12.478  1.00  0.00     0.209 HD
ENDBRANCH  25  26
ENDBRANCH  11  25
BRANCH   7  28
HETATM   28  N   UNL     1      41.555  -8.963   6.732  1.00  0.00    -0.305 N 
HETATM   29  C   UNL     1      41.360 -10.105   5.987  1.00  0.00     0.227 C 
HETATM   30  O   UNL     1      40.990 -11.189   6.443  1.00  0.00    -0.273 OA
HETATM   31  H   UNL     1      41.914  -8.122   6.308  1.00  0.00     0.171 HD
BRANCH  29  32
HETATM   32  C   UNL     1      41.694  -9.892   4.480  1.00  0.00     0.078 C 
HETATM   33  C   UNL     1      42.780 -10.815   3.860  1.00  0.00     0.014 C 
HETATM   34  C   UNL     1      41.951 -10.808   2.562  1.00  0.00     0.002 C 
HETATM   35  C   UNL     1      40.718 -10.496   3.433  1.00  0.00     0.014 C 
ENDBRANCH  29  32
ENDBRANCH   7  28
BRANCH  13  36
HETATM   36  O   UNL     1      40.791  -6.108  15.044  1.00  0.00    -0.395 OA
HETATM   37  H   UNL     1      41.089  -6.839  15.612  1.00  0.00     0.210 HD
ENDBRANCH  13  36
TORSDOF 10
ENDMDL
