MODEL 1
REMARK VINA RESULT:      -9.3      0.000      0.000
REMARK  4 active torsions:
REMARK  status: ('A' for Active; 'I' for Inactive)
REMARK    1  A    between atoms: C_5  and  C_6 
REMARK    2  A    between atoms: C_10  and  C_11 
REMARK       I    between atoms: C_11  and  N_12 
REMARK    3  A    between atoms: N_12  and  N_13 
REMARK       I    between atoms: N_13  and  C_14 
REMARK       I    between atoms: C_14  and  N_15 
REMARK    4  A    between atoms: N_15  and  C_16 
ROOT
HETATM    1  C   UNL     1      42.772 -12.408   6.603  1.00  0.00     0.288 C 
HETATM    2  N   UNL     1      43.535 -11.866   7.614  1.00  0.00    -0.261 N 
HETATM    3  O   UNL     1      41.839 -11.792   6.089  1.00  0.00    -0.264 OA
HETATM    4  H   UNL     1      44.266 -12.372   8.109  1.00  0.00     0.190 HD
ENDROOT
BRANCH   1   5
HETATM    5  C   UNL     1      43.131 -13.741   6.206  1.00  0.00     0.121 A 
HETATM    6  N   UNL     1      44.017 -14.492   6.923  1.00  0.00    -0.272 N 
HETATM    7  N   UNL     1      44.271 -15.697   6.393  1.00  0.00    -0.174 NA
HETATM    8  H   UNL     1      44.490 -14.225   7.781  1.00  0.00     0.189 HD
HETATM    9  C   UNL     1      43.523 -15.747   5.280  1.00  0.00     0.089 A 
HETATM   10  C   UNL     1      42.777 -14.541   5.137  1.00  0.00     0.071 A 
BRANCH   9  11
HETATM   11  C   UNL     1      43.556 -16.904   4.376  1.00  0.00    -0.006 A 
HETATM   12  C   UNL     1      44.246 -18.076   4.718  1.00  0.00     0.014 A 
HETATM   13  C   UNL     1      44.238 -19.186   3.865  1.00  0.00     0.007 A 
HETATM   14  C   UNL     1      43.551 -19.144   2.649  1.00  0.00    -0.062 A 
HETATM   15  C   UNL     1      43.498 -20.347   1.756  1.00  0.00     0.048 C 
HETATM   16  C   UNL     1      42.861 -17.978   2.302  1.00  0.00     0.007 A 
HETATM   17  C   UNL     1      42.871 -16.869   3.154  1.00  0.00     0.014 A 
ENDBRANCH   9  11
ENDBRANCH   1   5
BRANCH   2  18
HETATM   18  N   UNL     1      43.173 -10.620   8.158  1.00  0.00    -0.249 N 
HETATM   19  C   UNL     1      43.210 -10.528   9.541  1.00  0.00     0.339 C 
HETATM   20  N   UNL     1      42.707  -9.318   9.975  1.00  0.00    -0.306 N 
HETATM   21  O   UNL     1      43.705 -11.411  10.235  1.00  0.00    -0.245 OA
HETATM   22  H   UNL     1      42.923  -8.560   9.342  1.00  0.00     0.171 HD
HETATM   23  H   UNL     1      42.421 -10.146   7.664  1.00  0.00     0.192 HD
BRANCH  20  24
HETATM   24  C   UNL     1      42.538  -8.970  11.337  1.00  0.00     0.058 A 
HETATM   25  C   UNL     1      41.442  -9.340  12.138  1.00  0.00     0.060 A 
HETATM   26 CL   UNL     1      40.015 -10.094  11.512  1.00  0.00    -0.082 Cl
HETATM   27  C   UNL     1      41.403  -8.966  13.488  1.00  0.00     0.026 A 
HETATM   28  C   UNL     1      42.429  -8.201  14.041  1.00  0.00     0.002 A 
HETATM   29  C   UNL     1      43.487  -7.783  13.241  1.00  0.00     0.002 A 
HETATM   30  C   UNL     1      43.536  -8.156  11.895  1.00  0.00     0.031 A 
ENDBRANCH  20  24
ENDBRANCH   2  18
TORSDOF 4
ENDMDL
MODEL 2
REMARK VINA RESULT:      -8.7      2.728     10.641
REMARK  4 active torsions:
REMARK  status: ('A' for Active; 'I' for Inactive)
REMARK    1  A    between atoms: C_5  and  C_6 
REMARK    2  A    between atoms: C_10  and  C_11 
REMARK       I    between atoms: C_11  and  N_12 
REMARK    3  A    between atoms: N_12  and  N_13 
REMARK       I    between atoms: N_13  and  C_14 
REMARK       I    between atoms: C_14  and  N_15 
REMARK    4  A    between atoms: N_15  and  C_16 
ROOT
HETATM    1  C   UNL     1      44.405 -11.149   8.261  1.00  0.00     0.288 C 
HETATM    2  N   UNL     1      43.447 -12.056   7.864  1.00  0.00    -0.261 N 
HETATM    3  O   UNL     1      45.538 -11.145   7.780  1.00  0.00    -0.264 OA
HETATM    4  H   UNL     1      42.526 -12.134   8.289  1.00  0.00     0.190 HD
ENDROOT
BRANCH   1   5
HETATM    5  C   UNL     1      43.994 -10.225   9.281  1.00  0.00     0.121 A 
HETATM    6  N   UNL     1      44.045  -8.873   9.093  1.00  0.00    -0.272 N 
HETATM    7  N   UNL     1      43.663  -8.155  10.158  1.00  0.00    -0.174 NA
HETATM    8  H   UNL     1      44.346  -8.385   8.255  1.00  0.00     0.189 HD
HETATM    9  C   UNL     1      43.345  -9.067  11.091  1.00  0.00     0.089 A 
HETATM   10  C   UNL     1      43.523 -10.381  10.570  1.00  0.00     0.071 A 
BRANCH   9  11
HETATM   11  C   UNL     1      42.918  -8.676  12.441  1.00  0.00    -0.006 A 
HETATM   12  C   UNL     1      43.491  -7.578  13.097  1.00  0.00     0.014 A 
HETATM   13  C   UNL     1      43.048  -7.192  14.367  1.00  0.00     0.007 A 
HETATM   14  C   UNL     1      42.032  -7.903  15.013  1.00  0.00    -0.062 A 
HETATM   15  C   UNL     1      41.520  -7.464  16.352  1.00  0.00     0.048 C 
HETATM   16  C   UNL     1      41.457  -8.999  14.364  1.00  0.00     0.007 A 
HETATM   17  C   UNL     1      41.901  -9.385  13.095  1.00  0.00     0.014 A 
ENDBRANCH   9  11
ENDBRANCH   1   5
BRANCH   2  18
HETATM   18  N   UNL     1      43.800 -13.081   6.968  1.00  0.00    -0.249 N 
HETATM   19  C   UNL     1      42.904 -13.320   5.935  1.00  0.00     0.339 C 
HETATM   20  N   UNL     1      43.272 -14.429   5.202  1.00  0.00    -0.306 N 
HETATM   21  O   UNL     1      41.965 -12.564   5.708  1.00  0.00    -0.245 OA
HETATM   22  H   UNL     1      44.275 -14.529   5.127  1.00  0.00     0.171 HD
HETATM   23  H   UNL     1      44.260 -13.879   7.399  1.00  0.00     0.192 HD
BRANCH  20  24
HETATM   24  C   UNL     1      42.507 -14.967   4.138  1.00  0.00     0.058 A 
HETATM   25  C   UNL     1      41.279 -15.641   4.284  1.00  0.00     0.060 A 
HETATM   26 CL   UNL     1      40.625 -16.111   5.816  1.00  0.00    -0.082 Cl
HETATM   27  C   UNL     1      40.594 -16.099   3.151  1.00  0.00     0.026 A 
HETATM   28  C   UNL     1      41.133 -15.922   1.877  1.00  0.00     0.002 A 
HETATM   29  C   UNL     1      42.373 -15.309   1.730  1.00  0.00     0.002 A 
HETATM   30  C   UNL     1      43.060 -14.844   2.855  1.00  0.00     0.031 A 
ENDBRANCH  20  24
ENDBRANCH   2  18
TORSDOF 4
ENDMDL
MODEL 3
REMARK VINA RESULT:      -8.6      1.819      2.426
REMARK  4 active torsions:
REMARK  status: ('A' for Active; 'I' for Inactive)
REMARK    1  A    between atoms: C_5  and  C_6 
REMARK    2  A    between atoms: C_10  and  C_11 
REMARK       I    between atoms: C_11  and  N_12 
REMARK    3  A    between atoms: N_12  and  N_13 
REMARK       I    between atoms: N_13  and  C_14 
REMARK       I    between atoms: C_14  and  N_15 
REMARK    4  A    between atoms: N_15  and  C_16 
ROOT
HETATM    1  C   UNL     1      44.055 -11.321   7.991  1.00  0.00     0.288 C 
HETATM    2  N   UNL     1      43.111 -10.448   8.484  1.00  0.00    -0.261 N 
HETATM    3  O   UNL     1      45.245 -11.234   8.296  1.00  0.00    -0.264 OA
HETATM    4  H   UNL     1      42.134 -10.447   8.198  1.00  0.00     0.190 HD
ENDROOT
BRANCH   1   5
HETATM    5  C   UNL     1      43.559 -12.323   7.090  1.00  0.00     0.121 A 
HETATM    6  N   UNL     1      42.252 -12.353   6.695  1.00  0.00    -0.272 N 
HETATM    7  N   UNL     1      41.947 -13.375   5.884  1.00  0.00    -0.174 NA
HETATM    8  H   UNL     1      41.519 -11.702   6.960  1.00  0.00     0.189 HD
HETATM    9  C   UNL     1      43.097 -14.051   5.734  1.00  0.00     0.089 A 
HETATM   10  C   UNL     1      44.139 -13.409   6.463  1.00  0.00     0.071 A 
BRANCH   9  11
HETATM   11  C   UNL     1      43.173 -15.286   4.943  1.00  0.00    -0.006 A 
HETATM   12  C   UNL     1      42.853 -15.297   3.578  1.00  0.00     0.014 A 
HETATM   13  C   UNL     1      42.966 -16.472   2.826  1.00  0.00     0.007 A 
HETATM   14  C   UNL     1      43.390 -17.662   3.424  1.00  0.00    -0.062 A 
HETATM   15  C   UNL     1      43.560 -18.911   2.613  1.00  0.00     0.048 C 
HETATM   16  C   UNL     1      43.710 -17.658   4.785  1.00  0.00     0.007 A 
HETATM   17  C   UNL     1      43.595 -16.483   5.537  1.00  0.00     0.014 A 
ENDBRANCH   9  11
ENDBRANCH   1   5
BRANCH   2  18
HETATM   18  N   UNL     1      43.524  -9.355   9.267  1.00  0.00    -0.249 N 
HETATM   19  C   UNL     1      42.812  -9.143  10.439  1.00  0.00     0.339 C 
HETATM   20  N   UNL     1      43.204  -7.973  11.056  1.00  0.00    -0.306 N 
HETATM   21  O   UNL     1      42.002  -9.963  10.859  1.00  0.00    -0.245 OA
HETATM   22  H   UNL     1      44.190  -7.787  10.942  1.00  0.00     0.171 HD
HETATM   23  H   UNL     1      43.825  -8.543   8.734  1.00  0.00     0.192 HD
BRANCH  20  24
HETATM   24  C   UNL     1      42.597  -7.451  12.225  1.00  0.00     0.058 A 
HETATM   25  C   UNL     1      41.353  -6.795  12.267  1.00  0.00     0.060 A 
HETATM   26 CL   UNL     1      40.473  -6.327  10.851  1.00  0.00    -0.082 Cl
HETATM   27  C   UNL     1      40.836  -6.351  13.492  1.00  0.00     0.026 A 
HETATM   28  C   UNL     1      41.561  -6.525  14.671  1.00  0.00     0.002 A 
HETATM   29  C   UNL     1      42.817  -7.122  14.628  1.00  0.00     0.002 A 
HETATM   30  C   UNL     1      43.336  -7.571  13.411  1.00  0.00     0.031 A 
ENDBRANCH  20  24
ENDBRANCH   2  18
TORSDOF 4
ENDMDL
MODEL 4
REMARK VINA RESULT:      -8.6      2.098      2.574
REMARK  4 active torsions:
REMARK  status: ('A' for Active; 'I' for Inactive)
REMARK    1  A    between atoms: C_5  and  C_6 
REMARK    2  A    between atoms: C_10  and  C_11 
REMARK       I    between atoms: C_11  and  N_12 
REMARK    3  A    between atoms: N_12  and  N_13 
REMARK       I    between atoms: N_13  and  C_14 
REMARK       I    between atoms: C_14  and  N_15 
REMARK    4  A    between atoms: N_15  and  C_16 
ROOT
HETATM    1  C   UNL     1      42.527 -12.097   4.740  1.00  0.00     0.288 C 
HETATM    2  N   UNL     1      43.529 -11.556   5.514  1.00  0.00    -0.261 N 
HETATM    3  O   UNL     1      41.433 -11.548   4.612  1.00  0.00    -0.264 OA
HETATM    4  H   UNL     1      44.417 -12.017   5.698  1.00  0.00     0.190 HD
ENDROOT
BRANCH   1   5
HETATM    5  C   UNL     1      42.842 -13.348   4.108  1.00  0.00     0.121 A 
HETATM    6  N   UNL     1      43.087 -13.438   2.768  1.00  0.00    -0.272 N 
HETATM    7  N   UNL     1      43.326 -14.683   2.335  1.00  0.00    -0.174 NA
HETATM    8  H   UNL     1      43.091 -12.676   2.097  1.00  0.00     0.189 HD
HETATM    9  C   UNL     1      43.236 -15.452   3.433  1.00  0.00     0.089 A 
HETATM   10  C   UNL     1      42.951 -14.645   4.571  1.00  0.00     0.071 A 
BRANCH   9  11
HETATM   11  C   UNL     1      43.389 -16.911   3.370  1.00  0.00    -0.006 A 
HETATM   12  C   UNL     1      42.953 -17.643   2.258  1.00  0.00     0.014 A 
HETATM   13  C   UNL     1      43.139 -19.029   2.193  1.00  0.00     0.007 A 
HETATM   14  C   UNL     1      43.756 -19.713   3.244  1.00  0.00    -0.062 A 
HETATM   15  C   UNL     1      44.003 -21.189   3.159  1.00  0.00     0.048 C 
HETATM   16  C   UNL     1      44.194 -18.989   4.357  1.00  0.00     0.007 A 
HETATM   17  C   UNL     1      44.006 -17.604   4.421  1.00  0.00     0.014 A 
ENDBRANCH   9  11
ENDBRANCH   1   5
BRANCH   2  18
HETATM   18  N   UNL     1      43.265 -10.403   6.276  1.00  0.00    -0.249 N 
HETATM   19  C   UNL     1      43.370 -10.547   7.652  1.00  0.00     0.339 C 
HETATM   20  N   UNL     1      42.957  -9.404   8.305  1.00  0.00    -0.306 N 
HETATM   21  O   UNL     1      43.843 -11.557   8.161  1.00  0.00    -0.245 OA
HETATM   22  H   UNL     1      43.188  -8.562   7.797  1.00  0.00     0.171 HD
HETATM   23  H   UNL     1      42.520  -9.816   5.909  1.00  0.00     0.192 HD
BRANCH  20  24
HETATM   24  C   UNL     1      42.870  -9.282   9.714  1.00  0.00     0.058 A 
HETATM   25  C   UNL     1      43.964  -9.093  10.579  1.00  0.00     0.060 A 
HETATM   26 CL   UNL     1      45.614  -9.204  10.069  1.00  0.00    -0.082 Cl
HETATM   27  C   UNL     1      43.750  -8.950  11.957  1.00  0.00     0.026 A 
HETATM   28  C   UNL     1      42.462  -9.025  12.485  1.00  0.00     0.002 A 
HETATM   29  C   UNL     1      41.382  -9.269  11.642  1.00  0.00     0.002 A 
HETATM   30  C   UNL     1      41.587  -9.407  10.267  1.00  0.00     0.031 A 
ENDBRANCH  20  24
ENDBRANCH   2  18
TORSDOF 4
ENDMDL
MODEL 5
REMARK VINA RESULT:      -8.5      1.811      2.242
REMARK  4 active torsions:
REMARK  status: ('A' for Active; 'I' for Inactive)
REMARK    1  A    between atoms: C_5  and  C_6 
REMARK    2  A    between atoms: C_10  and  C_11 
REMARK       I    between atoms: C_11  and  N_12 
REMARK    3  A    between atoms: N_12  and  N_13 
REMARK       I    between atoms: N_13  and  C_14 
REMARK       I    between atoms: C_14  and  N_15 
REMARK    4  A    between atoms: N_15  and  C_16 
ROOT
HETATM    1  C   UNL     1      41.854 -10.300   6.169  1.00  0.00     0.288 C 
HETATM    2  N   UNL     1      42.029 -10.500   7.520  1.00  0.00    -0.261 N 
HETATM    3  O   UNL     1      41.296  -9.298   5.724  1.00  0.00    -0.264 OA
HETATM    4  H   UNL     1      42.421 -11.347   7.924  1.00  0.00     0.190 HD
ENDROOT
BRANCH   1   5
HETATM    5  C   UNL     1      42.354 -11.348   5.321  1.00  0.00     0.121 A 
HETATM    6  N   UNL     1      43.137 -11.083   4.234  1.00  0.00    -0.272 N 
HETATM    7  N   UNL     1      43.484 -12.169   3.530  1.00  0.00    -0.174 NA
HETATM    8  H   UNL     1      43.455 -10.172   3.919  1.00  0.00     0.189 HD
HETATM    9  C   UNL     1      42.909 -13.196   4.176  1.00  0.00     0.089 A 
HETATM   10  C   UNL     1      42.204 -12.721   5.319  1.00  0.00     0.071 A 
BRANCH   9  11
HETATM   11  C   UNL     1      43.013 -14.576   3.684  1.00  0.00    -0.006 A 
HETATM   12  C   UNL     1      42.880 -15.670   4.549  1.00  0.00     0.014 A 
HETATM   13  C   UNL     1      42.943 -16.981   4.062  1.00  0.00     0.007 A 
HETATM   14  C   UNL     1      43.151 -17.225   2.702  1.00  0.00    -0.062 A 
HETATM   15  C   UNL     1      43.169 -18.625   2.167  1.00  0.00     0.048 C 
HETATM   16  C   UNL     1      43.285 -16.138   1.833  1.00  0.00     0.007 A 
HETATM   17  C   UNL     1      43.223 -14.828   2.321  1.00  0.00     0.014 A 
ENDBRANCH   9  11
ENDBRANCH   1   5
BRANCH   2  18
HETATM   18  N   UNL     1      41.455  -9.593   8.430  1.00  0.00    -0.249 N 
HETATM   19  C   UNL     1      42.068  -9.508   9.671  1.00  0.00     0.339 C 
HETATM   20  N   UNL     1      41.348  -8.701  10.529  1.00  0.00    -0.306 N 
HETATM   21  O   UNL     1      43.148 -10.044   9.896  1.00  0.00    -0.245 OA
HETATM   22  H   UNL     1      40.905  -7.928  10.053  1.00  0.00     0.171 HD
HETATM   23  H   UNL     1      40.440  -9.541   8.390  1.00  0.00     0.192 HD
BRANCH  20  24
HETATM   24  C   UNL     1      41.682  -8.493  11.889  1.00  0.00     0.058 A 
HETATM   25  C   UNL     1      41.165  -9.229  12.972  1.00  0.00     0.060 A 
HETATM   26 CL   UNL     1      39.865 -10.362  12.821  1.00  0.00    -0.082 Cl
HETATM   27  C   UNL     1      41.598  -8.954  14.276  1.00  0.00     0.026 A 
HETATM   28  C   UNL     1      42.516  -7.933  14.517  1.00  0.00     0.002 A 
HETATM   29  C   UNL     1      42.987  -7.163  13.458  1.00  0.00     0.002 A 
HETATM   30  C   UNL     1      42.564  -7.434  12.155  1.00  0.00     0.031 A 
ENDBRANCH  20  24
ENDBRANCH   2  18
TORSDOF 4
ENDMDL
MODEL 6
REMARK VINA RESULT:      -8.5      2.859     10.243
REMARK  4 active torsions:
REMARK  status: ('A' for Active; 'I' for Inactive)
REMARK    1  A    between atoms: C_5  and  C_6 
REMARK    2  A    between atoms: C_10  and  C_11 
REMARK       I    between atoms: C_11  and  N_12 
REMARK    3  A    between atoms: N_12  and  N_13 
REMARK       I    between atoms: N_13  and  C_14 
REMARK       I    between atoms: C_14  and  N_15 
REMARK    4  A    between atoms: N_15  and  C_16 
ROOT
HETATM    1  C   UNL     1      44.470 -10.818   7.002  1.00  0.00     0.288 C 
HETATM    2  N   UNL     1      43.288 -10.742   6.299  1.00  0.00    -0.261 N 
HETATM    3  O   UNL     1      45.505 -11.249   6.493  1.00  0.00    -0.264 OA
HETATM    4  H   UNL     1      42.401 -10.458   6.709  1.00  0.00     0.190 HD
ENDROOT
BRANCH   1   5
HETATM    5  C   UNL     1      44.406 -10.377   8.368  1.00  0.00     0.121 A 
HETATM    6  N   UNL     1      45.518 -10.314   9.158  1.00  0.00    -0.272 N 
HETATM    7  N   UNL     1      45.277  -9.920  10.416  1.00  0.00    -0.174 NA
HETATM    8  H   UNL     1      46.471 -10.541   8.890  1.00  0.00     0.189 HD
HETATM    9  C   UNL     1      43.951  -9.713  10.462  1.00  0.00     0.089 A 
HETATM   10  C   UNL     1      43.371  -9.973   9.188  1.00  0.00     0.071 A 
BRANCH   9  11
HETATM   11  C   UNL     1      43.273  -9.312  11.702  1.00  0.00    -0.006 A 
HETATM   12  C   UNL     1      42.271 -10.106  12.275  1.00  0.00     0.014 A 
HETATM   13  C   UNL     1      41.660  -9.733  13.477  1.00  0.00     0.007 A 
HETATM   14  C   UNL     1      42.030  -8.551  14.126  1.00  0.00    -0.062 A 
HETATM   15  C   UNL     1      41.415  -8.172  15.439  1.00  0.00     0.048 C 
HETATM   16  C   UNL     1      43.030  -7.754  13.560  1.00  0.00     0.007 A 
HETATM   17  C   UNL     1      43.639  -8.128  12.358  1.00  0.00     0.014 A 
ENDBRANCH   9  11
ENDBRANCH   1   5
BRANCH   2  18
HETATM   18  N   UNL     1      43.224 -11.274   4.999  1.00  0.00    -0.249 N 
HETATM   19  C   UNL     1      42.635 -12.525   4.883  1.00  0.00     0.339 C 
HETATM   20  N   UNL     1      42.748 -13.013   3.597  1.00  0.00    -0.306 N 
HETATM   21  O   UNL     1      42.040 -13.048   5.820  1.00  0.00    -0.245 OA
HETATM   22  H   UNL     1      42.690 -12.284   2.900  1.00  0.00     0.171 HD
HETATM   23  H   UNL     1      44.033 -11.068   4.418  1.00  0.00     0.192 HD
BRANCH  20  24
HETATM   24  C   UNL     1      42.317 -14.301   3.196  1.00  0.00     0.058 A 
HETATM   25  C   UNL     1      41.008 -14.629   2.797  1.00  0.00     0.060 A 
HETATM   26 CL   UNL     1      39.665 -13.548   2.951  1.00  0.00    -0.082 Cl
HETATM   27  C   UNL     1      40.708 -15.935   2.386  1.00  0.00     0.026 A 
HETATM   28  C   UNL     1      41.690 -16.924   2.398  1.00  0.00     0.002 A 
HETATM   29  C   UNL     1      42.972 -16.621   2.846  1.00  0.00     0.002 A 
HETATM   30  C   UNL     1      43.279 -15.320   3.253  1.00  0.00     0.031 A 
ENDBRANCH  20  24
ENDBRANCH   2  18
TORSDOF 4
ENDMDL
MODEL 7
REMARK VINA RESULT:      -8.3      2.436      2.902
REMARK  4 active torsions:
REMARK  status: ('A' for Active; 'I' for Inactive)
REMARK    1  A    between atoms: C_5  and  C_6 
REMARK    2  A    between atoms: C_10  and  C_11 
REMARK       I    between atoms: C_11  and  N_12 
REMARK    3  A    between atoms: N_12  and  N_13 
REMARK       I    between atoms: N_13  and  C_14 
REMARK       I    between atoms: C_14  and  N_15 
REMARK    4  A    between atoms: N_15  and  C_16 
ROOT
HETATM    1  C   UNL     1      39.457 -11.161   6.828  1.00  0.00     0.288 C 
HETATM    2  N   UNL     1      40.411 -10.425   7.495  1.00  0.00    -0.261 N 
HETATM    3  O   UNL     1      38.259 -11.068   7.091  1.00  0.00    -0.264 OA
HETATM    4  H   UNL     1      41.413 -10.529   7.352  1.00  0.00     0.190 HD
ENDROOT
BRANCH   1   5
HETATM    5  C   UNL     1      39.960 -12.053   5.820  1.00  0.00     0.121 A 
HETATM    6  N   UNL     1      39.622 -11.918   4.504  1.00  0.00    -0.272 N 
HETATM    7  N   UNL     1      40.146 -12.855   3.702  1.00  0.00    -0.174 NA
HETATM    8  H   UNL     1      39.023 -11.205   4.098  1.00  0.00     0.189 HD
HETATM    9  C   UNL     1      40.861 -13.645   4.520  1.00  0.00     0.089 A 
HETATM   10  C   UNL     1      40.783 -13.161   5.857  1.00  0.00     0.071 A 
BRANCH   9  11
HETATM   11  C   UNL     1      41.563 -14.837   4.026  1.00  0.00    -0.006 A 
HETATM   12  C   UNL     1      42.770 -15.261   4.597  1.00  0.00     0.014 A 
HETATM   13  C   UNL     1      43.410 -16.420   4.143  1.00  0.00     0.007 A 
HETATM   14  C   UNL     1      42.861 -17.173   3.101  1.00  0.00    -0.062 A 
HETATM   15  C   UNL     1      43.516 -18.442   2.644  1.00  0.00     0.048 C 
HETATM   16  C   UNL     1      41.657 -16.756   2.526  1.00  0.00     0.007 A 
HETATM   17  C   UNL     1      41.020 -15.596   2.980  1.00  0.00     0.014 A 
ENDBRANCH   9  11
ENDBRANCH   1   5
BRANCH   2  18
HETATM   18  N   UNL     1      40.025  -9.625   8.586  1.00  0.00    -0.249 N 
HETATM   19  C   UNL     1      40.986  -9.430   9.566  1.00  0.00     0.339 C 
HETATM   20  N   UNL     1      40.465  -8.754  10.650  1.00  0.00    -0.306 N 
HETATM   21  O   UNL     1      42.153  -9.772   9.404  1.00  0.00    -0.245 OA
HETATM   22  H   UNL     1      39.770  -8.070  10.383  1.00  0.00     0.171 HD
HETATM   23  H   UNL     1      39.058  -9.748   8.878  1.00  0.00     0.192 HD
BRANCH  20  24
HETATM   24  C   UNL     1      41.184  -8.485  11.840  1.00  0.00     0.058 A 
HETATM   25  C   UNL     1      41.126  -9.258  13.015  1.00  0.00     0.060 A 
HETATM   26 CL   UNL     1      39.986 -10.538  13.258  1.00  0.00    -0.082 Cl
HETATM   27  C   UNL     1      41.914  -8.912  14.120  1.00  0.00     0.026 A 
HETATM   28  C   UNL     1      42.736  -7.787  14.080  1.00  0.00     0.002 A 
HETATM   29  C   UNL     1      42.756  -6.985  12.943  1.00  0.00     0.002 A 
HETATM   30  C   UNL     1      41.976  -7.327  11.835  1.00  0.00     0.031 A 
ENDBRANCH  20  24
ENDBRANCH   2  18
TORSDOF 4
ENDMDL
MODEL 8
REMARK VINA RESULT:      -8.2      7.653     10.228
REMARK  4 active torsions:
REMARK  status: ('A' for Active; 'I' for Inactive)
REMARK    1  A    between atoms: C_5  and  C_6 
REMARK    2  A    between atoms: C_10  and  C_11 
REMARK       I    between atoms: C_11  and  N_12 
REMARK    3  A    between atoms: N_12  and  N_13 
REMARK       I    between atoms: N_13  and  C_14 
REMARK       I    between atoms: C_14  and  N_15 
REMARK    4  A    between atoms: N_15  and  C_16 
ROOT
HETATM    1  C   UNL     1      39.770 -13.863   0.346  1.00  0.00     0.288 C 
HETATM    2  N   UNL     1      39.310 -13.659   1.627  1.00  0.00    -0.261 N 
HETATM    3  O   UNL     1      40.135 -14.971  -0.047  1.00  0.00    -0.264 OA
HETATM    4  H   UNL     1      39.068 -12.746   2.006  1.00  0.00     0.190 HD
ENDROOT
BRANCH   1   5
HETATM    5  C   UNL     1      39.810 -12.695  -0.489  1.00  0.00     0.121 A 
HETATM    6  N   UNL     1      38.725 -12.290  -1.213  1.00  0.00    -0.272 N 
HETATM    7  N   UNL     1      38.943 -11.205  -1.969  1.00  0.00    -0.174 NA
HETATM    8  H   UNL     1      37.809 -12.728  -1.237  1.00  0.00     0.189 HD
HETATM    9  C   UNL     1      40.224 -10.877  -1.738  1.00  0.00     0.089 A 
HETATM   10  C   UNL     1      40.798 -11.781  -0.798  1.00  0.00     0.071 A 
BRANCH   9  11
HETATM   11  C   UNL     1      40.872  -9.753  -2.426  1.00  0.00    -0.006 A 
HETATM   12  C   UNL     1      41.832  -8.960  -1.783  1.00  0.00     0.014 A 
HETATM   13  C   UNL     1      42.470  -7.915  -2.462  1.00  0.00     0.007 A 
HETATM   14  C   UNL     1      42.153  -7.635  -3.794  1.00  0.00    -0.062 A 
HETATM   15  C   UNL     1      42.869  -6.550  -4.541  1.00  0.00     0.048 C 
HETATM   16  C   UNL     1      41.196  -8.421  -4.442  1.00  0.00     0.007 A 
HETATM   17  C   UNL     1      40.558  -9.464  -3.761  1.00  0.00     0.014 A 
ENDBRANCH   9  11
ENDBRANCH   1   5
BRANCH   2  18
HETATM   18  N   UNL     1      39.361 -14.715   2.555  1.00  0.00    -0.249 N 
HETATM   19  C   UNL     1      40.502 -14.778   3.341  1.00  0.00     0.339 C 
HETATM   20  N   UNL     1      40.514 -15.923   4.112  1.00  0.00    -0.306 N 
HETATM   21  O   UNL     1      41.324 -13.868   3.361  1.00  0.00    -0.245 OA
HETATM   22  H   UNL     1      39.590 -16.193   4.418  1.00  0.00     0.171 HD
HETATM   23  H   UNL     1      38.956 -15.588   2.224  1.00  0.00     0.192 HD
BRANCH  20  24
HETATM   24  C   UNL     1      41.590 -16.303   4.951  1.00  0.00     0.058 A 
HETATM   25  C   UNL     1      42.762 -16.953   4.522  1.00  0.00     0.060 A 
HETATM   26 CL   UNL     1      42.968 -17.590   2.925  1.00  0.00    -0.082 Cl
HETATM   27  C   UNL     1      43.777 -17.248   5.442  1.00  0.00     0.026 A 
HETATM   28  C   UNL     1      43.623 -16.931   6.791  1.00  0.00     0.002 A 
HETATM   29  C   UNL     1      42.443 -16.340   7.233  1.00  0.00     0.002 A 
HETATM   30  C   UNL     1      41.429 -16.039   6.320  1.00  0.00     0.031 A 
ENDBRANCH  20  24
ENDBRANCH   2  18
TORSDOF 4
ENDMDL
MODEL 9
REMARK VINA RESULT:      -7.9      2.252      2.620
REMARK  4 active torsions:
REMARK  status: ('A' for Active; 'I' for Inactive)
REMARK    1  A    between atoms: C_5  and  C_6 
REMARK    2  A    between atoms: C_10  and  C_11 
REMARK       I    between atoms: C_11  and  N_12 
REMARK    3  A    between atoms: N_12  and  N_13 
REMARK       I    between atoms: N_13  and  C_14 
REMARK       I    between atoms: C_14  and  N_15 
REMARK    4  A    between atoms: N_15  and  C_16 
ROOT
HETATM    1  C   UNL     1      42.723 -11.775   5.798  1.00  0.00     0.288 C 
HETATM    2  N   UNL     1      41.778 -11.426   6.737  1.00  0.00    -0.261 N 
HETATM    3  O   UNL     1      43.323 -10.931   5.132  1.00  0.00    -0.264 OA
HETATM    4  H   UNL     1      41.214 -12.097   7.253  1.00  0.00     0.190 HD
ENDROOT
BRANCH   1   5
HETATM    5  C   UNL     1      42.945 -13.185   5.641  1.00  0.00     0.121 A 
HETATM    6  N   UNL     1      43.437 -13.955   6.656  1.00  0.00    -0.272 N 
HETATM    7  N   UNL     1      43.621 -15.242   6.330  1.00  0.00    -0.174 NA
HETATM    8  H   UNL     1      43.677 -13.648   7.593  1.00  0.00     0.189 HD
HETATM    9  C   UNL     1      43.235 -15.330   5.047  1.00  0.00     0.089 A 
HETATM   10  C   UNL     1      42.787 -14.060   4.584  1.00  0.00     0.071 A 
BRANCH   9  11
HETATM   11  C   UNL     1      43.331 -16.588   4.295  1.00  0.00    -0.006 A 
HETATM   12  C   UNL     1      42.678 -16.753   3.066  1.00  0.00     0.014 A 
HETATM   13  C   UNL     1      42.808 -17.943   2.340  1.00  0.00     0.007 A 
HETATM   14  C   UNL     1      43.583 -18.996   2.833  1.00  0.00    -0.062 A 
HETATM   15  C   UNL     1      43.766 -20.253   2.037  1.00  0.00     0.048 C 
HETATM   16  C   UNL     1      44.237 -18.838   4.059  1.00  0.00     0.007 A 
HETATM   17  C   UNL     1      44.105 -17.648   4.784  1.00  0.00     0.014 A 
ENDBRANCH   9  11
ENDBRANCH   1   5
BRANCH   2  18
HETATM   18  N   UNL     1      41.400 -10.077   6.866  1.00  0.00    -0.249 N 
HETATM   19  C   UNL     1      41.762  -9.455   8.052  1.00  0.00     0.339 C 
HETATM   20  N   UNL     1      41.225  -8.186   8.134  1.00  0.00    -0.306 N 
HETATM   21  O   UNL     1      42.523  -9.986   8.854  1.00  0.00    -0.245 OA
HETATM   22  H   UNL     1      41.178  -7.727   7.236  1.00  0.00     0.171 HD
HETATM   23  H   UNL     1      40.494  -9.852   6.462  1.00  0.00     0.192 HD
BRANCH  20  24
HETATM   24  C   UNL     1      41.350  -7.343   9.265  1.00  0.00     0.058 A 
HETATM   25  C   UNL     1      42.527  -6.675   9.651  1.00  0.00     0.060 A 
HETATM   26 CL   UNL     1      44.070  -6.964   8.922  1.00  0.00    -0.082 Cl
HETATM   27  C   UNL     1      42.520  -5.836  10.773  1.00  0.00     0.026 A 
HETATM   28  C   UNL     1      41.362  -5.679  11.533  1.00  0.00     0.002 A 
HETATM   29  C   UNL     1      40.210  -6.381  11.191  1.00  0.00     0.002 A 
HETATM   30  C   UNL     1      40.208  -7.215  10.070  1.00  0.00     0.031 A 
ENDBRANCH  20  24
ENDBRANCH   2  18
TORSDOF 4
ENDMDL
MODEL 10
REMARK VINA RESULT:      -7.9      7.990     10.417
REMARK  4 active torsions:
REMARK  status: ('A' for Active; 'I' for Inactive)
REMARK    1  A    between atoms: C_5  and  C_6 
REMARK    2  A    between atoms: C_10  and  C_11 
REMARK       I    between atoms: C_11  and  N_12 
REMARK    3  A    between atoms: N_12  and  N_13 
REMARK       I    between atoms: N_13  and  C_14 
REMARK       I    between atoms: C_14  and  N_15 
REMARK    4  A    between atoms: N_15  and  C_16 
ROOT
HETATM    1  C   UNL     1      40.642 -13.631   1.007  1.00  0.00     0.288 C 
HETATM    2  N   UNL     1      41.002 -12.984  -0.155  1.00  0.00    -0.261 N 
HETATM    3  O   UNL     1      39.583 -13.392   1.585  1.00  0.00    -0.264 OA
HETATM    4  H   UNL     1      41.899 -13.105  -0.619  1.00  0.00     0.190 HD
ENDROOT
BRANCH   1   5
HETATM    5  C   UNL     1      41.594 -14.587   1.500  1.00  0.00     0.121 A 
HETATM    6  N   UNL     1      42.935 -14.450   1.277  1.00  0.00    -0.272 N 
HETATM    7  N   UNL     1      43.679 -15.449   1.772  1.00  0.00    -0.174 NA
HETATM    8  H   UNL     1      43.396 -13.695   0.780  1.00  0.00     0.189 HD
HETATM    9  C   UNL     1      42.796 -16.283   2.346  1.00  0.00     0.089 A 
HETATM   10  C   UNL     1      41.476 -15.765   2.212  1.00  0.00     0.071 A 
BRANCH   9  11
HETATM   11  C   UNL     1      43.216 -17.544   2.970  1.00  0.00    -0.006 A 
HETATM   12  C   UNL     1      43.728 -17.577   4.275  1.00  0.00     0.014 A 
HETATM   13  C   UNL     1      44.088 -18.790   4.873  1.00  0.00     0.007 A 
HETATM   14  C   UNL     1      43.956 -19.994   4.174  1.00  0.00    -0.062 A 
HETATM   15  C   UNL     1      44.294 -21.301   4.827  1.00  0.00     0.048 C 
HETATM   16  C   UNL     1      43.447 -19.969   2.872  1.00  0.00     0.007 A 
HETATM   17  C   UNL     1      43.088 -18.755   2.276  1.00  0.00     0.014 A 
ENDBRANCH   9  11
ENDBRANCH   1   5
BRANCH   2  18
HETATM   18  N   UNL     1      40.195 -11.939  -0.639  1.00  0.00    -0.249 N 
HETATM   19  C   UNL     1      40.616 -11.342  -1.819  1.00  0.00     0.339 C 
HETATM   20  N   UNL     1      39.839 -10.245  -2.129  1.00  0.00    -0.306 N 
HETATM   21  O   UNL     1      41.524 -11.817  -2.494  1.00  0.00    -0.245 OA
HETATM   22  H   UNL     1      38.872 -10.367  -1.861  1.00  0.00     0.171 HD
HETATM   23  H   UNL     1      39.794 -11.345   0.083  1.00  0.00     0.192 HD
BRANCH  20  24
HETATM   24  C   UNL     1      40.081  -9.386  -3.228  1.00  0.00     0.058 A 
HETATM   25  C   UNL     1      41.199  -8.541  -3.365  1.00  0.00     0.060 A 
HETATM   26 CL   UNL     1      42.341  -8.258  -2.095  1.00  0.00    -0.082 Cl
HETATM   27  C   UNL     1      41.349  -7.760  -4.519  1.00  0.00     0.026 A 
HETATM   28  C   UNL     1      40.383  -7.787  -5.523  1.00  0.00     0.002 A 
HETATM   29  C   UNL     1      39.247  -8.576  -5.369  1.00  0.00     0.002 A 
HETATM   30  C   UNL     1      39.093  -9.362  -4.224  1.00  0.00     0.031 A 
ENDBRANCH  20  24
ENDBRANCH   2  18
TORSDOF 4
ENDMDL
