MODEL 1
REMARK VINA RESULT:      -8.0      0.000      0.000
REMARK  8 active torsions:
REMARK  status: ('A' for Active; 'I' for Inactive)
REMARK    1  A    between atoms: C_2  and  C_3 
REMARK    2  A    between atoms: C_3  and  O_4 
REMARK    3  A    between atoms: O_4  and  C_5 
REMARK    4  A    between atoms: C_6  and  O_7 
REMARK    5  A    between atoms: C_11  and  C_12 
REMARK    6  A    between atoms: C_12  and  N_13 
REMARK    7  A    between atoms: N_13  and  C_14 
REMARK    8  A    between atoms: C_21  and  C_22 
REMARK       I    between atoms: C_22  and  N_23 
ROOT
HETATM    1  C   UNL     1      40.694 -13.334   0.336  1.00  0.00     0.009 A 
HETATM    2  C   UNL     1      40.074 -13.973  -0.751  1.00  0.00     0.039 A 
HETATM    3  C   UNL     1      38.951 -13.391  -1.376  1.00  0.00     0.030 A 
HETATM    4  C   UNL     1      38.456 -12.192  -0.882  1.00  0.00     0.063 A 
HETATM    5  N   UNL     1      37.384 -11.890  -1.675  1.00  0.00    -0.277 N 
HETATM    6  H   UNL     1      36.777 -11.080  -1.602  1.00  0.00     0.189 HD
HETATM    7  N   UNL     1      37.130 -12.793  -2.638  1.00  0.00    -0.168 NA
HETATM    8  C   UNL     1      38.090 -13.729  -2.462  1.00  0.00     0.156 A 
HETATM    9  C   UNL     1      39.014 -11.537   0.215  1.00  0.00     0.034 A 
HETATM   10  C   UNL     1      40.126 -12.144   0.818  1.00  0.00     0.026 A 
ENDROOT
BRANCH   1  11
HETATM   11  N   UNL     1      41.754 -13.903   1.053  1.00  0.00    -0.289 NA
HETATM   12  H   UNL     1      42.641 -13.442   0.865  1.00  0.00     0.128 HD
BRANCH  11  13
HETATM   13  C   UNL     1      41.885 -15.352   1.105  1.00  0.00     0.131 C 
BRANCH  13  14
HETATM   14  C   UNL     1      42.513 -15.744   2.423  1.00  0.00    -0.042 A 
HETATM   15  C   UNL     1      42.603 -14.811   3.463  1.00  0.00     0.011 A 
HETATM   16  C   UNL     1      43.169 -15.166   4.691  1.00  0.00     0.040 A 
HETATM   17  C   UNL     1      43.668 -16.455   4.893  1.00  0.00     0.101 A 
HETATM   18  C   UNL     1      43.631 -17.382   3.835  1.00  0.00     0.102 A 
HETATM   19  C   UNL     1      43.041 -17.029   2.615  1.00  0.00     0.048 A 
BRANCH  17  20
HETATM   20  O   UNL     1      44.243 -16.888   6.063  1.00  0.00    -0.353 OA
HETATM   21  C   UNL     1      43.368 -17.165   7.147  1.00  0.00     0.210 C 
ENDBRANCH  17  20
BRANCH  18  22
HETATM   22  O   UNL     1      44.136 -18.633   4.088  1.00  0.00    -0.348 OA
BRANCH  22  23
HETATM   23  C   UNL     1      43.948 -19.597   3.052  1.00  0.00     0.175 C 
BRANCH  23  24
HETATM   24  C   UNL     1      43.851 -20.971   3.709  1.00  0.00     0.022 C 
HETATM   25  C   UNL     1      43.969 -20.888   5.219  1.00  0.00     0.007 C 
ENDBRANCH  23  24
ENDBRANCH  22  23
ENDBRANCH  18  22
ENDBRANCH  13  14
ENDBRANCH  11  13
ENDBRANCH   1  11
BRANCH   8  26
HETATM   26  C   UNL     1      38.167 -14.919  -3.321  1.00  0.00     0.270 C 
HETATM   27  N   UNL     1      38.290 -16.097  -2.636  1.00  0.00    -0.365 N 
HETATM   28  H   UNL     1      38.325 -16.067  -1.623  1.00  0.00     0.159 HD
HETATM   29  H   UNL     1      38.363 -16.965  -3.140  1.00  0.00     0.159 HD
HETATM   30  O   UNL     1      38.130 -14.896  -4.548  1.00  0.00    -0.266 OA
ENDBRANCH   8  26
TORSDOF 8
ENDMDL
MODEL 2
REMARK VINA RESULT:      -8.0      1.347      3.014
REMARK  8 active torsions:
REMARK  status: ('A' for Active; 'I' for Inactive)
REMARK    1  A    between atoms: C_2  and  C_3 
REMARK    2  A    between atoms: C_3  and  O_4 
REMARK    3  A    between atoms: O_4  and  C_5 
REMARK    4  A    between atoms: C_6  and  O_7 
REMARK    5  A    between atoms: C_11  and  C_12 
REMARK    6  A    between atoms: C_12  and  N_13 
REMARK    7  A    between atoms: N_13  and  C_14 
REMARK    8  A    between atoms: C_21  and  C_22 
REMARK       I    between atoms: C_22  and  N_23 
ROOT
HETATM    1  C   UNL     1      41.260 -13.705   1.740  1.00  0.00     0.009 A 
HETATM    2  C   UNL     1      40.837 -14.051   0.446  1.00  0.00     0.039 A 
HETATM    3  C   UNL     1      39.693 -13.446  -0.117  1.00  0.00     0.030 A 
HETATM    4  C   UNL     1      38.982 -12.524   0.638  1.00  0.00     0.063 A 
HETATM    5  N   UNL     1      37.946 -12.126  -0.159  1.00  0.00    -0.277 N 
HETATM    6  H   UNL     1      37.218 -11.457   0.069  1.00  0.00     0.189 HD
HETATM    7  N   UNL     1      37.913 -12.715  -1.368  1.00  0.00    -0.168 NA
HETATM    8  C   UNL     1      38.987 -13.537  -1.354  1.00  0.00     0.156 A 
HETATM    9  C   UNL     1      39.341 -12.174   1.940  1.00  0.00     0.034 A 
HETATM   10  C   UNL     1      40.479 -12.797   2.473  1.00  0.00     0.026 A 
ENDROOT
BRANCH   1  11
HETATM   11  N   UNL     1      42.331 -14.333   2.387  1.00  0.00    -0.289 NA
HETATM   12  H   UNL     1      42.973 -13.668   2.810  1.00  0.00     0.128 HD
BRANCH  11  13
HETATM   13  C   UNL     1      43.027 -15.425   1.720  1.00  0.00     0.131 C 
BRANCH  13  14
HETATM   14  C   UNL     1      43.280 -16.532   2.717  1.00  0.00    -0.042 A 
HETATM   15  C   UNL     1      43.483 -17.845   2.272  1.00  0.00     0.011 A 
HETATM   16  C   UNL     1      43.732 -18.875   3.183  1.00  0.00     0.040 A 
HETATM   17  C   UNL     1      43.767 -18.612   4.555  1.00  0.00     0.101 A 
HETATM   18  C   UNL     1      43.511 -17.307   5.013  1.00  0.00     0.102 A 
HETATM   19  C   UNL     1      43.286 -16.274   4.096  1.00  0.00     0.048 A 
BRANCH  17  20
HETATM   20  O   UNL     1      44.001 -19.562   5.518  1.00  0.00    -0.353 OA
HETATM   21  C   UNL     1      44.239 -20.889   5.071  1.00  0.00     0.210 C 
ENDBRANCH  17  20
BRANCH  18  22
HETATM   22  O   UNL     1      43.557 -17.106   6.371  1.00  0.00    -0.348 OA
BRANCH  22  23
HETATM   23  C   UNL     1      42.446 -16.406   6.930  1.00  0.00     0.175 C 
BRANCH  23  24
HETATM   24  C   UNL     1      42.998 -15.299   7.824  1.00  0.00     0.022 C 
HETATM   25  C   UNL     1      43.341 -14.050   7.033  1.00  0.00     0.007 C 
ENDBRANCH  23  24
ENDBRANCH  22  23
ENDBRANCH  18  22
ENDBRANCH  13  14
ENDBRANCH  11  13
ENDBRANCH   1  11
BRANCH   8  26
HETATM   26  C   UNL     1      39.316 -14.388  -2.505  1.00  0.00     0.270 C 
HETATM   27  N   UNL     1      38.540 -15.509  -2.613  1.00  0.00    -0.365 N 
HETATM   28  H   UNL     1      37.824 -15.671  -1.913  1.00  0.00     0.159 HD
HETATM   29  H   UNL     1      38.700 -16.160  -3.363  1.00  0.00     0.159 HD
HETATM   30  O   UNL     1      40.204 -14.147  -3.318  1.00  0.00    -0.266 OA
ENDBRANCH   8  26
TORSDOF 8
ENDMDL
MODEL 3
REMARK VINA RESULT:      -7.8      5.003      7.786
REMARK  8 active torsions:
REMARK  status: ('A' for Active; 'I' for Inactive)
REMARK    1  A    between atoms: C_2  and  C_3 
REMARK    2  A    between atoms: C_3  and  O_4 
REMARK    3  A    between atoms: O_4  and  C_5 
REMARK    4  A    between atoms: C_6  and  O_7 
REMARK    5  A    between atoms: C_11  and  C_12 
REMARK    6  A    between atoms: C_12  and  N_13 
REMARK    7  A    between atoms: N_13  and  C_14 
REMARK    8  A    between atoms: C_21  and  C_22 
REMARK       I    between atoms: C_22  and  N_23 
ROOT
HETATM    1  C   UNL     1      42.278 -15.056   7.035  1.00  0.00     0.009 A 
HETATM    2  C   UNL     1      43.275 -14.069   7.117  1.00  0.00     0.039 A 
HETATM    3  C   UNL     1      43.027 -12.763   6.643  1.00  0.00     0.030 A 
HETATM    4  C   UNL     1      41.794 -12.480   6.073  1.00  0.00     0.063 A 
HETATM    5  N   UNL     1      41.857 -11.163   5.711  1.00  0.00    -0.277 N 
HETATM    6  H   UNL     1      41.131 -10.615   5.261  1.00  0.00     0.189 HD
HETATM    7  N   UNL     1      43.029 -10.563   5.987  1.00  0.00    -0.168 NA
HETATM    8  C   UNL     1      43.764 -11.543   6.561  1.00  0.00     0.156 A 
HETATM    9  C   UNL     1      40.785 -13.433   5.937  1.00  0.00     0.034 A 
HETATM   10  C   UNL     1      41.065 -14.723   6.413  1.00  0.00     0.026 A 
ENDROOT
BRANCH   1  11
HETATM   11  N   UNL     1      42.492 -16.389   7.406  1.00  0.00    -0.289 NA
HETATM   12  H   UNL     1      42.173 -16.585   8.351  1.00  0.00     0.128 HD
BRANCH  11  13
HETATM   13  C   UNL     1      43.774 -17.014   7.115  1.00  0.00     0.131 C 
BRANCH  13  14
HETATM   14  C   UNL     1      43.720 -17.635   5.738  1.00  0.00    -0.042 A 
HETATM   15  C   UNL     1      43.942 -19.009   5.577  1.00  0.00     0.011 A 
HETATM   16  C   UNL     1      43.881 -19.597   4.311  1.00  0.00     0.040 A 
HETATM   17  C   UNL     1      43.611 -18.819   3.183  1.00  0.00     0.101 A 
HETATM   18  C   UNL     1      43.441 -17.430   3.328  1.00  0.00     0.102 A 
HETATM   19  C   UNL     1      43.480 -16.849   4.602  1.00  0.00     0.048 A 
BRANCH  17  20
HETATM   20  O   UNL     1      43.536 -19.312   1.903  1.00  0.00    -0.353 OA
HETATM   21  C   UNL     1      43.735 -20.708   1.738  1.00  0.00     0.210 C 
ENDBRANCH  17  20
BRANCH  18  22
HETATM   22  O   UNL     1      43.180 -16.714   2.186  1.00  0.00    -0.348 OA
BRANCH  22  23
HETATM   23  C   UNL     1      42.479 -15.484   2.374  1.00  0.00     0.175 C 
BRANCH  23  24
HETATM   24  C   UNL     1      43.437 -14.348   2.028  1.00  0.00     0.022 C 
HETATM   25  C   UNL     1      43.167 -13.106   2.857  1.00  0.00     0.007 C 
ENDBRANCH  23  24
ENDBRANCH  22  23
ENDBRANCH  18  22
ENDBRANCH  13  14
ENDBRANCH  11  13
ENDBRANCH   1  11
BRANCH   8  26
HETATM   26  C   UNL     1      45.141 -11.304   7.013  1.00  0.00     0.270 C 
HETATM   27  N   UNL     1      46.048 -11.171   5.997  1.00  0.00    -0.365 N 
HETATM   28  H   UNL     1      45.720 -11.250   5.042  1.00  0.00     0.159 HD
HETATM   29  H   UNL     1      47.020 -11.017   6.210  1.00  0.00     0.159 HD
HETATM   30  O   UNL     1      45.485 -11.227   8.189  1.00  0.00    -0.266 OA
ENDBRANCH   8  26
TORSDOF 8
ENDMDL
MODEL 4
REMARK VINA RESULT:      -7.7      2.346      2.608
REMARK  8 active torsions:
REMARK  status: ('A' for Active; 'I' for Inactive)
REMARK    1  A    between atoms: C_2  and  C_3 
REMARK    2  A    between atoms: C_3  and  O_4 
REMARK    3  A    between atoms: O_4  and  C_5 
REMARK    4  A    between atoms: C_6  and  O_7 
REMARK    5  A    between atoms: C_11  and  C_12 
REMARK    6  A    between atoms: C_12  and  N_13 
REMARK    7  A    between atoms: N_13  and  C_14 
REMARK    8  A    between atoms: C_21  and  C_22 
REMARK       I    between atoms: C_22  and  N_23 
ROOT
HETATM    1  C   UNL     1      39.976 -13.211   1.898  1.00  0.00     0.009 A 
HETATM    2  C   UNL     1      40.086 -13.154   0.499  1.00  0.00     0.039 A 
HETATM    3  C   UNL     1      40.665 -12.030  -0.128  1.00  0.00     0.030 A 
HETATM    4  C   UNL     1      41.101 -10.975   0.660  1.00  0.00     0.063 A 
HETATM    5  N   UNL     1      41.599 -10.051  -0.216  1.00  0.00    -0.277 N 
HETATM    6  H   UNL     1      42.003  -9.148   0.008  1.00  0.00     0.189 HD
HETATM    7  N   UNL     1      41.517 -10.408  -1.510  1.00  0.00    -0.168 NA
HETATM    8  C   UNL     1      40.938 -11.630  -1.470  1.00  0.00     0.156 A 
HETATM    9  C   UNL     1      40.983 -10.968   2.050  1.00  0.00     0.034 A 
HETATM   10  C   UNL     1      40.398 -12.097   2.642  1.00  0.00     0.026 A 
ENDROOT
BRANCH   1  11
HETATM   11  N   UNL     1      39.333 -14.255   2.573  1.00  0.00    -0.289 NA
HETATM   12  H   UNL     1      39.291 -14.101   3.577  1.00  0.00     0.128 HD
BRANCH  11  13
HETATM   13  C   UNL     1      39.665 -15.633   2.238  1.00  0.00     0.131 C 
BRANCH  13  14
HETATM   14  C   UNL     1      40.823 -16.085   3.098  1.00  0.00    -0.042 A 
HETATM   15  C   UNL     1      40.977 -15.573   4.393  1.00  0.00     0.011 A 
HETATM   16  C   UNL     1      42.036 -15.994   5.203  1.00  0.00     0.040 A 
HETATM   17  C   UNL     1      42.965 -16.921   4.726  1.00  0.00     0.101 A 
HETATM   18  C   UNL     1      42.849 -17.398   3.408  1.00  0.00     0.102 A 
HETATM   19  C   UNL     1      41.773 -16.992   2.608  1.00  0.00     0.048 A 
BRANCH  17  20
HETATM   20  O   UNL     1      44.036 -17.386   5.450  1.00  0.00    -0.353 OA
HETATM   21  C   UNL     1      44.598 -16.501   6.409  1.00  0.00     0.210 C 
ENDBRANCH  17  20
BRANCH  18  22
HETATM   22  O   UNL     1      43.790 -18.306   2.991  1.00  0.00    -0.348 OA
BRANCH  22  23
HETATM   23  C   UNL     1      43.300 -19.379   2.187  1.00  0.00     0.175 C 
BRANCH  23  24
HETATM   24  C   UNL     1      43.932 -20.670   2.700  1.00  0.00     0.022 C 
HETATM   25  C   UNL     1      43.904 -20.752   4.215  1.00  0.00     0.007 C 
ENDBRANCH  23  24
ENDBRANCH  22  23
ENDBRANCH  18  22
ENDBRANCH  13  14
ENDBRANCH  11  13
ENDBRANCH   1  11
BRANCH   8  26
HETATM   26  C   UNL     1      40.655 -12.384  -2.698  1.00  0.00     0.270 C 
HETATM   27  N   UNL     1      41.764 -12.912  -3.300  1.00  0.00    -0.365 N 
HETATM   28  H   UNL     1      42.670 -12.746  -2.877  1.00  0.00     0.159 HD
HETATM   29  H   UNL     1      41.670 -13.434  -4.155  1.00  0.00     0.159 HD
HETATM   30  O   UNL     1      39.534 -12.545  -3.174  1.00  0.00    -0.266 OA
ENDBRANCH   8  26
TORSDOF 8
ENDMDL
MODEL 5
REMARK VINA RESULT:      -7.5      5.566      8.993
REMARK  8 active torsions:
REMARK  status: ('A' for Active; 'I' for Inactive)
REMARK    1  A    between atoms: C_2  and  C_3 
REMARK    2  A    between atoms: C_3  and  O_4 
REMARK    3  A    between atoms: O_4  and  C_5 
REMARK    4  A    between atoms: C_6  and  O_7 
REMARK    5  A    between atoms: C_11  and  C_12 
REMARK    6  A    between atoms: C_12  and  N_13 
REMARK    7  A    between atoms: N_13  and  C_14 
REMARK    8  A    between atoms: C_21  and  C_22 
REMARK       I    between atoms: C_22  and  N_23 
ROOT
HETATM    1  C   UNL     1      43.423 -11.907   6.897  1.00  0.00     0.009 A 
HETATM    2  C   UNL     1      43.282 -10.672   7.552  1.00  0.00     0.039 A 
HETATM    3  C   UNL     1      44.404  -9.845   7.769  1.00  0.00     0.030 A 
HETATM    4  C   UNL     1      45.651 -10.284   7.346  1.00  0.00     0.063 A 
HETATM    5  N   UNL     1      46.521  -9.289   7.694  1.00  0.00    -0.277 N 
HETATM    6  H   UNL     1      47.524  -9.270   7.540  1.00  0.00     0.189 HD
HETATM    7  N   UNL     1      45.952  -8.242   8.316  1.00  0.00    -0.168 NA
HETATM    8  C   UNL     1      44.642  -8.574   8.372  1.00  0.00     0.156 A 
HETATM    9  C   UNL     1      45.849 -11.516   6.722  1.00  0.00     0.034 A 
HETATM   10  C   UNL     1      44.714 -12.317   6.527  1.00  0.00     0.026 A 
ENDROOT
BRANCH   1  11
HETATM   11  N   UNL     1      42.366 -12.810   6.731  1.00  0.00    -0.289 NA
HETATM   12  H   UNL     1      41.661 -12.719   7.458  1.00  0.00     0.128 HD
BRANCH  11  13
HETATM   13  C   UNL     1      42.658 -14.200   6.415  1.00  0.00     0.131 C 
BRANCH  13  14
HETATM   14  C   UNL     1      42.347 -14.451   4.957  1.00  0.00    -0.042 A 
HETATM   15  C   UNL     1      41.411 -13.650   4.291  1.00  0.00     0.011 A 
HETATM   16  C   UNL     1      41.125 -13.863   2.939  1.00  0.00     0.040 A 
HETATM   17  C   UNL     1      41.758 -14.891   2.236  1.00  0.00     0.101 A 
HETATM   18  C   UNL     1      42.658 -15.735   2.912  1.00  0.00     0.102 A 
HETATM   19  C   UNL     1      42.960 -15.502   4.260  1.00  0.00     0.048 A 
BRANCH  17  20
HETATM   20  O   UNL     1      41.535 -15.173   0.911  1.00  0.00    -0.353 OA
HETATM   21  C   UNL     1      40.343 -14.659   0.334  1.00  0.00     0.210 C 
ENDBRANCH  17  20
BRANCH  18  22
HETATM   22  O   UNL     1      43.251 -16.729   2.173  1.00  0.00    -0.348 OA
BRANCH  22  23
HETATM   23  C   UNL     1      42.721 -18.040   2.364  1.00  0.00     0.175 C 
BRANCH  23  24
HETATM   24  C   UNL     1      43.892 -18.976   2.653  1.00  0.00     0.022 C 
HETATM   25  C   UNL     1      43.598 -20.402   2.227  1.00  0.00     0.007 C 
ENDBRANCH  23  24
ENDBRANCH  22  23
ENDBRANCH  18  22
ENDBRANCH  13  14
ENDBRANCH  11  13
ENDBRANCH   1  11
BRANCH   8  26
HETATM   26  C   UNL     1      43.652  -7.687   8.997  1.00  0.00     0.270 C 
HETATM   27  N   UNL     1      43.312  -8.038  10.275  1.00  0.00    -0.365 N 
HETATM   28  H   UNL     1      43.746  -8.858  10.683  1.00  0.00     0.159 HD
HETATM   29  H   UNL     1      42.631  -7.496  10.779  1.00  0.00     0.159 HD
HETATM   30  O   UNL     1      43.149  -6.709   8.449  1.00  0.00    -0.266 OA
ENDBRANCH   8  26
TORSDOF 8
ENDMDL
MODEL 6
REMARK VINA RESULT:      -7.5      1.777      2.164
REMARK  8 active torsions:
REMARK  status: ('A' for Active; 'I' for Inactive)
REMARK    1  A    between atoms: C_2  and  C_3 
REMARK    2  A    between atoms: C_3  and  O_4 
REMARK    3  A    between atoms: O_4  and  C_5 
REMARK    4  A    between atoms: C_6  and  O_7 
REMARK    5  A    between atoms: C_11  and  C_12 
REMARK    6  A    between atoms: C_12  and  N_13 
REMARK    7  A    between atoms: N_13  and  C_14 
REMARK    8  A    between atoms: C_21  and  C_22 
REMARK       I    between atoms: C_22  and  N_23 
ROOT
HETATM    1  C   UNL     1      39.992 -13.864   1.236  1.00  0.00     0.009 A 
HETATM    2  C   UNL     1      39.479 -14.336   0.016  1.00  0.00     0.039 A 
HETATM    3  C   UNL     1      39.925 -13.790  -1.206  1.00  0.00     0.030 A 
HETATM    4  C   UNL     1      40.860 -12.764  -1.180  1.00  0.00     0.063 A 
HETATM    5  N   UNL     1      41.086 -12.447  -2.490  1.00  0.00    -0.277 N 
HETATM    6  H   UNL     1      41.713 -11.736  -2.850  1.00  0.00     0.189 HD
HETATM    7  N   UNL     1      40.373 -13.171  -3.371  1.00  0.00    -0.168 NA
HETATM    8  C   UNL     1      39.647 -14.004  -2.589  1.00  0.00     0.156 A 
HETATM    9  C   UNL     1      41.374 -12.238   0.005  1.00  0.00     0.034 A 
HETATM   10  C   UNL     1      40.905 -12.798   1.203  1.00  0.00     0.026 A 
ENDROOT
BRANCH   1  11
HETATM   11  N   UNL     1      39.525 -14.302   2.481  1.00  0.00    -0.289 NA
HETATM   12  H   UNL     1      38.537 -14.539   2.463  1.00  0.00     0.128 HD
BRANCH  11  13
HETATM   13  C   UNL     1      39.895 -13.565   3.681  1.00  0.00     0.131 C 
BRANCH  13  14
HETATM   14  C   UNL     1      41.032 -14.284   4.371  1.00  0.00    -0.042 A 
HETATM   15  C   UNL     1      41.686 -13.685   5.455  1.00  0.00     0.011 A 
HETATM   16  C   UNL     1      42.729 -14.345   6.111  1.00  0.00     0.040 A 
HETATM   17  C   UNL     1      43.144 -15.609   5.684  1.00  0.00     0.101 A 
HETATM   18  C   UNL     1      42.529 -16.193   4.562  1.00  0.00     0.102 A 
HETATM   19  C   UNL     1      41.469 -15.539   3.923  1.00  0.00     0.048 A 
BRANCH  17  20
HETATM   20  O   UNL     1      44.161 -16.326   6.265  1.00  0.00    -0.353 OA
HETATM   21  C   UNL     1      43.927 -16.831   7.572  1.00  0.00     0.210 C 
ENDBRANCH  17  20
BRANCH  18  22
HETATM   22  O   UNL     1      42.978 -17.435   4.185  1.00  0.00    -0.348 OA
BRANCH  22  23
HETATM   23  C   UNL     1      43.464 -17.536   2.847  1.00  0.00     0.175 C 
BRANCH  23  24
HETATM   24  C   UNL     1      42.792 -18.744   2.200  1.00  0.00     0.022 C 
HETATM   25  C   UNL     1      43.669 -19.982   2.260  1.00  0.00     0.007 C 
ENDBRANCH  23  24
ENDBRANCH  22  23
ENDBRANCH  18  22
ENDBRANCH  13  14
ENDBRANCH  11  13
ENDBRANCH   1  11
BRANCH   8  26
HETATM   26  C   UNL     1      38.709 -14.975  -3.168  1.00  0.00     0.270 C 
HETATM   27  N   UNL     1      38.508 -16.087  -2.397  1.00  0.00    -0.365 N 
HETATM   28  H   UNL     1      39.006 -16.163  -1.518  1.00  0.00     0.159 HD
HETATM   29  H   UNL     1      37.891 -16.815  -2.718  1.00  0.00     0.159 HD
HETATM   30  O   UNL     1      38.140 -14.836  -4.247  1.00  0.00    -0.266 OA
ENDBRANCH   8  26
TORSDOF 8
ENDMDL
MODEL 7
REMARK VINA RESULT:      -7.5      4.252      6.143
REMARK  8 active torsions:
REMARK  status: ('A' for Active; 'I' for Inactive)
REMARK    1  A    between atoms: C_2  and  C_3 
REMARK    2  A    between atoms: C_3  and  O_4 
REMARK    3  A    between atoms: O_4  and  C_5 
REMARK    4  A    between atoms: C_6  and  O_7 
REMARK    5  A    between atoms: C_11  and  C_12 
REMARK    6  A    between atoms: C_12  and  N_13 
REMARK    7  A    between atoms: N_13  and  C_14 
REMARK    8  A    between atoms: C_21  and  C_22 
REMARK       I    between atoms: C_22  and  N_23 
ROOT
HETATM    1  C   UNL     1      41.960 -13.747   2.947  1.00  0.00     0.009 A 
HETATM    2  C   UNL     1      41.127 -13.280   3.977  1.00  0.00     0.039 A 
HETATM    3  C   UNL     1      41.473 -12.123   4.707  1.00  0.00     0.030 A 
HETATM    4  C   UNL     1      42.660 -11.471   4.405  1.00  0.00     0.063 A 
HETATM    5  N   UNL     1      42.720 -10.411   5.267  1.00  0.00    -0.277 N 
HETATM    6  H   UNL     1      43.454  -9.715   5.333  1.00  0.00     0.189 HD
HETATM    7  N   UNL     1      41.678 -10.320   6.112  1.00  0.00    -0.168 NA
HETATM    8  C   UNL     1      40.900 -11.375   5.779  1.00  0.00     0.156 A 
HETATM    9  C   UNL     1      43.537 -11.914   3.416  1.00  0.00     0.034 A 
HETATM   10  C   UNL     1      43.168 -13.070   2.713  1.00  0.00     0.026 A 
ENDROOT
BRANCH   1  11
HETATM   11  N   UNL     1      41.718 -14.936   2.248  1.00  0.00    -0.289 NA
HETATM   12  H   UNL     1      41.079 -15.553   2.742  1.00  0.00     0.128 HD
BRANCH  11  13
HETATM   13  C   UNL     1      42.836 -15.656   1.656  1.00  0.00     0.131 C 
BRANCH  13  14
HETATM   14  C   UNL     1      43.248 -16.777   2.582  1.00  0.00    -0.042 A 
HETATM   15  C   UNL     1      43.288 -18.097   2.114  1.00  0.00     0.011 A 
HETATM   16  C   UNL     1      43.681 -19.140   2.956  1.00  0.00     0.040 A 
HETATM   17  C   UNL     1      44.025 -18.883   4.286  1.00  0.00     0.101 A 
HETATM   18  C   UNL     1      43.933 -17.569   4.780  1.00  0.00     0.102 A 
HETATM   19  C   UNL     1      43.563 -16.523   3.925  1.00  0.00     0.048 A 
BRANCH  17  20
HETATM   20  O   UNL     1      44.417 -19.846   5.183  1.00  0.00    -0.353 OA
HETATM   21  C   UNL     1      43.818 -21.128   5.056  1.00  0.00     0.210 C 
ENDBRANCH  17  20
BRANCH  18  22
HETATM   22  O   UNL     1      44.282 -17.374   6.094  1.00  0.00    -0.348 OA
BRANCH  22  23
HETATM   23  C   UNL     1      43.195 -17.308   7.017  1.00  0.00     0.175 C 
BRANCH  23  24
HETATM   24  C   UNL     1      43.222 -15.927   7.666  1.00  0.00     0.022 C 
HETATM   25  C   UNL     1      42.228 -14.978   7.021  1.00  0.00     0.007 C 
ENDBRANCH  23  24
ENDBRANCH  22  23
ENDBRANCH  18  22
ENDBRANCH  13  14
ENDBRANCH  11  13
ENDBRANCH   1  11
BRANCH   8  26
HETATM   26  C   UNL     1      39.640 -11.652   6.483  1.00  0.00     0.270 C 
HETATM   27  N   UNL     1      39.442 -10.885   7.598  1.00  0.00    -0.365 N 
HETATM   28  H   UNL     1      40.153 -10.210   7.854  1.00  0.00     0.159 HD
HETATM   29  H   UNL     1      38.612 -11.013   8.153  1.00  0.00     0.159 HD
HETATM   30  O   UNL     1      38.817 -12.492   6.131  1.00  0.00    -0.266 OA
ENDBRANCH   8  26
TORSDOF 8
ENDMDL
MODEL 8
REMARK VINA RESULT:      -7.4      3.858      7.969
REMARK  8 active torsions:
REMARK  status: ('A' for Active; 'I' for Inactive)
REMARK    1  A    between atoms: C_2  and  C_3 
REMARK    2  A    between atoms: C_3  and  O_4 
REMARK    3  A    between atoms: O_4  and  C_5 
REMARK    4  A    between atoms: C_6  and  O_7 
REMARK    5  A    between atoms: C_11  and  C_12 
REMARK    6  A    between atoms: C_12  and  N_13 
REMARK    7  A    between atoms: N_13  and  C_14 
REMARK    8  A    between atoms: C_21  and  C_22 
REMARK       I    between atoms: C_22  and  N_23 
ROOT
HETATM    1  C   UNL     1      41.506 -16.462   2.518  1.00  0.00     0.009 A 
HETATM    2  C   UNL     1      41.532 -16.256   3.907  1.00  0.00     0.039 A 
HETATM    3  C   UNL     1      42.552 -16.829   4.696  1.00  0.00     0.030 A 
HETATM    4  C   UNL     1      43.513 -17.617   4.079  1.00  0.00     0.063 A 
HETATM    5  N   UNL     1      44.345 -18.026   5.084  1.00  0.00    -0.277 N 
HETATM    6  H   UNL     1      45.162 -18.621   4.999  1.00  0.00     0.189 HD
HETATM    7  N   UNL     1      44.006 -17.579   6.306  1.00  0.00    -0.168 NA
HETATM    8  C   UNL     1      42.896 -16.840   6.081  1.00  0.00     0.156 A 
HETATM    9  C   UNL     1      43.511 -17.881   2.709  1.00  0.00     0.034 A 
HETATM   10  C   UNL     1      42.480 -17.302   1.954  1.00  0.00     0.026 A 
ENDROOT
BRANCH   1  11
HETATM   11  N   UNL     1      40.473 -15.996   1.695  1.00  0.00    -0.289 NA
HETATM   12  H   UNL     1      40.069 -16.735   1.125  1.00  0.00     0.128 HD
BRANCH  11  13
HETATM   13  C   UNL     1      40.657 -14.759   0.950  1.00  0.00     0.131 C 
BRANCH  13  14
HETATM   14  C   UNL     1      40.593 -13.592   1.908  1.00  0.00    -0.042 A 
HETATM   15  C   UNL     1      39.382 -13.259   2.530  1.00  0.00     0.011 A 
HETATM   16  C   UNL     1      39.313 -12.191   3.428  1.00  0.00     0.040 A 
HETATM   17  C   UNL     1      40.449 -11.428   3.707  1.00  0.00     0.101 A 
HETATM   18  C   UNL     1      41.655 -11.720   3.046  1.00  0.00     0.102 A 
HETATM   19  C   UNL     1      41.726 -12.807   2.165  1.00  0.00     0.048 A 
BRANCH  17  20
HETATM   20  O   UNL     1      40.471 -10.360   4.571  1.00  0.00    -0.353 OA
HETATM   21  C   UNL     1      40.339 -10.650   5.956  1.00  0.00     0.210 C 
ENDBRANCH  17  20
BRANCH  18  22
HETATM   22  O   UNL     1      42.740 -10.937   3.358  1.00  0.00    -0.348 OA
BRANCH  22  23
HETATM   23  C   UNL     1      43.926 -11.643   3.724  1.00  0.00     0.175 C 
BRANCH  23  24
HETATM   24  C   UNL     1      43.853 -11.925   5.222  1.00  0.00     0.022 C 
HETATM   25  C   UNL     1      45.074 -11.403   5.958  1.00  0.00     0.007 C 
ENDBRANCH  23  24
ENDBRANCH  22  23
ENDBRANCH  18  22
ENDBRANCH  13  14
ENDBRANCH  11  13
ENDBRANCH   1  11
BRANCH   8  26
HETATM   26  C   UNL     1      42.187 -16.167   7.178  1.00  0.00     0.270 C 
HETATM   27  N   UNL     1      42.992 -15.796   8.220  1.00  0.00    -0.365 N 
HETATM   28  H   UNL     1      43.981 -16.009   8.168  1.00  0.00     0.159 HD
HETATM   29  H   UNL     1      42.593 -15.341   9.024  1.00  0.00     0.159 HD
HETATM   30  O   UNL     1      40.980 -15.944   7.194  1.00  0.00    -0.266 OA
ENDBRANCH   8  26
TORSDOF 8
ENDMDL
MODEL 9
REMARK VINA RESULT:      -7.3      5.359      8.828
REMARK  8 active torsions:
REMARK  status: ('A' for Active; 'I' for Inactive)
REMARK    1  A    between atoms: C_2  and  C_3 
REMARK    2  A    between atoms: C_3  and  O_4 
REMARK    3  A    between atoms: O_4  and  C_5 
REMARK    4  A    between atoms: C_6  and  O_7 
REMARK    5  A    between atoms: C_11  and  C_12 
REMARK    6  A    between atoms: C_12  and  N_13 
REMARK    7  A    between atoms: N_13  and  C_14 
REMARK    8  A    between atoms: C_21  and  C_22 
REMARK       I    between atoms: C_22  and  N_23 
ROOT
HETATM    1  C   UNL     1      43.042 -15.663   4.167  1.00  0.00     0.009 A 
HETATM    2  C   UNL     1      43.292 -16.922   4.738  1.00  0.00     0.039 A 
HETATM    3  C   UNL     1      43.495 -18.052   3.916  1.00  0.00     0.030 A 
HETATM    4  C   UNL     1      43.418 -17.900   2.539  1.00  0.00     0.063 A 
HETATM    5  N   UNL     1      43.648 -19.146   2.025  1.00  0.00    -0.277 N 
HETATM    6  H   UNL     1      43.666 -19.412   1.047  1.00  0.00     0.189 HD
HETATM    7  N   UNL     1      43.860 -20.100   2.949  1.00  0.00    -0.168 NA
HETATM    8  C   UNL     1      43.764 -19.437   4.124  1.00  0.00     0.156 A 
HETATM    9  C   UNL     1      43.138 -16.679   1.925  1.00  0.00     0.034 A 
HETATM   10  C   UNL     1      42.936 -15.578   2.770  1.00  0.00     0.026 A 
ENDROOT
BRANCH   1  11
HETATM   11  N   UNL     1      42.745 -14.525   4.927  1.00  0.00    -0.289 NA
HETATM   12  H   UNL     1      42.529 -13.717   4.348  1.00  0.00     0.128 HD
BRANCH  11  13
HETATM   13  C   UNL     1      43.593 -14.183   6.060  1.00  0.00     0.131 C 
BRANCH  13  14
HETATM   14  C   UNL     1      43.369 -12.733   6.425  1.00  0.00    -0.042 A 
HETATM   15  C   UNL     1      42.159 -12.106   6.101  1.00  0.00     0.011 A 
HETATM   16  C   UNL     1      41.934 -10.770   6.446  1.00  0.00     0.040 A 
HETATM   17  C   UNL     1      42.922 -10.035   7.105  1.00  0.00     0.101 A 
HETATM   18  C   UNL     1      44.160 -10.641   7.384  1.00  0.00     0.102 A 
HETATM   19  C   UNL     1      44.372 -11.986   7.059  1.00  0.00     0.048 A 
BRANCH  17  20
HETATM   20  O   UNL     1      42.788  -8.720   7.477  1.00  0.00    -0.353 OA
HETATM   21  C   UNL     1      41.466  -8.229   7.645  1.00  0.00     0.210 C 
ENDBRANCH  17  20
BRANCH  18  22
HETATM   22  O   UNL     1      45.095  -9.871   8.033  1.00  0.00    -0.348 OA
BRANCH  22  23
HETATM   23  C   UNL     1      45.495 -10.340   9.320  1.00  0.00     0.175 C 
BRANCH  23  24
HETATM   24  C   UNL     1      44.729  -9.534  10.366  1.00  0.00     0.022 C 
HETATM   25  C   UNL     1      43.769 -10.401  11.159  1.00  0.00     0.007 C 
ENDBRANCH  23  24
ENDBRANCH  22  23
ENDBRANCH  18  22
ENDBRANCH  13  14
ENDBRANCH  11  13
ENDBRANCH   1  11
BRANCH   8  26
HETATM   26  C   UNL     1      43.925 -20.129   5.410  1.00  0.00     0.270 C 
HETATM   27  N   UNL     1      44.693 -21.259   5.345  1.00  0.00    -0.365 N 
HETATM   28  H   UNL     1      45.076 -21.534   4.448  1.00  0.00     0.159 HD
HETATM   29  H   UNL     1      44.849 -21.808   6.175  1.00  0.00     0.159 HD
HETATM   30  O   UNL     1      43.427 -19.756   6.469  1.00  0.00    -0.266 OA
ENDBRANCH   8  26
TORSDOF 8
ENDMDL
MODEL 10
REMARK VINA RESULT:      -7.2      3.199      9.357
REMARK  8 active torsions:
REMARK  status: ('A' for Active; 'I' for Inactive)
REMARK    1  A    between atoms: C_2  and  C_3 
REMARK    2  A    between atoms: C_3  and  O_4 
REMARK    3  A    between atoms: O_4  and  C_5 
REMARK    4  A    between atoms: C_6  and  O_7 
REMARK    5  A    between atoms: C_11  and  C_12 
REMARK    6  A    between atoms: C_12  and  N_13 
REMARK    7  A    between atoms: N_13  and  C_14 
REMARK    8  A    between atoms: C_21  and  C_22 
REMARK       I    between atoms: C_22  and  N_23 
ROOT
HETATM    1  C   UNL     1      43.108 -15.973   2.508  1.00  0.00     0.009 A 
HETATM    2  C   UNL     1      42.832 -15.798   3.874  1.00  0.00     0.039 A 
HETATM    3  C   UNL     1      43.073 -16.843   4.791  1.00  0.00     0.030 A 
HETATM    4  C   UNL     1      43.562 -18.052   4.316  1.00  0.00     0.063 A 
HETATM    5  N   UNL     1      43.684 -18.851   5.419  1.00  0.00    -0.277 N 
HETATM    6  H   UNL     1      44.012 -19.810   5.447  1.00  0.00     0.189 HD
HETATM    7  N   UNL     1      43.308 -18.272   6.572  1.00  0.00    -0.168 NA
HETATM    8  C   UNL     1      42.924 -17.030   6.198  1.00  0.00     0.156 A 
HETATM    9  C   UNL     1      43.819 -18.286   2.965  1.00  0.00     0.034 A 
HETATM   10  C   UNL     1      43.564 -17.230   2.079  1.00  0.00     0.026 A 
ENDROOT
BRANCH   1  11
HETATM   11  N   UNL     1      42.808 -15.008   1.539  1.00  0.00    -0.289 NA
HETATM   12  H   UNL     1      43.623 -14.742   0.991  1.00  0.00     0.128 HD
BRANCH  11  13
HETATM   13  C   UNL     1      41.988 -13.861   1.903  1.00  0.00     0.131 C 
BRANCH  13  14
HETATM   14  C   UNL     1      41.016 -13.573   0.782  1.00  0.00    -0.042 A 
HETATM   15  C   UNL     1      40.450 -14.627   0.054  1.00  0.00     0.011 A 
HETATM   16  C   UNL     1      39.539 -14.375  -0.975  1.00  0.00     0.040 A 
HETATM   17  C   UNL     1      39.191 -13.062  -1.304  1.00  0.00     0.101 A 
HETATM   18  C   UNL     1      39.796 -11.996  -0.614  1.00  0.00     0.102 A 
HETATM   19  C   UNL     1      40.690 -12.254   0.432  1.00  0.00     0.048 A 
BRANCH  17  20
HETATM   20  O   UNL     1      38.309 -12.722  -2.300  1.00  0.00    -0.353 OA
HETATM   21  C   UNL     1      37.586 -13.782  -2.910  1.00  0.00     0.210 C 
ENDBRANCH  17  20
BRANCH  18  22
HETATM   22  O   UNL     1      39.418 -10.727  -0.979  1.00  0.00    -0.348 OA
BRANCH  22  23
HETATM   23  C   UNL     1      40.483  -9.799  -1.182  1.00  0.00     0.175 C 
BRANCH  23  24
HETATM   24  C   UNL     1      40.965  -9.954  -2.622  1.00  0.00     0.022 C 
HETATM   25  C   UNL     1      39.839  -9.760  -3.621  1.00  0.00     0.007 C 
ENDBRANCH  23  24
ENDBRANCH  22  23
ENDBRANCH  18  22
ENDBRANCH  13  14
ENDBRANCH  11  13
ENDBRANCH   1  11
BRANCH   8  26
HETATM   26  C   UNL     1      42.423 -16.055   7.177  1.00  0.00     0.270 C 
HETATM   27  N   UNL     1      43.189 -15.951   8.306  1.00  0.00    -0.365 N 
HETATM   28  H   UNL     1      44.012 -16.536   8.388  1.00  0.00     0.159 HD
HETATM   29  H   UNL     1      42.917 -15.318   9.039  1.00  0.00     0.159 HD
HETATM   30  O   UNL     1      41.410 -15.378   7.029  1.00  0.00    -0.266 OA
ENDBRANCH   8  26
TORSDOF 8
ENDMDL
