MODEL 1
REMARK VINA RESULT:      -9.1      0.000      0.000
REMARK  8 active torsions:
REMARK  status: ('A' for Active; 'I' for Inactive)
REMARK    1  A    between atoms: C_6  and  N_7 
REMARK       I    between atoms: N_7  and  C_8 
REMARK    2  A    between atoms: C_8  and  C_9 
REMARK    3  A    between atoms: C_9  and  N_10 
REMARK       I    between atoms: N_10  and  C_11 
REMARK    4  A    between atoms: C_11  and  C_12 
REMARK    5  A    between atoms: C_12  and  S_13 
REMARK    6  A    between atoms: S_13  and  C_14 
REMARK    7  A    between atoms: C_16  and  C_17 
REMARK    8  A    between atoms: C_20  and  O_21 
ROOT
HETATM    1  N   UNL     1      42.331 -13.191   6.167  1.00  0.00    -0.352 N 
HETATM    2  C   UNL     1      42.241 -11.858   5.861  1.00  0.00     0.227 C 
HETATM    3  O   UNL     1      41.154 -11.290   5.754  1.00  0.00    -0.273 OA
HETATM    4  H   UNL     1      43.255 -13.581   6.348  1.00  0.00     0.162 HD
ENDROOT
BRANCH   2   5
HETATM    5  C   UNL     1      43.566 -11.149   5.619  1.00  0.00     0.185 C 
BRANCH   5   6
HETATM    6  S   UNL     1      44.947 -11.923   6.519  1.00  0.00    -0.081 SA
BRANCH   6   7
HETATM    7  C   UNL     1      44.973 -10.997   7.966  1.00  0.00     0.185 A 
HETATM    8  N   UNL     1      44.104 -11.029   8.942  1.00  0.00    -0.201 NA
HETATM    9  C   UNL     1      44.561 -10.056   9.811  1.00  0.00     0.182 A 
HETATM   10  N   UNL     1      45.686  -9.447   9.396  1.00  0.00    -0.152 NA
HETATM   11  N   UNL     1      45.919 -10.058   8.219  1.00  0.00    -0.253 N 
HETATM   12  H   UNL     1      46.714  -9.785   7.653  1.00  0.00     0.191 HD
BRANCH   9  13
HETATM   13  C   UNL     1      43.835  -9.728  11.035  1.00  0.00     0.014 A 
HETATM   14  C   UNL     1      43.659  -8.390  11.410  1.00  0.00     0.018 A 
HETATM   15  C   UNL     1      42.995  -8.063  12.596  1.00  0.00     0.037 A 
HETATM   16  C   UNL     1      42.492  -9.064  13.427  1.00  0.00     0.068 A 
HETATM   17  C   UNL     1      42.652 -10.400  13.058  1.00  0.00     0.037 A 
HETATM   18  C   UNL     1      43.321 -10.729  11.870  1.00  0.00     0.018 A 
BRANCH  16  19
HETATM   19  O   UNL     1      41.872  -8.606  14.556  1.00  0.00    -0.356 OA
HETATM   20  C   UNL     1      40.769  -7.727  14.373  1.00  0.00     0.210 C 
ENDBRANCH  16  19
ENDBRANCH   9  13
ENDBRANCH   6   7
ENDBRANCH   5   6
ENDBRANCH   2   5
BRANCH   1  21
HETATM   21  C   UNL     1      41.183 -14.042   6.410  1.00  0.00     0.225 C 
BRANCH  21  22
HETATM   22  C   UNL     1      41.190 -15.325   5.567  1.00  0.00     0.239 C 
HETATM   23  N   UNL     1      42.301 -15.414   4.740  1.00  0.00    -0.325 N 
HETATM   24  H   UNL     1      43.041 -14.748   4.962  1.00  0.00     0.169 HD
HETATM   25  O   UNL     1      40.345 -16.199   5.743  1.00  0.00    -0.271 OA
BRANCH  23  26
HETATM   26  C   UNL     1      42.680 -16.571   4.026  1.00  0.00     0.046 A 
HETATM   27  C   UNL     1      42.073 -16.944   2.811  1.00  0.00    -0.034 A 
HETATM   28  C   UNL     1      42.486 -18.130   2.175  1.00  0.00     0.015 A 
HETATM   29  C   UNL     1      41.026 -16.119   2.111  1.00  0.00     0.050 C 
HETATM   30  C   UNL     1      43.512 -18.920   2.699  1.00  0.00    -0.061 A 
HETATM   31  C   UNL     1      43.962 -20.167   1.999  1.00  0.00     0.048 C 
HETATM   32  C   UNL     1      44.151 -18.505   3.870  1.00  0.00     0.015 A 
HETATM   33  C   UNL     1      43.748 -17.339   4.542  1.00  0.00    -0.034 A 
HETATM   34  C   UNL     1      44.448 -16.976   5.825  1.00  0.00     0.050 C 
ENDBRANCH  23  26
ENDBRANCH  21  22
ENDBRANCH   1  21
TORSDOF 8
ENDMDL
MODEL 2
REMARK VINA RESULT:      -9.1      4.414      8.625
REMARK  8 active torsions:
REMARK  status: ('A' for Active; 'I' for Inactive)
REMARK    1  A    between atoms: C_6  and  N_7 
REMARK       I    between atoms: N_7  and  C_8 
REMARK    2  A    between atoms: C_8  and  C_9 
REMARK    3  A    between atoms: C_9  and  N_10 
REMARK       I    between atoms: N_10  and  C_11 
REMARK    4  A    between atoms: C_11  and  C_12 
REMARK    5  A    between atoms: C_12  and  S_13 
REMARK    6  A    between atoms: S_13  and  C_14 
REMARK    7  A    between atoms: C_16  and  C_17 
REMARK    8  A    between atoms: C_20  and  O_21 
ROOT
HETATM    1  N   UNL     1      41.769 -13.162   6.063  1.00  0.00    -0.352 N 
HETATM    2  C   UNL     1      41.479 -11.833   5.887  1.00  0.00     0.227 C 
HETATM    3  O   UNL     1      40.333 -11.399   6.007  1.00  0.00    -0.273 OA
HETATM    4  H   UNL     1      42.748 -13.444   6.057  1.00  0.00     0.162 HD
ENDROOT
BRANCH   2   5
HETATM    5  C   UNL     1      42.654 -10.951   5.490  1.00  0.00     0.185 C 
BRANCH   5   6
HETATM    6  S   UNL     1      43.657 -11.683   4.158  1.00  0.00    -0.081 SA
BRANCH   6   7
HETATM    7  C   UNL     1      42.626 -11.474   2.799  1.00  0.00     0.185 A 
HETATM    8  N   UNL     1      42.267 -12.383   1.929  1.00  0.00    -0.201 NA
HETATM    9  C   UNL     1      41.497 -11.676   1.025  1.00  0.00     0.182 A 
HETATM   10  N   UNL     1      41.371 -10.371   1.328  1.00  0.00    -0.152 NA
HETATM   11  N   UNL     1      42.103 -10.270   2.452  1.00  0.00    -0.253 N 
HETATM   12  H   UNL     1      42.208  -9.374   2.912  1.00  0.00     0.191 HD
BRANCH   9  13
HETATM   13  C   UNL     1      40.929 -12.320  -0.156  1.00  0.00     0.014 A 
HETATM   14  C   UNL     1      41.139 -11.768  -1.426  1.00  0.00     0.018 A 
HETATM   15  C   UNL     1      40.574 -12.356  -2.561  1.00  0.00     0.037 A 
HETATM   16  C   UNL     1      39.791 -13.505  -2.450  1.00  0.00     0.068 A 
HETATM   17  C   UNL     1      39.584 -14.069  -1.191  1.00  0.00     0.037 A 
HETATM   18  C   UNL     1      40.149 -13.479  -0.051  1.00  0.00     0.018 A 
BRANCH  16  19
HETATM   19  O   UNL     1      39.295 -13.971  -3.636  1.00  0.00    -0.356 OA
HETATM   20  C   UNL     1      38.125 -14.776  -3.574  1.00  0.00     0.210 C 
ENDBRANCH  16  19
ENDBRANCH   9  13
ENDBRANCH   6   7
ENDBRANCH   5   6
ENDBRANCH   2   5
BRANCH   1  21
HETATM   21  C   UNL     1      40.783 -14.162   6.419  1.00  0.00     0.225 C 
BRANCH  21  22
HETATM   22  C   UNL     1      40.904 -15.453   5.597  1.00  0.00     0.239 C 
HETATM   23  N   UNL     1      42.012 -15.451   4.761  1.00  0.00    -0.325 N 
HETATM   24  H   UNL     1      42.688 -14.715   4.965  1.00  0.00     0.169 HD
HETATM   25  O   UNL     1      40.147 -16.400   5.795  1.00  0.00    -0.271 OA
BRANCH  23  26
HETATM   26  C   UNL     1      42.493 -16.579   4.063  1.00  0.00     0.046 A 
HETATM   27  C   UNL     1      41.996 -16.957   2.800  1.00  0.00    -0.034 A 
HETATM   28  C   UNL     1      42.506 -18.114   2.181  1.00  0.00     0.015 A 
HETATM   29  C   UNL     1      40.971 -16.164   2.034  1.00  0.00     0.050 C 
HETATM   30  C   UNL     1      43.522 -18.870   2.771  1.00  0.00    -0.061 A 
HETATM   31  C   UNL     1      44.076 -20.085   2.090  1.00  0.00     0.048 C 
HETATM   32  C   UNL     1      44.052 -18.449   3.993  1.00  0.00     0.015 A 
HETATM   33  C   UNL     1      43.550 -17.311   4.648  1.00  0.00    -0.034 A 
HETATM   34  C   UNL     1      44.135 -16.942   5.986  1.00  0.00     0.050 C 
ENDBRANCH  23  26
ENDBRANCH  21  22
ENDBRANCH   1  21
TORSDOF 8
ENDMDL
MODEL 3
REMARK VINA RESULT:      -9.1      1.416      2.460
REMARK  8 active torsions:
REMARK  status: ('A' for Active; 'I' for Inactive)
REMARK    1  A    between atoms: C_6  and  N_7 
REMARK       I    between atoms: N_7  and  C_8 
REMARK    2  A    between atoms: C_8  and  C_9 
REMARK    3  A    between atoms: C_9  and  N_10 
REMARK       I    between atoms: N_10  and  C_11 
REMARK    4  A    between atoms: C_11  and  C_12 
REMARK    5  A    between atoms: C_12  and  S_13 
REMARK    6  A    between atoms: S_13  and  C_14 
REMARK    7  A    between atoms: C_16  and  C_17 
REMARK    8  A    between atoms: C_20  and  O_21 
ROOT
HETATM    1  N   UNL     1      42.089 -12.971   6.727  1.00  0.00    -0.352 N 
HETATM    2  C   UNL     1      42.899 -11.897   6.462  1.00  0.00     0.227 C 
HETATM    3  O   UNL     1      42.761 -11.218   5.444  1.00  0.00    -0.273 OA
HETATM    4  H   UNL     1      42.180 -13.428   7.633  1.00  0.00     0.162 HD
ENDROOT
BRANCH   2   5
HETATM    5  C   UNL     1      44.000 -11.637   7.480  1.00  0.00     0.185 C 
BRANCH   5   6
HETATM    6  S   UNL     1      44.093  -9.887   7.975  1.00  0.00    -0.081 SA
BRANCH   6   7
HETATM    7  C   UNL     1      43.667  -9.978   9.637  1.00  0.00     0.185 A 
HETATM    8  N   UNL     1      43.340  -8.988  10.426  1.00  0.00    -0.201 NA
HETATM    9  C   UNL     1      43.159  -9.601  11.652  1.00  0.00     0.182 A 
HETATM   10  N   UNL     1      43.356 -10.931  11.625  1.00  0.00    -0.152 NA
HETATM   11  N   UNL     1      43.686 -11.141  10.337  1.00  0.00    -0.253 N 
HETATM   12  H   UNL     1      43.913 -12.074  10.015  1.00  0.00     0.191 HD
BRANCH   9  13
HETATM   13  C   UNL     1      42.825  -8.829  12.846  1.00  0.00     0.014 A 
HETATM   14  C   UNL     1      43.529  -7.655  13.143  1.00  0.00     0.018 A 
HETATM   15  C   UNL     1      43.241  -6.923  14.299  1.00  0.00     0.037 A 
HETATM   16  C   UNL     1      42.245  -7.349  15.178  1.00  0.00     0.068 A 
HETATM   17  C   UNL     1      41.530  -8.510  14.886  1.00  0.00     0.037 A 
HETATM   18  C   UNL     1      41.819  -9.246  13.727  1.00  0.00     0.018 A 
BRANCH  16  19
HETATM   19  O   UNL     1      42.072  -6.545  16.270  1.00  0.00    -0.356 OA
HETATM   20  C   UNL     1      41.714  -7.183  17.490  1.00  0.00     0.210 C 
ENDBRANCH  16  19
ENDBRANCH   9  13
ENDBRANCH   6   7
ENDBRANCH   5   6
ENDBRANCH   2   5
BRANCH   1  21
HETATM   21  C   UNL     1      41.001 -13.393   5.867  1.00  0.00     0.225 C 
BRANCH  21  22
HETATM   22  C   UNL     1      41.134 -14.845   5.390  1.00  0.00     0.239 C 
HETATM   23  N   UNL     1      42.106 -14.998   4.412  1.00  0.00    -0.325 N 
HETATM   24  H   UNL     1      42.726 -14.195   4.309  1.00  0.00     0.169 HD
HETATM   25  O   UNL     1      40.513 -15.750   5.942  1.00  0.00    -0.271 OA
BRANCH  23  26
HETATM   26  C   UNL     1      42.595 -16.240   3.952  1.00  0.00     0.046 A 
HETATM   27  C   UNL     1      43.585 -16.968   4.642  1.00  0.00    -0.034 A 
HETATM   28  C   UNL     1      44.042 -18.184   4.101  1.00  0.00     0.015 A 
HETATM   29  C   UNL     1      44.159 -16.546   5.968  1.00  0.00     0.050 C 
HETATM   30  C   UNL     1      43.509 -18.705   2.921  1.00  0.00    -0.061 A 
HETATM   31  C   UNL     1      43.985 -20.015   2.369  1.00  0.00     0.048 C 
HETATM   32  C   UNL     1      42.482 -18.007   2.280  1.00  0.00     0.015 A 
HETATM   33  C   UNL     1      42.018 -16.779   2.780  1.00  0.00    -0.034 A 
HETATM   34  C   UNL     1      40.943 -16.056   2.012  1.00  0.00     0.050 C 
ENDBRANCH  23  26
ENDBRANCH  21  22
ENDBRANCH   1  21
TORSDOF 8
ENDMDL
MODEL 4
REMARK VINA RESULT:      -9.1      1.192      2.081
REMARK  8 active torsions:
REMARK  status: ('A' for Active; 'I' for Inactive)
REMARK    1  A    between atoms: C_6  and  N_7 
REMARK       I    between atoms: N_7  and  C_8 
REMARK    2  A    between atoms: C_8  and  C_9 
REMARK    3  A    between atoms: C_9  and  N_10 
REMARK       I    between atoms: N_10  and  C_11 
REMARK    4  A    between atoms: C_11  and  C_12 
REMARK    5  A    between atoms: C_12  and  S_13 
REMARK    6  A    between atoms: S_13  and  C_14 
REMARK    7  A    between atoms: C_16  and  C_17 
REMARK    8  A    between atoms: C_20  and  O_21 
ROOT
HETATM    1  N   UNL     1      42.086 -13.731   6.717  1.00  0.00    -0.352 N 
HETATM    2  C   UNL     1      43.102 -13.028   6.122  1.00  0.00     0.227 C 
HETATM    3  O   UNL     1      43.056 -12.704   4.935  1.00  0.00    -0.273 OA
HETATM    4  H   UNL     1      42.129 -13.877   7.724  1.00  0.00     0.162 HD
ENDROOT
BRANCH   2   5
HETATM    5  C   UNL     1      44.298 -12.722   7.012  1.00  0.00     0.185 C 
BRANCH   5   6
HETATM    6  S   UNL     1      45.403 -11.468   6.288  1.00  0.00    -0.081 SA
BRANCH   6   7
HETATM    7  C   UNL     1      45.300 -10.209   7.453  1.00  0.00     0.185 A 
HETATM    8  N   UNL     1      44.391 -10.061   8.382  1.00  0.00    -0.201 NA
HETATM    9  C   UNL     1      44.741  -8.870   8.988  1.00  0.00     0.182 A 
HETATM   10  N   UNL     1      45.840  -8.299   8.462  1.00  0.00    -0.152 NA
HETATM   11  N   UNL     1      46.167  -9.165   7.486  1.00  0.00    -0.253 N 
HETATM   12  H   UNL     1      46.966  -8.983   6.890  1.00  0.00     0.191 HD
BRANCH   9  13
HETATM   13  C   UNL     1      43.940  -8.303  10.069  1.00  0.00     0.014 A 
HETATM   14  C   UNL     1      43.155  -7.165   9.839  1.00  0.00     0.018 A 
HETATM   15  C   UNL     1      42.408  -6.593  10.873  1.00  0.00     0.037 A 
HETATM   16  C   UNL     1      42.429  -7.145  12.153  1.00  0.00     0.068 A 
HETATM   17  C   UNL     1      43.198  -8.285  12.390  1.00  0.00     0.037 A 
HETATM   18  C   UNL     1      43.949  -8.858  11.355  1.00  0.00     0.018 A 
BRANCH  16  19
HETATM   19  O   UNL     1      41.660  -6.483  13.069  1.00  0.00    -0.356 OA
HETATM   20  C   UNL     1      41.388  -7.158  14.291  1.00  0.00     0.210 C 
ENDBRANCH  16  19
ENDBRANCH   9  13
ENDBRANCH   6   7
ENDBRANCH   5   6
ENDBRANCH   2   5
BRANCH   1  21
HETATM   21  C   UNL     1      40.876 -14.137   6.030  1.00  0.00     0.225 C 
BRANCH  21  22
HETATM   22  C   UNL     1      41.001 -15.500   5.336  1.00  0.00     0.239 C 
HETATM   23  N   UNL     1      42.128 -15.588   4.532  1.00  0.00    -0.325 N 
HETATM   24  H   UNL     1      42.808 -14.843   4.682  1.00  0.00     0.169 HD
HETATM   25  O   UNL     1      40.228 -16.417   5.603  1.00  0.00    -0.271 OA
BRANCH  23  26
HETATM   26  C   UNL     1      42.613 -16.781   3.954  1.00  0.00     0.046 A 
HETATM   27  C   UNL     1      43.519 -17.631   4.618  1.00  0.00    -0.034 A 
HETATM   28  C   UNL     1      43.979 -18.788   3.961  1.00  0.00     0.015 A 
HETATM   29  C   UNL     1      43.998 -17.405   6.027  1.00  0.00     0.050 C 
HETATM   30  C   UNL     1      43.526 -19.132   2.685  1.00  0.00    -0.061 A 
HETATM   31  C   UNL     1      44.004 -20.381   2.007  1.00  0.00     0.048 C 
HETATM   32  C   UNL     1      42.579 -18.316   2.064  1.00  0.00     0.015 A 
HETATM   33  C   UNL     1      42.115 -17.143   2.681  1.00  0.00    -0.034 A 
HETATM   34  C   UNL     1      41.129 -16.284   1.934  1.00  0.00     0.050 C 
ENDBRANCH  23  26
ENDBRANCH  21  22
ENDBRANCH   1  21
TORSDOF 8
ENDMDL
MODEL 5
REMARK VINA RESULT:      -9.0      1.791      2.253
REMARK  8 active torsions:
REMARK  status: ('A' for Active; 'I' for Inactive)
REMARK    1  A    between atoms: C_6  and  N_7 
REMARK       I    between atoms: N_7  and  C_8 
REMARK    2  A    between atoms: C_8  and  C_9 
REMARK    3  A    between atoms: C_9  and  N_10 
REMARK       I    between atoms: N_10  and  C_11 
REMARK    4  A    between atoms: C_11  and  C_12 
REMARK    5  A    between atoms: C_12  and  S_13 
REMARK    6  A    between atoms: S_13  and  C_14 
REMARK    7  A    between atoms: C_16  and  C_17 
REMARK    8  A    between atoms: C_20  and  O_21 
ROOT
HETATM    1  N   UNL     1      42.693 -12.053   5.795  1.00  0.00    -0.352 N 
HETATM    2  C   UNL     1      43.483 -12.460   6.840  1.00  0.00     0.227 C 
HETATM    3  O   UNL     1      43.487 -13.628   7.231  1.00  0.00    -0.273 OA
HETATM    4  H   UNL     1      42.811 -11.103   5.447  1.00  0.00     0.162 HD
ENDROOT
BRANCH   2   5
HETATM    5  C   UNL     1      44.309 -11.368   7.504  1.00  0.00     0.185 C 
BRANCH   5   6
HETATM    6  S   UNL     1      43.328  -9.878   7.873  1.00  0.00    -0.081 SA
BRANCH   6   7
HETATM    7  C   UNL     1      43.244  -9.942   9.588  1.00  0.00     0.185 A 
HETATM    8  N   UNL     1      42.804  -9.011  10.395  1.00  0.00    -0.201 NA
HETATM    9  C   UNL     1      43.016  -9.546  11.650  1.00  0.00     0.182 A 
HETATM   10  N   UNL     1      43.561 -10.776  11.628  1.00  0.00    -0.152 NA
HETATM   11  N   UNL     1      43.703 -10.997  10.308  1.00  0.00    -0.253 N 
HETATM   12  H   UNL     1      44.116 -11.861   9.978  1.00  0.00     0.191 HD
BRANCH   9  13
HETATM   13  C   UNL     1      42.700  -8.794  12.861  1.00  0.00     0.014 A 
HETATM   14  C   UNL     1      43.474  -7.681  13.219  1.00  0.00     0.018 A 
HETATM   15  C   UNL     1      43.202  -6.971  14.392  1.00  0.00     0.037 A 
HETATM   16  C   UNL     1      42.154  -7.356  15.228  1.00  0.00     0.068 A 
HETATM   17  C   UNL     1      41.371  -8.456  14.876  1.00  0.00     0.037 A 
HETATM   18  C   UNL     1      41.644  -9.170  13.700  1.00  0.00     0.018 A 
BRANCH  16  19
HETATM   19  O   UNL     1      42.004  -6.580  16.343  1.00  0.00    -0.356 OA
HETATM   20  C   UNL     1      41.476  -7.212  17.503  1.00  0.00     0.210 C 
ENDBRANCH  16  19
ENDBRANCH   9  13
ENDBRANCH   6   7
ENDBRANCH   5   6
ENDBRANCH   2   5
BRANCH   1  21
HETATM   21  C   UNL     1      41.819 -12.938   5.052  1.00  0.00     0.225 C 
BRANCH  21  22
HETATM   22  C   UNL     1      42.577 -14.014   4.261  1.00  0.00     0.239 C 
HETATM   23  N   UNL     1      42.242 -15.301   4.656  1.00  0.00    -0.325 N 
HETATM   24  H   UNL     1      41.408 -15.356   5.241  1.00  0.00     0.169 HD
HETATM   25  O   UNL     1      43.290 -13.710   3.308  1.00  0.00    -0.271 OA
BRANCH  23  26
HETATM   26  C   UNL     1      42.610 -16.475   3.964  1.00  0.00     0.046 A 
HETATM   27  C   UNL     1      42.010 -16.858   2.749  1.00  0.00    -0.034 A 
HETATM   28  C   UNL     1      42.410 -18.061   2.136  1.00  0.00     0.015 A 
HETATM   29  C   UNL     1      40.985 -16.027   2.025  1.00  0.00     0.050 C 
HETATM   30  C   UNL     1      43.417 -18.859   2.684  1.00  0.00    -0.061 A 
HETATM   31  C   UNL     1      43.853 -20.124   2.008  1.00  0.00     0.048 C 
HETATM   32  C   UNL     1      44.050 -18.436   3.855  1.00  0.00     0.015 A 
HETATM   33  C   UNL     1      43.660 -17.253   4.504  1.00  0.00    -0.034 A 
HETATM   34  C   UNL     1      44.351 -16.882   5.789  1.00  0.00     0.050 C 
ENDBRANCH  23  26
ENDBRANCH  21  22
ENDBRANCH   1  21
TORSDOF 8
ENDMDL
MODEL 6
REMARK VINA RESULT:      -8.7      4.400      8.817
REMARK  8 active torsions:
REMARK  status: ('A' for Active; 'I' for Inactive)
REMARK    1  A    between atoms: C_6  and  N_7 
REMARK       I    between atoms: N_7  and  C_8 
REMARK    2  A    between atoms: C_8  and  C_9 
REMARK    3  A    between atoms: C_9  and  N_10 
REMARK       I    between atoms: N_10  and  C_11 
REMARK    4  A    between atoms: C_11  and  C_12 
REMARK    5  A    between atoms: C_12  and  S_13 
REMARK    6  A    between atoms: S_13  and  C_14 
REMARK    7  A    between atoms: C_16  and  C_17 
REMARK    8  A    between atoms: C_20  and  O_21 
ROOT
HETATM    1  N   UNL     1      42.032 -12.619   6.236  1.00  0.00    -0.352 N 
HETATM    2  C   UNL     1      42.876 -11.571   5.973  1.00  0.00     0.227 C 
HETATM    3  O   UNL     1      44.095 -11.670   6.119  1.00  0.00    -0.273 OA
HETATM    4  H   UNL     1      41.047 -12.513   5.994  1.00  0.00     0.162 HD
ENDROOT
BRANCH   2   5
HETATM    5  C   UNL     1      42.203 -10.277   5.539  1.00  0.00     0.185 C 
BRANCH   5   6
HETATM    6  S   UNL     1      40.543 -10.554   4.842  1.00  0.00    -0.081 SA
BRANCH   6   7
HETATM    7  C   UNL     1      40.905 -10.785   3.179  1.00  0.00     0.185 A 
HETATM    8  N   UNL     1      40.260 -11.538   2.325  1.00  0.00    -0.201 NA
HETATM    9  C   UNL     1      40.998 -11.412   1.164  1.00  0.00     0.182 A 
HETATM   10  N   UNL     1      42.062 -10.597   1.286  1.00  0.00    -0.152 NA
HETATM   11  N   UNL     1      41.982 -10.222   2.576  1.00  0.00    -0.253 N 
HETATM   12  H   UNL     1      42.682  -9.605   2.970  1.00  0.00     0.191 HD
BRANCH   9  13
HETATM   13  C   UNL     1      40.641 -12.145  -0.048  1.00  0.00     0.014 A 
HETATM   14  C   UNL     1      39.868 -13.311   0.039  1.00  0.00     0.018 A 
HETATM   15  C   UNL     1      39.546 -14.040  -1.109  1.00  0.00     0.037 A 
HETATM   16  C   UNL     1      39.987 -13.619  -2.364  1.00  0.00     0.068 A 
HETATM   17  C   UNL     1      40.747 -12.453  -2.463  1.00  0.00     0.037 A 
HETATM   18  C   UNL     1      41.072 -11.722  -1.311  1.00  0.00     0.018 A 
BRANCH  16  19
HETATM   19  O   UNL     1      39.606 -14.427  -3.399  1.00  0.00    -0.356 OA
HETATM   20  C   UNL     1      38.224 -14.750  -3.491  1.00  0.00     0.210 C 
ENDBRANCH  16  19
ENDBRANCH   9  13
ENDBRANCH   6   7
ENDBRANCH   5   6
ENDBRANCH   2   5
BRANCH   1  21
HETATM   21  C   UNL     1      42.479 -13.923   6.682  1.00  0.00     0.225 C 
BRANCH  21  22
HETATM   22  C   UNL     1      42.191 -15.041   5.671  1.00  0.00     0.239 C 
HETATM   23  N   UNL     1      43.347 -15.569   5.115  1.00  0.00    -0.325 N 
HETATM   24  H   UNL     1      44.204 -15.303   5.601  1.00  0.00     0.169 HD
HETATM   25  O   UNL     1      41.050 -15.467   5.510  1.00  0.00    -0.271 OA
BRANCH  23  26
HETATM   26  C   UNL     1      43.400 -16.742   4.332  1.00  0.00     0.046 A 
HETATM   27  C   UNL     1      43.571 -18.022   4.895  1.00  0.00    -0.034 A 
HETATM   28  C   UNL     1      43.645 -19.141   4.044  1.00  0.00     0.015 A 
HETATM   29  C   UNL     1      43.633 -18.281   6.377  1.00  0.00     0.050 C 
HETATM   30  C   UNL     1      43.510 -19.015   2.660  1.00  0.00    -0.061 A 
HETATM   31  C   UNL     1      43.563 -20.217   1.766  1.00  0.00     0.048 C 
HETATM   32  C   UNL     1      43.275 -17.749   2.118  1.00  0.00     0.015 A 
HETATM   33  C   UNL     1      43.219 -16.609   2.936  1.00  0.00    -0.034 A 
HETATM   34  C   UNL     1      43.011 -15.269   2.281  1.00  0.00     0.050 C 
ENDBRANCH  23  26
ENDBRANCH  21  22
ENDBRANCH   1  21
TORSDOF 8
ENDMDL
MODEL 7
REMARK VINA RESULT:      -8.3      4.791      8.937
REMARK  8 active torsions:
REMARK  status: ('A' for Active; 'I' for Inactive)
REMARK    1  A    between atoms: C_6  and  N_7 
REMARK       I    between atoms: N_7  and  C_8 
REMARK    2  A    between atoms: C_8  and  C_9 
REMARK    3  A    between atoms: C_9  and  N_10 
REMARK       I    between atoms: N_10  and  C_11 
REMARK    4  A    between atoms: C_11  and  C_12 
REMARK    5  A    between atoms: C_12  and  S_13 
REMARK    6  A    between atoms: S_13  and  C_14 
REMARK    7  A    between atoms: C_16  and  C_17 
REMARK    8  A    between atoms: C_20  and  O_21 
ROOT
HETATM    1  N   UNL     1      40.858 -12.885   6.305  1.00  0.00    -0.352 N 
HETATM    2  C   UNL     1      40.840 -11.649   5.712  1.00  0.00     0.227 C 
HETATM    3  O   UNL     1      41.844 -11.171   5.183  1.00  0.00    -0.273 OA
HETATM    4  H   UNL     1      39.974 -13.274   6.630  1.00  0.00     0.162 HD
ENDROOT
BRANCH   2   5
HETATM    5  C   UNL     1      39.518 -10.900   5.794  1.00  0.00     0.185 C 
BRANCH   5   6
HETATM    6  S   UNL     1      39.511  -9.385   4.783  1.00  0.00    -0.081 SA
BRANCH   6   7
HETATM    7  C   UNL     1      38.820  -9.955   3.317  1.00  0.00     0.185 A 
HETATM    8  N   UNL     1      39.237 -10.952   2.580  1.00  0.00    -0.201 NA
HETATM    9  C   UNL     1      38.372 -10.938   1.502  1.00  0.00     0.182 A 
HETATM   10  N   UNL     1      37.440  -9.971   1.570  1.00  0.00    -0.152 NA
HETATM   11  N   UNL     1      37.753  -9.359   2.726  1.00  0.00    -0.253 N 
HETATM   12  H   UNL     1      37.218  -8.557   3.039  1.00  0.00     0.191 HD
BRANCH   9  13
HETATM   13  C   UNL     1      38.522 -11.880   0.396  1.00  0.00     0.014 A 
HETATM   14  C   UNL     1      39.559 -12.823   0.411  1.00  0.00     0.018 A 
HETATM   15  C   UNL     1      39.732 -13.709  -0.656  1.00  0.00     0.037 A 
HETATM   16  C   UNL     1      38.875 -13.673  -1.755  1.00  0.00     0.068 A 
HETATM   17  C   UNL     1      37.832 -12.746  -1.775  1.00  0.00     0.037 A 
HETATM   18  C   UNL     1      37.658 -11.855  -0.706  1.00  0.00     0.018 A 
BRANCH  16  19
HETATM   19  O   UNL     1      39.162 -14.589  -2.729  1.00  0.00    -0.356 OA
HETATM   20  C   UNL     1      38.175 -14.794  -3.732  1.00  0.00     0.210 C 
ENDBRANCH  16  19
ENDBRANCH   9  13
ENDBRANCH   6   7
ENDBRANCH   5   6
ENDBRANCH   2   5
BRANCH   1  21
HETATM   21  C   UNL     1      42.027 -13.741   6.352  1.00  0.00     0.225 C 
BRANCH  21  22
HETATM   22  C   UNL     1      41.834 -15.070   5.610  1.00  0.00     0.239 C 
HETATM   23  N   UNL     1      42.785 -15.272   4.620  1.00  0.00    -0.325 N 
HETATM   24  H   UNL     1      43.581 -14.636   4.670  1.00  0.00     0.169 HD
HETATM   25  O   UNL     1      40.993 -15.884   5.984  1.00  0.00    -0.271 OA
BRANCH  23  26
HETATM   26  C   UNL     1      42.987 -16.489   3.935  1.00  0.00     0.046 A 
HETATM   27  C   UNL     1      42.312 -16.807   2.740  1.00  0.00    -0.034 A 
HETATM   28  C   UNL     1      42.545 -18.056   2.134  1.00  0.00     0.015 A 
HETATM   29  C   UNL     1      41.378 -15.863   2.031  1.00  0.00     0.050 C 
HETATM   30  C   UNL     1      43.459 -18.967   2.667  1.00  0.00    -0.061 A 
HETATM   31  C   UNL     1      43.718 -20.283   1.997  1.00  0.00     0.048 C 
HETATM   32  C   UNL     1      44.170 -18.614   3.816  1.00  0.00     0.015 A 
HETATM   33  C   UNL     1      43.946 -17.385   4.459  1.00  0.00    -0.034 A 
HETATM   34  C   UNL     1      44.713 -17.089   5.721  1.00  0.00     0.050 C 
ENDBRANCH  23  26
ENDBRANCH  21  22
ENDBRANCH   1  21
TORSDOF 8
ENDMDL
MODEL 8
REMARK VINA RESULT:      -8.2      5.190      8.686
REMARK  8 active torsions:
REMARK  status: ('A' for Active; 'I' for Inactive)
REMARK    1  A    between atoms: C_6  and  N_7 
REMARK       I    between atoms: N_7  and  C_8 
REMARK    2  A    between atoms: C_8  and  C_9 
REMARK    3  A    between atoms: C_9  and  N_10 
REMARK       I    between atoms: N_10  and  C_11 
REMARK    4  A    between atoms: C_11  and  C_12 
REMARK    5  A    between atoms: C_12  and  S_13 
REMARK    6  A    between atoms: S_13  and  C_14 
REMARK    7  A    between atoms: C_16  and  C_17 
REMARK    8  A    between atoms: C_20  and  O_21 
ROOT
HETATM    1  N   UNL     1      39.715 -11.244   3.328  1.00  0.00    -0.352 N 
HETATM    2  C   UNL     1      39.349 -10.301   2.403  1.00  0.00     0.227 C 
HETATM    3  O   UNL     1      38.402  -9.538   2.596  1.00  0.00    -0.273 OA
HETATM    4  H   UNL     1      40.570 -11.773   3.161  1.00  0.00     0.162 HD
ENDROOT
BRANCH   2   5
HETATM    5  C   UNL     1      40.159 -10.295   1.114  1.00  0.00     0.185 C 
BRANCH   5   6
HETATM    6  S   UNL     1      39.340 -11.215  -0.228  1.00  0.00    -0.081 SA
BRANCH   6   7
HETATM    7  C   UNL     1      39.795 -12.831   0.138  1.00  0.00     0.185 A 
HETATM    8  N   UNL     1      40.734 -13.223   0.960  1.00  0.00    -0.201 NA
HETATM    9  C   UNL     1      40.720 -14.598   0.831  1.00  0.00     0.182 A 
HETATM   10  N   UNL     1      39.795 -15.051  -0.034  1.00  0.00    -0.152 NA
HETATM   11  N   UNL     1      39.230 -13.908  -0.464  1.00  0.00    -0.253 N 
HETATM   12  H   UNL     1      38.490 -13.935  -1.156  1.00  0.00     0.191 HD
BRANCH   9  13
HETATM   13  C   UNL     1      41.669 -15.439   1.557  1.00  0.00     0.014 A 
HETATM   14  C   UNL     1      41.363 -16.783   1.813  1.00  0.00     0.018 A 
HETATM   15  C   UNL     1      42.247 -17.590   2.535  1.00  0.00     0.037 A 
HETATM   16  C   UNL     1      43.452 -17.073   3.012  1.00  0.00     0.068 A 
HETATM   17  C   UNL     1      43.771 -15.740   2.753  1.00  0.00     0.037 A 
HETATM   18  C   UNL     1      42.884 -14.929   2.031  1.00  0.00     0.018 A 
BRANCH  16  19
HETATM   19  O   UNL     1      44.218 -17.968   3.706  1.00  0.00    -0.356 OA
HETATM   20  C   UNL     1      43.627 -19.227   4.004  1.00  0.00     0.210 C 
ENDBRANCH  16  19
ENDBRANCH   9  13
ENDBRANCH   6   7
ENDBRANCH   5   6
ENDBRANCH   2   5
BRANCH   1  21
HETATM   21  C   UNL     1      39.052 -11.422   4.604  1.00  0.00     0.225 C 
BRANCH  21  22
HETATM   22  C   UNL     1      39.698 -12.506   5.477  1.00  0.00     0.239 C 
HETATM   23  N   UNL     1      40.610 -13.282   4.776  1.00  0.00    -0.325 N 
HETATM   24  H   UNL     1      40.879 -12.896   3.871  1.00  0.00     0.169 HD
HETATM   25  O   UNL     1      39.487 -12.551   6.687  1.00  0.00    -0.271 OA
BRANCH  23  26
HETATM   26  C   UNL     1      41.507 -14.198   5.366  1.00  0.00     0.046 A 
HETATM   27  C   UNL     1      41.178 -15.552   5.576  1.00  0.00    -0.034 A 
HETATM   28  C   UNL     1      42.117 -16.396   6.200  1.00  0.00     0.015 A 
HETATM   29  C   UNL     1      39.885 -16.178   5.125  1.00  0.00     0.050 C 
HETATM   30  C   UNL     1      43.378 -15.932   6.577  1.00  0.00    -0.061 A 
HETATM   31  C   UNL     1      44.379 -16.847   7.216  1.00  0.00     0.048 C 
HETATM   32  C   UNL     1      43.717 -14.604   6.305  1.00  0.00     0.015 A 
HETATM   33  C   UNL     1      42.797 -13.729   5.704  1.00  0.00    -0.034 A 
HETATM   34  C   UNL     1      43.210 -12.298   5.483  1.00  0.00     0.050 C 
ENDBRANCH  23  26
ENDBRANCH  21  22
ENDBRANCH   1  21
TORSDOF 8
ENDMDL
MODEL 9
REMARK VINA RESULT:      -8.1      2.802     11.439
REMARK  8 active torsions:
REMARK  status: ('A' for Active; 'I' for Inactive)
REMARK    1  A    between atoms: C_6  and  N_7 
REMARK       I    between atoms: N_7  and  C_8 
REMARK    2  A    between atoms: C_8  and  C_9 
REMARK    3  A    between atoms: C_9  and  N_10 
REMARK       I    between atoms: N_10  and  C_11 
REMARK    4  A    between atoms: C_11  and  C_12 
REMARK    5  A    between atoms: C_12  and  S_13 
REMARK    6  A    between atoms: S_13  and  C_14 
REMARK    7  A    between atoms: C_16  and  C_17 
REMARK    8  A    between atoms: C_20  and  O_21 
ROOT
HETATM    1  N   UNL     1      40.002  -9.967   8.659  1.00  0.00    -0.352 N 
HETATM    2  C   UNL     1      39.635  -9.986   7.338  1.00  0.00     0.227 C 
HETATM    3  O   UNL     1      38.600  -9.446   6.946  1.00  0.00    -0.273 OA
HETATM    4  H   UNL     1      40.919 -10.336   8.907  1.00  0.00     0.162 HD
ENDROOT
BRANCH   2   5
HETATM    5  C   UNL     1      40.564 -10.755   6.409  1.00  0.00     0.185 C 
BRANCH   5   6
HETATM    6  S   UNL     1      39.779 -12.244   5.713  1.00  0.00    -0.081 SA
BRANCH   6   7
HETATM    7  C   UNL     1      41.113 -13.322   5.622  1.00  0.00     0.185 A 
HETATM    8  N   UNL     1      41.261 -14.331   4.803  1.00  0.00    -0.201 NA
HETATM    9  C   UNL     1      42.463 -14.889   5.194  1.00  0.00     0.182 A 
HETATM   10  N   UNL     1      43.051 -14.242   6.217  1.00  0.00    -0.152 NA
HETATM   11  N   UNL     1      42.168 -13.259   6.472  1.00  0.00    -0.253 N 
HETATM   12  H   UNL     1      42.340 -12.604   7.226  1.00  0.00     0.191 HD
BRANCH   9  13
HETATM   13  C   UNL     1      42.987 -16.093   4.555  1.00  0.00     0.014 A 
HETATM   14  C   UNL     1      42.588 -16.427   3.254  1.00  0.00     0.018 A 
HETATM   15  C   UNL     1      43.056 -17.593   2.642  1.00  0.00     0.037 A 
HETATM   16  C   UNL     1      43.933 -18.445   3.314  1.00  0.00     0.068 A 
HETATM   17  C   UNL     1      44.345 -18.115   4.605  1.00  0.00     0.037 A 
HETATM   18  C   UNL     1      43.875 -16.947   5.221  1.00  0.00     0.018 A 
BRANCH  16  19
HETATM   19  O   UNL     1      44.306 -19.551   2.603  1.00  0.00    -0.356 OA
HETATM   20  C   UNL     1      43.679 -20.780   2.946  1.00  0.00     0.210 C 
ENDBRANCH  16  19
ENDBRANCH   9  13
ENDBRANCH   6   7
ENDBRANCH   5   6
ENDBRANCH   2   5
BRANCH   1  21
HETATM   21  C   UNL     1      39.238  -9.308   9.699  1.00  0.00     0.225 C 
BRANCH  21  22
HETATM   22  C   UNL     1      39.931  -9.332  11.068  1.00  0.00     0.239 C 
HETATM   23  N   UNL     1      40.464  -8.100  11.418  1.00  0.00    -0.325 N 
HETATM   24  H   UNL     1      40.140  -7.325  10.840  1.00  0.00     0.169 HD
HETATM   25  O   UNL     1      39.874 -10.328  11.786  1.00  0.00    -0.271 OA
BRANCH  23  26
HETATM   26  C   UNL     1      40.958  -7.773  12.699  1.00  0.00     0.046 A 
HETATM   27  C   UNL     1      42.314  -7.924  13.050  1.00  0.00    -0.034 A 
HETATM   28  C   UNL     1      42.722  -7.604  14.359  1.00  0.00     0.015 A 
HETATM   29  C   UNL     1      43.382  -8.365  12.086  1.00  0.00     0.050 C 
HETATM   30  C   UNL     1      41.823  -7.104  15.302  1.00  0.00    -0.061 A 
HETATM   31  C   UNL     1      42.275  -6.742  16.685  1.00  0.00     0.048 C 
HETATM   32  C   UNL     1      40.494  -6.897  14.924  1.00  0.00     0.015 A 
HETATM   33  C   UNL     1      40.048  -7.226  13.633  1.00  0.00    -0.034 A 
HETATM   34  C   UNL     1      38.592  -7.023  13.306  1.00  0.00     0.050 C 
ENDBRANCH  23  26
ENDBRANCH  21  22
ENDBRANCH   1  21
TORSDOF 8
ENDMDL
MODEL 10
REMARK VINA RESULT:      -8.1      2.005      2.293
REMARK  8 active torsions:
REMARK  status: ('A' for Active; 'I' for Inactive)
REMARK    1  A    between atoms: C_6  and  N_7 
REMARK       I    between atoms: N_7  and  C_8 
REMARK    2  A    between atoms: C_8  and  C_9 
REMARK    3  A    between atoms: C_9  and  N_10 
REMARK       I    between atoms: N_10  and  C_11 
REMARK    4  A    between atoms: C_11  and  C_12 
REMARK    5  A    between atoms: C_12  and  S_13 
REMARK    6  A    between atoms: S_13  and  C_14 
REMARK    7  A    between atoms: C_16  and  C_17 
REMARK    8  A    between atoms: C_20  and  O_21 
ROOT
HETATM    1  N   UNL     1      41.152 -12.427   6.071  1.00  0.00    -0.352 N 
HETATM    2  C   UNL     1      41.029 -11.241   5.394  1.00  0.00     0.227 C 
HETATM    3  O   UNL     1      41.926 -10.814   4.667  1.00  0.00    -0.273 OA
HETATM    4  H   UNL     1      40.338 -12.782   6.571  1.00  0.00     0.162 HD
ENDROOT
BRANCH   2   5
HETATM    5  C   UNL     1      39.737 -10.476   5.640  1.00  0.00     0.185 C 
BRANCH   5   6
HETATM    6  S   UNL     1      40.029  -8.721   6.029  1.00  0.00    -0.081 SA
BRANCH   6   7
HETATM    7  C   UNL     1      41.103  -8.841   7.365  1.00  0.00     0.185 A 
HETATM    8  N   UNL     1      40.788  -8.865   8.634  1.00  0.00    -0.201 NA
HETATM    9  C   UNL     1      42.016  -8.906   9.268  1.00  0.00     0.182 A 
HETATM   10  N   UNL     1      43.061  -8.918   8.421  1.00  0.00    -0.152 NA
HETATM   11  N   UNL     1      42.452  -8.867   7.223  1.00  0.00    -0.253 N 
HETATM   12  H   UNL     1      43.003  -8.845   6.373  1.00  0.00     0.191 HD
BRANCH   9  13
HETATM   13  C   UNL     1      42.119  -8.895  10.725  1.00  0.00     0.014 A 
HETATM   14  C   UNL     1      41.118  -9.488  11.505  1.00  0.00     0.018 A 
HETATM   15  C   UNL     1      41.188  -9.457  12.901  1.00  0.00     0.037 A 
HETATM   16  C   UNL     1      42.259  -8.835  13.543  1.00  0.00     0.068 A 
HETATM   17  C   UNL     1      43.267  -8.251  12.776  1.00  0.00     0.037 A 
HETATM   18  C   UNL     1      43.196  -8.280  11.376  1.00  0.00     0.018 A 
BRANCH  16  19
HETATM   19  O   UNL     1      42.199  -8.871  14.909  1.00  0.00    -0.356 OA
HETATM   20  C   UNL     1      41.116  -8.186  15.525  1.00  0.00     0.210 C 
ENDBRANCH  16  19
ENDBRANCH   9  13
ENDBRANCH   6   7
ENDBRANCH   5   6
ENDBRANCH   2   5
BRANCH   1  21
HETATM   21  C   UNL     1      42.316 -13.287   5.985  1.00  0.00     0.225 C 
BRANCH  21  22
HETATM   22  C   UNL     1      42.056 -14.582   5.204  1.00  0.00     0.239 C 
HETATM   23  N   UNL     1      43.178 -15.027   4.519  1.00  0.00    -0.325 N 
HETATM   24  H   UNL     1      44.046 -14.570   4.799  1.00  0.00     0.169 HD
HETATM   25  O   UNL     1      40.989 -15.182   5.315  1.00  0.00    -0.271 OA
BRANCH  23  26
HETATM   26  C   UNL     1      43.295 -16.292   3.905  1.00  0.00     0.046 A 
HETATM   27  C   UNL     1      42.895 -16.528   2.574  1.00  0.00    -0.034 A 
HETATM   28  C   UNL     1      43.016 -17.827   2.043  1.00  0.00     0.015 A 
HETATM   29  C   UNL     1      42.384 -15.454   1.652  1.00  0.00     0.050 C 
HETATM   30  C   UNL     1      43.560 -18.873   2.791  1.00  0.00    -0.061 A 
HETATM   31  C   UNL     1      43.709 -20.245   2.205  1.00  0.00     0.048 C 
HETATM   32  C   UNL     1      44.014 -18.612   4.086  1.00  0.00     0.015 A 
HETATM   33  C   UNL     1      43.888 -17.333   4.655  1.00  0.00    -0.034 A 
HETATM   34  C   UNL     1      44.353 -17.133   6.073  1.00  0.00     0.050 C 
ENDBRANCH  23  26
ENDBRANCH  21  22
ENDBRANCH   1  21
TORSDOF 8
ENDMDL
