MODEL 1
REMARK VINA RESULT:      -9.4      0.000      0.000
REMARK  6 active torsions:
REMARK  status: ('A' for Active; 'I' for Inactive)
REMARK    1  A    between atoms: C_2  and  O_3 
REMARK    2  A    between atoms: O_3  and  C_4 
REMARK    3  A    between atoms: C_5  and  O_6 
REMARK    4  A    between atoms: O_6  and  C_7 
REMARK    5  A    between atoms: C_7  and  C_8 
REMARK    6  A    between atoms: C_18  and  C_19 
ROOT
HETATM    1  C   UNL     1      42.128 -12.476   4.605  1.00  0.00     0.103 A 
HETATM    2  C   UNL     1      42.806 -13.689   4.768  1.00  0.00     0.112 A 
HETATM    3  C   UNL     1      43.681 -13.908   5.832  1.00  0.00     0.041 A 
HETATM    4  C   UNL     1      43.860 -12.907   6.781  1.00  0.00     0.014 A 
HETATM    5  C   UNL     1      43.183 -11.680   6.662  1.00  0.00    -0.013 A 
HETATM    6  C   UNL     1      42.322 -11.475   5.563  1.00  0.00     0.050 A 
ENDROOT
BRANCH   5   7
HETATM    7  C   UNL     1      43.372 -10.596   7.699  1.00  0.00     0.219 C 
HETATM    8  N   UNL     1      43.931 -11.130   8.915  1.00  0.00    -0.332 N 
HETATM    9  C   UNL     1      43.897 -10.442  10.099  1.00  0.00     0.256 C 
HETATM   10  H   UNL     1      44.688 -11.793   8.833  1.00  0.00     0.165 HD
HETATM   11  O   UNL     1      44.656 -10.700  11.026  1.00  0.00    -0.267 OA
HETATM   12  C   UNL     1      42.872  -9.415  10.187  1.00  0.00     0.073 A 
HETATM   13  C   UNL     1      42.016  -9.236   9.125  1.00  0.00     0.088 A 
HETATM   14  C   UNL     1      42.564  -8.531  11.270  1.00  0.00    -0.023 A 
HETATM   15  S   UNL     1      40.850  -8.035   9.413  1.00  0.00    -0.074 SA
HETATM   16  N   UNL     1      42.100  -9.964   7.990  1.00  0.00    -0.358 N 
HETATM   17  C   UNL     1      41.471  -7.736  10.970  1.00  0.00     0.018 A 
HETATM   18  C   UNL     1      40.881  -6.714  11.878  1.00  0.00     0.281 C 
HETATM   19  N   UNL     1      41.358  -6.906  13.314  1.00  0.00    -0.070 N 
HETATM   20  C   UNL     1      42.860  -7.184  13.373  1.00  0.00     0.239 C 
HETATM   21  H   UNL     1      41.208  -6.007  13.786  1.00  0.00     0.279 HD
HETATM   22  C   UNL     1      40.537  -7.916  14.065  1.00  0.00     0.270 C 
HETATM   23  C   UNL     1      43.251  -8.456  12.601  1.00  0.00     0.068 C 
HETATM   24  H   UNL     1      41.563  -9.691   7.172  1.00  0.00     0.162 HD
ENDBRANCH   5   7
BRANCH   1  25
HETATM   25  O   UNL     1      41.331 -12.371   3.498  1.00  0.00    -0.349 OA
BRANCH  25  26
HETATM   26  C   UNL     1      39.931 -12.575   3.673  1.00  0.00     0.171 C 
HETATM   27  C   UNL     1      39.459 -13.549   2.608  1.00  0.00     0.034 C 
ENDBRANCH  25  26
ENDBRANCH   1  25
BRANCH   2  28
HETATM   28  O   UNL     1      42.660 -14.713   3.826  1.00  0.00    -0.272 OA
BRANCH  28  29
HETATM   29  C   UNL     1      42.010 -15.803   4.361  1.00  0.00     0.300 C 
HETATM   30  O   UNL     1      40.976 -15.832   5.012  1.00  0.00    -0.259 OA
BRANCH  29  31
HETATM   31  C   UNL     1      42.729 -17.024   3.951  1.00  0.00     0.061 A 
HETATM   32  C   UNL     1      43.534 -17.761   4.827  1.00  0.00     0.050 A 
HETATM   33 CL   UNL     1      43.739 -17.347   6.491  1.00  0.00    -0.083 Cl
HETATM   34  C   UNL     1      44.167 -18.922   4.370  1.00  0.00     0.025 A 
HETATM   35  C   UNL     1      43.988 -19.352   3.053  1.00  0.00     0.002 A 
HETATM   36  C   UNL     1      43.169 -18.628   2.188  1.00  0.00     0.001 A 
HETATM   37  C   UNL     1      42.535 -17.468   2.634  1.00  0.00     0.019 A 
ENDBRANCH  29  31
ENDBRANCH  28  29
ENDBRANCH   2  28
TORSDOF 6
ENDMDL
MODEL 2
REMARK VINA RESULT:      -9.0      1.196      1.313
REMARK  6 active torsions:
REMARK  status: ('A' for Active; 'I' for Inactive)
REMARK    1  A    between atoms: C_2  and  O_3 
REMARK    2  A    between atoms: O_3  and  C_4 
REMARK    3  A    between atoms: C_5  and  O_6 
REMARK    4  A    between atoms: O_6  and  C_7 
REMARK    5  A    between atoms: C_7  and  C_8 
REMARK    6  A    between atoms: C_18  and  C_19 
ROOT
HETATM    1  C   UNL     1      42.377 -11.390   5.102  1.00  0.00     0.103 A 
HETATM    2  C   UNL     1      42.918 -12.680   5.055  1.00  0.00     0.112 A 
HETATM    3  C   UNL     1      43.756 -13.164   6.060  1.00  0.00     0.041 A 
HETATM    4  C   UNL     1      44.036 -12.358   7.158  1.00  0.00     0.014 A 
HETATM    5  C   UNL     1      43.497 -11.062   7.250  1.00  0.00    -0.013 A 
HETATM    6  C   UNL     1      42.671 -10.587   6.209  1.00  0.00     0.050 A 
ENDROOT
BRANCH   5   7
HETATM    7  C   UNL     1      43.794 -10.191   8.449  1.00  0.00     0.219 C 
HETATM    8  N   UNL     1      43.572 -10.905   9.680  1.00  0.00    -0.332 N 
HETATM    9  C   UNL     1      43.451 -10.264  10.885  1.00  0.00     0.256 C 
HETATM   10  H   UNL     1      43.903 -11.857   9.739  1.00  0.00     0.165 HD
HETATM   11  O   UNL     1      43.621 -10.844  11.952  1.00  0.00    -0.267 OA
HETATM   12  C   UNL     1      43.070  -8.864  10.805  1.00  0.00     0.073 A 
HETATM   13  C   UNL     1      42.832  -8.309   9.568  1.00  0.00     0.088 A 
HETATM   14  C   UNL     1      42.855  -7.920  11.859  1.00  0.00    -0.023 A 
HETATM   15  S   UNL     1      42.348  -6.683   9.659  1.00  0.00    -0.074 SA
HETATM   16  N   UNL     1      42.957  -9.007   8.420  1.00  0.00    -0.358 N 
HETATM   17  C   UNL     1      42.446  -6.696  11.358  1.00  0.00     0.018 A 
HETATM   18  C   UNL     1      42.129  -5.497  12.182  1.00  0.00     0.281 C 
HETATM   19  N   UNL     1      41.923  -5.869  13.647  1.00  0.00    -0.070 N 
HETATM   20  C   UNL     1      42.989  -6.850  14.131  1.00  0.00     0.239 C 
HETATM   21  H   UNL     1      42.056  -5.002  14.180  1.00  0.00     0.279 HD
HETATM   22  C   UNL     1      40.520  -6.325  13.934  1.00  0.00     0.270 C 
HETATM   23  C   UNL     1      42.981  -8.165  13.333  1.00  0.00     0.068 C 
HETATM   24  H   UNL     1      42.936  -8.523   7.527  1.00  0.00     0.162 HD
ENDBRANCH   5   7
BRANCH   1  25
HETATM   25  O   UNL     1      41.605 -11.019   4.034  1.00  0.00    -0.349 OA
BRANCH  25  26
HETATM   26  C   UNL     1      40.284 -10.557   4.308  1.00  0.00     0.171 C 
HETATM   27  C   UNL     1      39.307 -11.473   3.593  1.00  0.00     0.034 C 
ENDBRANCH  25  26
ENDBRANCH   1  25
BRANCH   2  28
HETATM   28  O   UNL     1      42.669 -13.513   3.960  1.00  0.00    -0.272 OA
BRANCH  28  29
HETATM   29  C   UNL     1      41.859 -14.573   4.303  1.00  0.00     0.300 C 
HETATM   30  O   UNL     1      40.748 -14.550   4.813  1.00  0.00    -0.259 OA
BRANCH  29  31
HETATM   31  C   UNL     1      42.516 -15.821   3.876  1.00  0.00     0.061 A 
HETATM   32  C   UNL     1      42.913 -16.818   4.777  1.00  0.00     0.050 A 
HETATM   33 CL   UNL     1      42.638 -16.711   6.479  1.00  0.00    -0.083 Cl
HETATM   34  C   UNL     1      43.511 -17.986   4.294  1.00  0.00     0.025 A 
HETATM   35  C   UNL     1      43.700 -18.166   2.922  1.00  0.00     0.002 A 
HETATM   36  C   UNL     1      43.285 -17.184   2.024  1.00  0.00     0.001 A 
HETATM   37  C   UNL     1      42.689 -16.014   2.497  1.00  0.00     0.019 A 
ENDBRANCH  29  31
ENDBRANCH  28  29
ENDBRANCH   2  28
TORSDOF 6
ENDMDL
MODEL 3
REMARK VINA RESULT:      -8.9      5.457      9.392
REMARK  6 active torsions:
REMARK  status: ('A' for Active; 'I' for Inactive)
REMARK    1  A    between atoms: C_2  and  O_3 
REMARK    2  A    between atoms: O_3  and  C_4 
REMARK    3  A    between atoms: C_5  and  O_6 
REMARK    4  A    between atoms: O_6  and  C_7 
REMARK    5  A    between atoms: C_7  and  C_8 
REMARK    6  A    between atoms: C_18  and  C_19 
ROOT
HETATM    1  C   UNL     1      40.808 -14.449   3.552  1.00  0.00     0.103 A 
HETATM    2  C   UNL     1      41.306 -15.697   3.162  1.00  0.00     0.112 A 
HETATM    3  C   UNL     1      41.410 -16.062   1.820  1.00  0.00     0.041 A 
HETATM    4  C   UNL     1      41.043 -15.149   0.837  1.00  0.00     0.014 A 
HETATM    5  C   UNL     1      40.554 -13.877   1.189  1.00  0.00    -0.013 A 
HETATM    6  C   UNL     1      40.436 -13.541   2.554  1.00  0.00     0.050 A 
ENDROOT
BRANCH   5   7
HETATM    7  C   UNL     1      40.165 -12.882   0.118  1.00  0.00     0.219 C 
HETATM    8  N   UNL     1      40.740 -13.234  -1.154  1.00  0.00    -0.332 N 
HETATM    9  C   UNL     1      40.816 -12.344  -2.193  1.00  0.00     0.256 C 
HETATM   10  H   UNL     1      40.714 -14.205  -1.431  1.00  0.00     0.165 HD
HETATM   11  O   UNL     1      40.958 -12.709  -3.355  1.00  0.00    -0.267 OA
HETATM   12  C   UNL     1      40.753 -10.943  -1.812  1.00  0.00     0.073 A 
HETATM   13  C   UNL     1      40.660 -10.620  -0.477  1.00  0.00     0.088 A 
HETATM   14  C   UNL     1      40.809  -9.775  -2.637  1.00  0.00    -0.023 A 
HETATM   15  S   UNL     1      40.650  -8.943  -0.205  1.00  0.00    -0.074 SA
HETATM   16  N   UNL     1      40.605 -11.554   0.496  1.00  0.00    -0.358 N 
HETATM   17  C   UNL     1      40.773  -8.621  -1.873  1.00  0.00     0.018 A 
HETATM   18  C   UNL     1      40.822  -7.235  -2.412  1.00  0.00     0.281 C 
HETATM   19  N   UNL     1      41.310  -7.219  -3.858  1.00  0.00    -0.070 N 
HETATM   20  C   UNL     1      40.649  -8.322  -4.684  1.00  0.00     0.239 C 
HETATM   21  H   UNL     1      40.994  -6.326  -4.254  1.00  0.00     0.279 HD
HETATM   22  C   UNL     1      42.809  -7.216  -3.961  1.00  0.00     0.270 C 
HETATM   23  C   UNL     1      40.945  -9.727  -4.130  1.00  0.00     0.068 C 
HETATM   24  H   UNL     1      40.371 -11.281   1.447  1.00  0.00     0.162 HD
ENDBRANCH   5   7
BRANCH   1  25
HETATM   25  O   UNL     1      40.715 -14.228   4.899  1.00  0.00    -0.349 OA
BRANCH  25  26
HETATM   26  C   UNL     1      41.574 -13.239   5.464  1.00  0.00     0.171 C 
HETATM   27  C   UNL     1      40.711 -12.094   5.963  1.00  0.00     0.034 C 
ENDBRANCH  25  26
ENDBRANCH   1  25
BRANCH   2  28
HETATM   28  O   UNL     1      41.671 -16.644   4.123  1.00  0.00    -0.272 OA
BRANCH  28  29
HETATM   29  C   UNL     1      43.040 -16.747   4.238  1.00  0.00     0.300 C 
HETATM   30  O   UNL     1      43.858 -15.859   4.431  1.00  0.00    -0.259 OA
BRANCH  29  31
HETATM   31  C   UNL     1      43.410 -18.172   4.173  1.00  0.00     0.061 A 
HETATM   32  C   UNL     1      43.628 -18.954   5.314  1.00  0.00     0.050 A 
HETATM   33 CL   UNL     1      43.446 -18.344   6.920  1.00  0.00    -0.083 Cl
HETATM   34  C   UNL     1      43.955 -20.306   5.172  1.00  0.00     0.025 A 
HETATM   35  C   UNL     1      44.051 -20.879   3.902  1.00  0.00     0.002 A 
HETATM   36  C   UNL     1      43.813 -20.106   2.767  1.00  0.00     0.001 A 
HETATM   37  C   UNL     1      43.488 -18.755   2.899  1.00  0.00     0.019 A 
ENDBRANCH  29  31
ENDBRANCH  28  29
ENDBRANCH   2  28
TORSDOF 6
ENDMDL
MODEL 4
REMARK VINA RESULT:      -8.5      3.191      4.051
REMARK  6 active torsions:
REMARK  status: ('A' for Active; 'I' for Inactive)
REMARK    1  A    between atoms: C_2  and  O_3 
REMARK    2  A    between atoms: O_3  and  C_4 
REMARK    3  A    between atoms: C_5  and  O_6 
REMARK    4  A    between atoms: O_6  and  C_7 
REMARK    5  A    between atoms: C_7  and  C_8 
REMARK    6  A    between atoms: C_18  and  C_19 
ROOT
HETATM    1  C   UNL     1      40.533 -14.246   3.072  1.00  0.00     0.103 A 
HETATM    2  C   UNL     1      40.993 -15.412   3.695  1.00  0.00     0.112 A 
HETATM    3  C   UNL     1      41.102 -15.511   5.082  1.00  0.00     0.041 A 
HETATM    4  C   UNL     1      40.712 -14.437   5.874  1.00  0.00     0.014 A 
HETATM    5  C   UNL     1      40.229 -13.254   5.286  1.00  0.00    -0.013 A 
HETATM    6  C   UNL     1      40.149 -13.169   3.880  1.00  0.00     0.050 A 
ENDROOT
BRANCH   5   7
HETATM    7  C   UNL     1      39.795 -12.090   6.148  1.00  0.00     0.219 C 
HETATM    8  N   UNL     1      38.920 -11.203   5.426  1.00  0.00    -0.332 N 
HETATM    9  C   UNL     1      38.654  -9.929   5.854  1.00  0.00     0.256 C 
HETATM   10  H   UNL     1      38.197 -11.617   4.856  1.00  0.00     0.165 HD
HETATM   11  O   UNL     1      37.669  -9.306   5.475  1.00  0.00    -0.267 OA
HETATM   12  C   UNL     1      39.643  -9.362   6.757  1.00  0.00     0.073 A 
HETATM   13  C   UNL     1      40.755 -10.106   7.078  1.00  0.00     0.088 A 
HETATM   14  C   UNL     1      39.671  -8.072   7.375  1.00  0.00    -0.023 A 
HETATM   15  S   UNL     1      41.830  -9.276   8.098  1.00  0.00    -0.074 SA
HETATM   16  N   UNL     1      40.959 -11.354   6.604  1.00  0.00    -0.358 N 
HETATM   17  C   UNL     1      40.823  -7.903   8.124  1.00  0.00     0.018 A 
HETATM   18  C   UNL     1      41.174  -6.675   8.890  1.00  0.00     0.281 C 
HETATM   19  N   UNL     1      40.326  -5.486   8.450  1.00  0.00    -0.070 N 
HETATM   20  C   UNL     1      38.858  -5.874   8.287  1.00  0.00     0.239 C 
HETATM   21  H   UNL     1      40.368  -4.808   9.220  1.00  0.00     0.279 HD
HETATM   22  C   UNL     1      40.894  -4.787   7.247  1.00  0.00     0.270 C 
HETATM   23  C   UNL     1      38.656  -6.977   7.234  1.00  0.00     0.068 C 
HETATM   24  H   UNL     1      41.701 -11.929   6.993  1.00  0.00     0.162 HD
ENDBRANCH   5   7
BRANCH   1  25
HETATM   25  O   UNL     1      40.513 -14.258   1.704  1.00  0.00    -0.349 OA
BRANCH  25  26
HETATM   26  C   UNL     1      40.418 -13.001   1.036  1.00  0.00     0.171 C 
HETATM   27  C   UNL     1      39.647 -13.211  -0.255  1.00  0.00     0.034 C 
ENDBRANCH  25  26
ENDBRANCH   1  25
BRANCH   2  28
HETATM   28  O   UNL     1      41.407 -16.506   2.931  1.00  0.00    -0.272 OA
BRANCH  28  29
HETATM   29  C   UNL     1      42.779 -16.560   2.823  1.00  0.00     0.300 C 
HETATM   30  O   UNL     1      43.564 -15.647   2.610  1.00  0.00    -0.259 OA
BRANCH  29  31
HETATM   31  C   UNL     1      43.216 -17.941   3.096  1.00  0.00     0.061 A 
HETATM   32  C   UNL     1      43.852 -18.316   4.285  1.00  0.00     0.050 A 
HETATM   33 CL   UNL     1      44.155 -17.211   5.579  1.00  0.00    -0.083 Cl
HETATM   34  C   UNL     1      44.218 -19.651   4.481  1.00  0.00     0.025 A 
HETATM   35  C   UNL     1      43.941 -20.609   3.503  1.00  0.00     0.002 A 
HETATM   36  C   UNL     1      43.288 -20.240   2.328  1.00  0.00     0.001 A 
HETATM   37  C   UNL     1      42.921 -18.909   2.124  1.00  0.00     0.019 A 
ENDBRANCH  29  31
ENDBRANCH  28  29
ENDBRANCH   2  28
TORSDOF 6
ENDMDL
MODEL 5
REMARK VINA RESULT:      -8.5      5.780      9.729
REMARK  6 active torsions:
REMARK  status: ('A' for Active; 'I' for Inactive)
REMARK    1  A    between atoms: C_2  and  O_3 
REMARK    2  A    between atoms: O_3  and  C_4 
REMARK    3  A    between atoms: C_5  and  O_6 
REMARK    4  A    between atoms: O_6  and  C_7 
REMARK    5  A    between atoms: C_7  and  C_8 
REMARK    6  A    between atoms: C_18  and  C_19 
ROOT
HETATM    1  C   UNL     1      40.344 -14.368   3.416  1.00  0.00     0.103 A 
HETATM    2  C   UNL     1      40.880 -15.481   2.759  1.00  0.00     0.112 A 
HETATM    3  C   UNL     1      40.870 -15.591   1.368  1.00  0.00     0.041 A 
HETATM    4  C   UNL     1      40.345 -14.552   0.608  1.00  0.00     0.014 A 
HETATM    5  C   UNL     1      39.813 -13.409   1.231  1.00  0.00    -0.013 A 
HETATM    6  C   UNL     1      39.814 -13.332   2.640  1.00  0.00     0.050 A 
ENDROOT
BRANCH   5   7
HETATM    7  C   UNL     1      39.251 -12.275   0.402  1.00  0.00     0.219 C 
HETATM    8  N   UNL     1      38.421 -11.409   1.199  1.00  0.00    -0.332 N 
HETATM    9  C   UNL     1      37.545 -10.517   0.639  1.00  0.00     0.256 C 
HETATM   10  H   UNL     1      38.752 -11.155   2.119  1.00  0.00     0.165 HD
HETATM   11  O   UNL     1      37.113  -9.551   1.258  1.00  0.00    -0.267 OA
HETATM   12  C   UNL     1      37.140 -10.822  -0.723  1.00  0.00     0.073 A 
HETATM   13  C   UNL     1      37.622 -11.964  -1.321  1.00  0.00     0.088 A 
HETATM   14  C   UNL     1      36.247 -10.109  -1.585  1.00  0.00    -0.023 A 
HETATM   15  S   UNL     1      37.009 -12.195  -2.888  1.00  0.00    -0.074 SA
HETATM   16  N   UNL     1      38.473 -12.808  -0.700  1.00  0.00    -0.358 N 
HETATM   17  C   UNL     1      36.086 -10.768  -2.792  1.00  0.00     0.018 A 
HETATM   18  C   UNL     1      35.220 -10.306  -3.911  1.00  0.00     0.281 C 
HETATM   19  N   UNL     1      34.229  -9.244  -3.443  1.00  0.00    -0.070 N 
HETATM   20  C   UNL     1      34.899  -8.212  -2.538  1.00  0.00     0.239 C 
HETATM   21  H   UNL     1      33.929  -8.744  -4.288  1.00  0.00     0.279 HD
HETATM   22  C   UNL     1      32.985  -9.839  -2.846  1.00  0.00     0.270 C 
HETATM   23  C   UNL     1      35.503  -8.845  -1.273  1.00  0.00     0.068 C 
HETATM   24  H   UNL     1      38.933 -13.545  -1.229  1.00  0.00     0.162 HD
ENDBRANCH   5   7
BRANCH   1  25
HETATM   25  O   UNL     1      40.376 -14.399   4.784  1.00  0.00    -0.349 OA
BRANCH  25  26
HETATM   26  C   UNL     1      41.227 -13.463   5.443  1.00  0.00     0.171 C 
HETATM   27  C   UNL     1      40.354 -12.389   6.065  1.00  0.00     0.034 C 
ENDBRANCH  25  26
ENDBRANCH   1  25
BRANCH   2  28
HETATM   28  O   UNL     1      41.404 -16.550   3.491  1.00  0.00    -0.272 OA
BRANCH  28  29
HETATM   29  C   UNL     1      42.779 -16.593   3.412  1.00  0.00     0.300 C 
HETATM   30  O   UNL     1      43.573 -15.664   3.423  1.00  0.00    -0.259 OA
BRANCH  29  31
HETATM   31  C   UNL     1      43.203 -18.005   3.391  1.00  0.00     0.061 A 
HETATM   32  C   UNL     1      43.746 -18.652   4.508  1.00  0.00     0.050 A 
HETATM   33 CL   UNL     1      43.939 -17.879   6.042  1.00  0.00    -0.083 Cl
HETATM   34  C   UNL     1      44.105 -20.001   4.418  1.00  0.00     0.025 A 
HETATM   35  C   UNL     1      43.910 -20.704   3.227  1.00  0.00     0.002 A 
HETATM   36  C   UNL     1      43.350 -20.065   2.122  1.00  0.00     0.001 A 
HETATM   37  C   UNL     1      42.991 -18.719   2.203  1.00  0.00     0.019 A 
ENDBRANCH  29  31
ENDBRANCH  28  29
ENDBRANCH   2  28
TORSDOF 6
ENDMDL
MODEL 6
REMARK VINA RESULT:      -8.3      1.605      1.872
REMARK  6 active torsions:
REMARK  status: ('A' for Active; 'I' for Inactive)
REMARK    1  A    between atoms: C_2  and  O_3 
REMARK    2  A    between atoms: O_3  and  C_4 
REMARK    3  A    between atoms: C_5  and  O_6 
REMARK    4  A    between atoms: O_6  and  C_7 
REMARK    5  A    between atoms: C_7  and  C_8 
REMARK    6  A    between atoms: C_18  and  C_19 
ROOT
HETATM    1  C   UNL     1      40.570 -12.890   4.560  1.00  0.00     0.103 A 
HETATM    2  C   UNL     1      41.602 -13.773   4.896  1.00  0.00     0.112 A 
HETATM    3  C   UNL     1      42.603 -13.426   5.804  1.00  0.00     0.041 A 
HETATM    4  C   UNL     1      42.558 -12.180   6.420  1.00  0.00     0.014 A 
HETATM    5  C   UNL     1      41.528 -11.271   6.121  1.00  0.00    -0.013 A 
HETATM    6  C   UNL     1      40.540 -11.637   5.182  1.00  0.00     0.050 A 
ENDROOT
BRANCH   5   7
HETATM    7  C   UNL     1      41.476  -9.920   6.799  1.00  0.00     0.219 C 
HETATM    8  N   UNL     1      42.791  -9.481   7.188  1.00  0.00    -0.332 N 
HETATM    9  C   UNL     1      42.987  -8.470   8.092  1.00  0.00     0.256 C 
HETATM   10  H   UNL     1      43.545  -9.609   6.528  1.00  0.00     0.165 HD
HETATM   11  O   UNL     1      44.044  -7.854   8.162  1.00  0.00    -0.267 OA
HETATM   12  C   UNL     1      41.867  -8.212   8.982  1.00  0.00     0.073 A 
HETATM   13  C   UNL     1      40.742  -8.997   8.880  1.00  0.00     0.088 A 
HETATM   14  C   UNL     1      41.746  -7.245  10.030  1.00  0.00    -0.023 A 
HETATM   15  S   UNL     1      39.553  -8.595  10.025  1.00  0.00    -0.074 SA
HETATM   16  N   UNL     1      40.624  -9.988   7.971  1.00  0.00    -0.358 N 
HETATM   17  C   UNL     1      40.530  -7.364  10.680  1.00  0.00     0.018 A 
HETATM   18  C   UNL     1      40.084  -6.520  11.822  1.00  0.00     0.281 C 
HETATM   19  N   UNL     1      41.256  -5.775  12.453  1.00  0.00    -0.070 N 
HETATM   20  C   UNL     1      42.175  -5.174  11.390  1.00  0.00     0.239 C 
HETATM   21  H   UNL     1      40.848  -4.987  12.968  1.00  0.00     0.279 HD
HETATM   22  C   UNL     1      41.988  -6.606  13.469  1.00  0.00     0.270 C 
HETATM   23  C   UNL     1      42.775  -6.243  10.461  1.00  0.00     0.068 C 
HETATM   24  H   UNL     1      39.722 -10.431   7.817  1.00  0.00     0.162 HD
ENDBRANCH   5   7
BRANCH   1  25
HETATM   25  O   UNL     1      39.674 -13.333   3.625  1.00  0.00    -0.349 OA
BRANCH  25  26
HETATM   26  C   UNL     1      39.651 -12.664   2.366  1.00  0.00     0.171 C 
HETATM   27  C   UNL     1      40.200 -13.613   1.317  1.00  0.00     0.034 C 
ENDBRANCH  25  26
ENDBRANCH   1  25
BRANCH   2  28
HETATM   28  O   UNL     1      41.686 -15.029   4.287  1.00  0.00    -0.272 OA
BRANCH  28  29
HETATM   29  C   UNL     1      42.809 -15.134   3.496  1.00  0.00     0.300 C 
HETATM   30  O   UNL     1      43.444 -14.243   2.951  1.00  0.00    -0.259 OA
BRANCH  29  31
HETATM   31  C   UNL     1      43.219 -16.549   3.452  1.00  0.00     0.061 A 
HETATM   32  C   UNL     1      43.955 -17.158   4.476  1.00  0.00     0.050 A 
HETATM   33 CL   UNL     1      44.424 -16.331   5.918  1.00  0.00    -0.083 Cl
HETATM   34  C   UNL     1      44.289 -18.512   4.373  1.00  0.00     0.025 A 
HETATM   35  C   UNL     1      43.882 -19.258   3.264  1.00  0.00     0.002 A 
HETATM   36  C   UNL     1      43.131 -18.656   2.256  1.00  0.00     0.001 A 
HETATM   37  C   UNL     1      42.795 -17.305   2.349  1.00  0.00     0.019 A 
ENDBRANCH  29  31
ENDBRANCH  28  29
ENDBRANCH   2  28
TORSDOF 6
ENDMDL
MODEL 7
REMARK VINA RESULT:      -8.1      2.957      4.692
REMARK  6 active torsions:
REMARK  status: ('A' for Active; 'I' for Inactive)
REMARK    1  A    between atoms: C_2  and  O_3 
REMARK    2  A    between atoms: O_3  and  C_4 
REMARK    3  A    between atoms: C_5  and  O_6 
REMARK    4  A    between atoms: O_6  and  C_7 
REMARK    5  A    between atoms: C_7  and  C_8 
REMARK    6  A    between atoms: C_18  and  C_19 
ROOT
HETATM    1  C   UNL     1      42.794 -13.439   3.044  1.00  0.00     0.103 A 
HETATM    2  C   UNL     1      42.024 -12.836   2.043  1.00  0.00     0.112 A 
HETATM    3  C   UNL     1      41.557 -11.527   2.160  1.00  0.00     0.041 A 
HETATM    4  C   UNL     1      41.892 -10.784   3.287  1.00  0.00     0.014 A 
HETATM    5  C   UNL     1      42.679 -11.349   4.308  1.00  0.00    -0.013 A 
HETATM    6  C   UNL     1      43.119 -12.683   4.175  1.00  0.00     0.050 A 
ENDROOT
BRANCH   5   7
HETATM    7  C   UNL     1      43.050 -10.537   5.528  1.00  0.00     0.219 C 
HETATM    8  N   UNL     1      43.906 -11.286   6.411  1.00  0.00    -0.332 N 
HETATM    9  C   UNL     1      44.116 -10.916   7.714  1.00  0.00     0.256 C 
HETATM   10  H   UNL     1      44.656 -11.822   5.999  1.00  0.00     0.165 HD
HETATM   11  O   UNL     1      45.085 -11.307   8.355  1.00  0.00    -0.267 OA
HETATM   12  C   UNL     1      43.089 -10.061   8.286  1.00  0.00     0.073 A 
HETATM   13  C   UNL     1      41.999  -9.724   7.516  1.00  0.00     0.088 A 
HETATM   14  C   UNL     1      43.000  -9.508   9.603  1.00  0.00    -0.023 A 
HETATM   15  S   UNL     1      40.873  -8.766   8.353  1.00  0.00    -0.074 SA
HETATM   16  N   UNL     1      41.852 -10.139   6.240  1.00  0.00    -0.358 N 
HETATM   17  C   UNL     1      41.828  -8.789   9.764  1.00  0.00     0.018 A 
HETATM   18  C   UNL     1      41.416  -8.091  11.012  1.00  0.00     0.281 C 
HETATM   19  N   UNL     1      42.227  -8.574  12.211  1.00  0.00    -0.070 N 
HETATM   20  C   UNL     1      43.712  -8.690  11.872  1.00  0.00     0.239 C 
HETATM   21  H   UNL     1      42.145  -7.839  12.923  1.00  0.00     0.279 HD
HETATM   22  C   UNL     1      41.658  -9.820  12.828  1.00  0.00     0.270 C 
HETATM   23  C   UNL     1      43.976  -9.684  10.727  1.00  0.00     0.068 C 
HETATM   24  H   UNL     1      41.123  -9.736   5.657  1.00  0.00     0.162 HD
ENDBRANCH   5   7
BRANCH   1  25
HETATM   25  O   UNL     1      43.154 -14.741   2.829  1.00  0.00    -0.349 OA
BRANCH  25  26
HETATM   26  C   UNL     1      42.491 -15.743   3.597  1.00  0.00     0.171 C 
HETATM   27  C   UNL     1      42.112 -16.879   2.665  1.00  0.00     0.034 C 
ENDBRANCH  25  26
ENDBRANCH   1  25
BRANCH   2  28
HETATM   28  O   UNL     1      41.656 -13.556   0.903  1.00  0.00    -0.272 OA
BRANCH  28  29
HETATM   29  C   UNL     1      40.330 -13.926   0.942  1.00  0.00     0.300 C 
HETATM   30  O   UNL     1      39.703 -14.419   1.869  1.00  0.00    -0.259 OA
BRANCH  29  31
HETATM   31  C   UNL     1      39.701 -13.553  -0.338  1.00  0.00     0.061 A 
HETATM   32  C   UNL     1      38.748 -12.533  -0.447  1.00  0.00     0.050 A 
HETATM   33 CL   UNL     1      38.237 -11.574   0.896  1.00  0.00    -0.083 Cl
HETATM   34  C   UNL     1      38.212 -12.221  -1.701  1.00  0.00     0.025 A 
HETATM   35  C   UNL     1      38.633 -12.911  -2.840  1.00  0.00     0.002 A 
HETATM   36  C   UNL     1      39.598 -13.912  -2.733  1.00  0.00     0.001 A 
HETATM   37  C   UNL     1      40.137 -14.231  -1.486  1.00  0.00     0.019 A 
ENDBRANCH  29  31
ENDBRANCH  28  29
ENDBRANCH   2  28
TORSDOF 6
ENDMDL
MODEL 8
REMARK VINA RESULT:      -8.1      5.887      9.519
REMARK  6 active torsions:
REMARK  status: ('A' for Active; 'I' for Inactive)
REMARK    1  A    between atoms: C_2  and  O_3 
REMARK    2  A    between atoms: O_3  and  C_4 
REMARK    3  A    between atoms: C_5  and  O_6 
REMARK    4  A    between atoms: O_6  and  C_7 
REMARK    5  A    between atoms: C_7  and  C_8 
REMARK    6  A    between atoms: C_18  and  C_19 
ROOT
HETATM    1  C   UNL     1      42.404 -12.302   3.649  1.00  0.00     0.103 A 
HETATM    2  C   UNL     1      42.585 -13.630   3.246  1.00  0.00     0.112 A 
HETATM    3  C   UNL     1      42.253 -14.062   1.962  1.00  0.00     0.041 A 
HETATM    4  C   UNL     1      41.761 -13.142   1.042  1.00  0.00     0.014 A 
HETATM    5  C   UNL     1      41.581 -11.795   1.404  1.00  0.00    -0.013 A 
HETATM    6  C   UNL     1      41.902 -11.388   2.716  1.00  0.00     0.050 A 
ENDROOT
BRANCH   5   7
HETATM    7  C   UNL     1      41.054 -10.795   0.400  1.00  0.00     0.219 C 
HETATM    8  N   UNL     1      40.915 -11.390  -0.905  1.00  0.00    -0.332 N 
HETATM    9  C   UNL     1      40.776 -10.636  -2.041  1.00  0.00     0.256 C 
HETATM   10  H   UNL     1      40.516 -12.315  -0.960  1.00  0.00     0.165 HD
HETATM   11  O   UNL     1      40.307 -11.097  -3.075  1.00  0.00    -0.267 OA
HETATM   12  C   UNL     1      41.259  -9.269  -1.938  1.00  0.00     0.073 A 
HETATM   13  C   UNL     1      41.834  -8.853  -0.759  1.00  0.00     0.088 A 
HETATM   14  C   UNL     1      41.268  -8.234  -2.926  1.00  0.00    -0.023 A 
HETATM   15  S   UNL     1      42.389  -7.249  -0.828  1.00  0.00    -0.074 SA
HETATM   16  N   UNL     1      41.951  -9.658   0.318  1.00  0.00    -0.358 N 
HETATM   17  C   UNL     1      41.871  -7.086  -2.442  1.00  0.00     0.018 A 
HETATM   18  C   UNL     1      42.054  -5.825  -3.211  1.00  0.00     0.281 C 
HETATM   19  N   UNL     1      41.864  -6.055  -4.707  1.00  0.00    -0.070 N 
HETATM   20  C   UNL     1      40.647  -6.935  -4.988  1.00  0.00     0.239 C 
HETATM   21  H   UNL     1      41.661  -5.134  -5.112  1.00  0.00     0.279 HD
HETATM   22  C   UNL     1      43.117  -6.541  -5.380  1.00  0.00     0.270 C 
HETATM   23  C   UNL     1      40.763  -8.323  -4.336  1.00  0.00     0.068 C 
HETATM   24  H   UNL     1      42.227  -9.267   1.215  1.00  0.00     0.162 HD
ENDBRANCH   5   7
BRANCH   1  25
HETATM   25  O   UNL     1      42.728 -12.014   4.947  1.00  0.00    -0.349 OA
BRANCH  25  26
HETATM   26  C   UNL     1      43.999 -11.412   5.190  1.00  0.00     0.171 C 
HETATM   27  C   UNL     1      44.604 -12.068   6.417  1.00  0.00     0.034 C 
ENDBRANCH  25  26
ENDBRANCH   1  25
BRANCH   2  28
HETATM   28  O   UNL     1      43.065 -14.584   4.148  1.00  0.00    -0.272 OA
BRANCH  28  29
HETATM   29  C   UNL     1      42.187 -15.636   4.288  1.00  0.00     0.300 C 
HETATM   30  O   UNL     1      41.013 -15.609   4.628  1.00  0.00    -0.259 OA
BRANCH  29  31
HETATM   31  C   UNL     1      42.869 -16.875   3.873  1.00  0.00     0.061 A 
HETATM   32  C   UNL     1      43.879 -17.477   4.633  1.00  0.00     0.050 A 
HETATM   33 CL   UNL     1      44.405 -16.859   6.158  1.00  0.00    -0.083 Cl
HETATM   34  C   UNL     1      44.465 -18.665   4.184  1.00  0.00     0.025 A 
HETATM   35  C   UNL     1      44.038 -19.256   2.992  1.00  0.00     0.002 A 
HETATM   36  C   UNL     1      43.018 -18.667   2.247  1.00  0.00     0.001 A 
HETATM   37  C   UNL     1      42.429 -17.481   2.686  1.00  0.00     0.019 A 
ENDBRANCH  29  31
ENDBRANCH  28  29
ENDBRANCH   2  28
TORSDOF 6
ENDMDL
MODEL 9
REMARK VINA RESULT:      -8.0      3.407     10.079
REMARK  6 active torsions:
REMARK  status: ('A' for Active; 'I' for Inactive)
REMARK    1  A    between atoms: C_2  and  O_3 
REMARK    2  A    between atoms: O_3  and  C_4 
REMARK    3  A    between atoms: C_5  and  O_6 
REMARK    4  A    between atoms: O_6  and  C_7 
REMARK    5  A    between atoms: C_7  and  C_8 
REMARK    6  A    between atoms: C_18  and  C_19 
ROOT
HETATM    1  C   UNL     1      42.344  -8.586   8.791  1.00  0.00     0.103 A 
HETATM    2  C   UNL     1      43.309  -8.385   9.785  1.00  0.00     0.112 A 
HETATM    3  C   UNL     1      44.430  -9.207   9.900  1.00  0.00     0.041 A 
HETATM    4  C   UNL     1      44.617 -10.234   8.981  1.00  0.00     0.014 A 
HETATM    5  C   UNL     1      43.679 -10.456   7.957  1.00  0.00    -0.013 A 
HETATM    6  C   UNL     1      42.541  -9.626   7.877  1.00  0.00     0.050 A 
ENDROOT
BRANCH   5   7
HETATM    7  C   UNL     1      43.888 -11.568   6.953  1.00  0.00     0.219 C 
HETATM    8  N   UNL     1      43.981 -11.048   5.613  1.00  0.00    -0.332 N 
HETATM    9  C   UNL     1      43.844 -11.847   4.508  1.00  0.00     0.256 C 
HETATM   10  H   UNL     1      44.537 -10.218   5.467  1.00  0.00     0.165 HD
HETATM   11  O   UNL     1      44.265 -11.514   3.406  1.00  0.00    -0.267 OA
HETATM   12  C   UNL     1      43.130 -13.094   4.732  1.00  0.00     0.073 A 
HETATM   13  C   UNL     1      42.631 -13.358   5.987  1.00  0.00     0.088 A 
HETATM   14  C   UNL     1      42.813 -14.136   3.805  1.00  0.00    -0.023 A 
HETATM   15  S   UNL     1      41.782 -14.828   6.062  1.00  0.00    -0.074 SA
HETATM   16  N   UNL     1      42.793 -12.514   7.029  1.00  0.00    -0.358 N 
HETATM   17  C   UNL     1      42.068 -15.134   4.411  1.00  0.00     0.018 A 
HETATM   18  C   UNL     1      41.564 -16.359   3.732  1.00  0.00     0.281 C 
HETATM   19  N   UNL     1      41.617 -16.213   2.214  1.00  0.00    -0.070 N 
HETATM   20  C   UNL     1      42.935 -15.590   1.756  1.00  0.00     0.239 C 
HETATM   21  H   UNL     1      41.596 -17.167   1.837  1.00  0.00     0.279 HD
HETATM   22  C   UNL     1      40.406 -15.516   1.659  1.00  0.00     0.270 C 
HETATM   23  C   UNL     1      43.156 -14.186   2.346  1.00  0.00     0.068 C 
HETATM   24  H   UNL     1      42.557 -12.819   7.969  1.00  0.00     0.162 HD
ENDBRANCH   5   7
BRANCH   1  25
HETATM   25  O   UNL     1      41.269  -7.739   8.811  1.00  0.00    -0.349 OA
BRANCH  25  26
HETATM   26  C   UNL     1      39.989  -8.294   8.514  1.00  0.00     0.171 C 
HETATM   27  C   UNL     1      38.938  -7.240   8.810  1.00  0.00     0.034 C 
ENDBRANCH  25  26
ENDBRANCH   1  25
BRANCH   2  28
HETATM   28  O   UNL     1      43.147  -7.371  10.734  1.00  0.00    -0.272 OA
BRANCH  28  29
HETATM   29  C   UNL     1      42.766  -7.878  11.957  1.00  0.00     0.300 C 
HETATM   30  O   UNL     1      43.427  -8.529  12.753  1.00  0.00    -0.259 OA
BRANCH  29  31
HETATM   31  C   UNL     1      41.388  -7.436  12.238  1.00  0.00     0.061 A 
HETATM   32  C   UNL     1      40.285  -8.295  12.161  1.00  0.00     0.050 A 
HETATM   33 CL   UNL     1      40.423  -9.973  11.770  1.00  0.00    -0.083 Cl
HETATM   34  C   UNL     1      39.009  -7.809  12.463  1.00  0.00     0.025 A 
HETATM   35  C   UNL     1      38.835  -6.479  12.853  1.00  0.00     0.002 A 
HETATM   36  C   UNL     1      39.936  -5.630  12.950  1.00  0.00     0.001 A 
HETATM   37  C   UNL     1      41.213  -6.106  12.648  1.00  0.00     0.019 A 
ENDBRANCH  29  31
ENDBRANCH  28  29
ENDBRANCH   2  28
TORSDOF 6
ENDMDL
MODEL 10
REMARK VINA RESULT:      -8.0      3.468     10.049
REMARK  6 active torsions:
REMARK  status: ('A' for Active; 'I' for Inactive)
REMARK    1  A    between atoms: C_2  and  O_3 
REMARK    2  A    between atoms: O_3  and  C_4 
REMARK    3  A    between atoms: C_5  and  O_6 
REMARK    4  A    between atoms: O_6  and  C_7 
REMARK    5  A    between atoms: C_7  and  C_8 
REMARK    6  A    between atoms: C_18  and  C_19 
ROOT
HETATM    1  C   UNL     1      42.542  -8.703   8.677  1.00  0.00     0.103 A 
HETATM    2  C   UNL     1      41.611  -7.665   8.793  1.00  0.00     0.112 A 
HETATM    3  C   UNL     1      40.478  -7.598   7.982  1.00  0.00     0.041 A 
HETATM    4  C   UNL     1      40.245  -8.608   7.055  1.00  0.00     0.014 A 
HETATM    5  C   UNL     1      41.149  -9.678   6.921  1.00  0.00    -0.013 A 
HETATM    6  C   UNL     1      42.299  -9.710   7.737  1.00  0.00     0.050 A 
ENDROOT
BRANCH   5   7
HETATM    7  C   UNL     1      40.889 -10.780   5.919  1.00  0.00     0.219 C 
HETATM    8  N   UNL     1      40.404 -11.971   6.568  1.00  0.00    -0.332 N 
HETATM    9  C   UNL     1      40.405 -13.193   5.949  1.00  0.00     0.256 C 
HETATM   10  H   UNL     1      39.705 -11.863   7.289  1.00  0.00     0.165 HD
HETATM   11  O   UNL     1      39.689 -14.114   6.325  1.00  0.00    -0.267 OA
HETATM   12  C   UNL     1      41.339 -13.325   4.844  1.00  0.00     0.073 A 
HETATM   13  C   UNL     1      42.154 -12.261   4.531  1.00  0.00     0.088 A 
HETATM   14  C   UNL     1      41.592 -14.453   4.000  1.00  0.00    -0.023 A 
HETATM   15  S   UNL     1      43.218 -12.601   3.251  1.00  0.00    -0.074 SA
HETATM   16  N   UNL     1      42.108 -11.088   5.196  1.00  0.00    -0.358 N 
HETATM   17  C   UNL     1      42.607 -14.183   3.097  1.00  0.00     0.018 A 
HETATM   18  C   UNL     1      43.125 -15.140   2.081  1.00  0.00     0.281 C 
HETATM   19  N   UNL     1      42.697 -16.570   2.396  1.00  0.00    -0.070 N 
HETATM   20  C   UNL     1      41.227 -16.636   2.807  1.00  0.00     0.239 C 
HETATM   21  H   UNL     1      42.780 -17.091   1.516  1.00  0.00     0.279 HD
HETATM   22  C   UNL     1      43.618 -17.246   3.372  1.00  0.00     0.270 C 
HETATM   23  C   UNL     1      40.929 -15.796   4.061  1.00  0.00     0.068 C 
HETATM   24  H   UNL     1      42.603 -10.278   4.831  1.00  0.00     0.162 HD
ENDBRANCH   5   7
BRANCH   1  25
HETATM   25  O   UNL     1      43.633  -8.632   9.501  1.00  0.00    -0.349 OA
BRANCH  25  26
HETATM   26  C   UNL     1      43.894  -9.753  10.344  1.00  0.00     0.171 C 
HETATM   27  C   UNL     1      45.386 -10.032  10.308  1.00  0.00     0.034 C 
ENDBRANCH  25  26
ENDBRANCH   1  25
BRANCH   2  28
HETATM   28  O   UNL     1      41.819  -6.626   9.704  1.00  0.00    -0.272 OA
BRANCH  28  29
HETATM   29  C   UNL     1      40.868  -6.627  10.701  1.00  0.00     0.300 C 
HETATM   30  O   UNL     1      39.762  -6.109  10.701  1.00  0.00    -0.259 OA
BRANCH  29  31
HETATM   31  C   UNL     1      41.359  -7.459  11.815  1.00  0.00     0.061 A 
HETATM   32  C   UNL     1      40.844  -8.729  12.099  1.00  0.00     0.050 A 
HETATM   33 CL   UNL     1      39.608  -9.477  11.152  1.00  0.00    -0.083 Cl
HETATM   34  C   UNL     1      41.377  -9.468  13.161  1.00  0.00     0.025 A 
HETATM   35  C   UNL     1      42.425  -8.951  13.925  1.00  0.00     0.002 A 
HETATM   36  C   UNL     1      42.952  -7.695  13.627  1.00  0.00     0.001 A 
HETATM   37  C   UNL     1      42.425  -6.950  12.572  1.00  0.00     0.019 A 
ENDBRANCH  29  31
ENDBRANCH  28  29
ENDBRANCH   2  28
TORSDOF 6
ENDMDL
