MODEL 1
REMARK VINA RESULT:      -9.5      0.000      0.000
REMARK  3 active torsions:
REMARK  status: ('A' for Active; 'I' for Inactive)
REMARK    1  A    between atoms: C_9  and  C_10 
REMARK       I    between atoms: C_10  and  N_11 
REMARK    2  A    between atoms: N_11  and  C_12 
REMARK    3  A    between atoms: C_12  and  C_13 
ROOT
HETATM    1  C   UNL     1      42.894 -15.237   3.832  1.00  0.00     0.273 C 
HETATM    2  N   UNL     1      41.693 -14.674   4.204  1.00  0.00    -0.347 N 
HETATM    3  O   UNL     1      43.609 -14.785   2.942  1.00  0.00    -0.266 OA
HETATM    4  H   UNL     1      41.160 -15.207   4.885  1.00  0.00     0.163 HD
ENDROOT
BRANCH   2   5
HETATM    5  C   UNL     1      41.122 -13.519   3.549  1.00  0.00     0.114 C 
HETATM    6  C   UNL     1      39.917 -13.003   4.337  1.00  0.00     0.037 C 
BRANCH   5   7
HETATM    7  C   UNL     1      40.765 -13.831   2.106  1.00  0.00    -0.034 A 
HETATM    8  C   UNL     1      41.133 -12.932   1.090  1.00  0.00     0.041 A 
HETATM    9  C   UNL     1      40.776 -13.179  -0.237  1.00  0.00     0.069 A 
HETATM   10  C   UNL     1      40.066 -14.331  -0.574  1.00  0.00     0.096 A 
HETATM   11  N   UNL     1      41.153 -12.272  -1.228  1.00  0.00    -0.323 N 
HETATM   12  O   UNL     1      39.708 -14.657  -1.853  1.00  0.00    -0.340 OA
HETATM   13  C   UNL     1      39.731 -15.250   0.418  1.00  0.00     0.040 A 
HETATM   14  C   UNL     1      39.799 -13.588  -2.782  1.00  0.00     0.278 C 
HETATM   15  C   UNL     1      40.759 -12.426  -2.527  1.00  0.00     0.246 C 
HETATM   16  O   UNL     1      41.106 -11.637  -3.402  1.00  0.00    -0.271 OA
HETATM   17  C   UNL     1      40.074 -15.002   1.749  1.00  0.00     0.012 A 
HETATM   18  H   UNL     1      41.738 -11.476  -1.013  1.00  0.00     0.169 HD
ENDBRANCH   5   7
ENDBRANCH   2   5
BRANCH   1  19
HETATM   19  C   UNL     1      43.240 -16.422   4.635  1.00  0.00     0.157 A 
HETATM   20  C   UNL     1      43.442 -17.757   4.173  1.00  0.00     0.029 A 
HETATM   21  C   UNL     1      43.379 -18.423   2.933  1.00  0.00     0.023 A 
HETATM   22  C   UNL     1      43.788 -18.483   5.306  1.00  0.00     0.063 A 
HETATM   23  C   UNL     1      43.663 -19.798   2.871  1.00  0.00    -0.061 A 
HETATM   24  C   UNL     1      43.605 -20.529   1.560  1.00  0.00     0.048 C 
HETATM   25  C   UNL     1      44.019 -20.489   4.036  1.00  0.00     0.009 A 
HETATM   26  C   UNL     1      44.087 -19.847   5.278  1.00  0.00     0.032 A 
HETATM   27  N   UNL     1      43.759 -17.582   6.335  1.00  0.00    -0.277 N 
HETATM   28  H   UNL     1      43.962 -17.764   7.311  1.00  0.00     0.189 HD
HETATM   29  N   UNL     1      43.427 -16.330   5.972  1.00  0.00    -0.168 NA
ENDBRANCH   1  19
TORSDOF 3
ENDMDL
MODEL 2
REMARK VINA RESULT:      -9.2      2.474      7.848
REMARK  3 active torsions:
REMARK  status: ('A' for Active; 'I' for Inactive)
REMARK    1  A    between atoms: C_9  and  C_10 
REMARK       I    between atoms: C_10  and  N_11 
REMARK    2  A    between atoms: N_11  and  C_12 
REMARK    3  A    between atoms: C_12  and  C_13 
ROOT
HETATM    1  C   UNL     1      40.372 -13.879   1.836  1.00  0.00     0.273 C 
HETATM    2  N   UNL     1      41.675 -14.127   2.206  1.00  0.00    -0.347 N 
HETATM    3  O   UNL     1      39.465 -13.680   2.640  1.00  0.00    -0.266 OA
HETATM    4  H   UNL     1      42.299 -14.372   1.443  1.00  0.00     0.163 HD
ENDROOT
BRANCH   2   5
HETATM    5  C   UNL     1      42.104 -14.227   3.581  1.00  0.00     0.114 C 
HETATM    6  C   UNL     1      43.056 -13.080   3.925  1.00  0.00     0.037 C 
BRANCH   5   7
HETATM    7  C   UNL     1      42.726 -15.584   3.862  1.00  0.00    -0.034 A 
HETATM    8  C   UNL     1      42.685 -16.584   2.875  1.00  0.00     0.041 A 
HETATM    9  C   UNL     1      43.213 -17.851   3.129  1.00  0.00     0.069 A 
HETATM   10  C   UNL     1      43.803 -18.136   4.359  1.00  0.00     0.096 A 
HETATM   11  N   UNL     1      43.161 -18.826   2.133  1.00  0.00    -0.323 N 
HETATM   12  O   UNL     1      44.368 -19.342   4.672  1.00  0.00    -0.340 OA
HETATM   13  C   UNL     1      43.885 -17.142   5.332  1.00  0.00     0.040 A 
HETATM   14  C   UNL     1      44.016 -20.402   3.796  1.00  0.00     0.278 C 
HETATM   15  C   UNL     1      43.589 -20.104   2.359  1.00  0.00     0.246 C 
HETATM   16  O   UNL     1      43.560 -20.957   1.476  1.00  0.00    -0.271 OA
HETATM   17  C   UNL     1      43.348 -15.875   5.088  1.00  0.00     0.012 A 
HETATM   18  H   UNL     1      42.812 -18.612   1.208  1.00  0.00     0.169 HD
ENDBRANCH   5   7
ENDBRANCH   2   5
BRANCH   1  19
HETATM   19  C   UNL     1      40.188 -13.855   0.376  1.00  0.00     0.157 A 
HETATM   20  C   UNL     1      40.532 -12.806  -0.527  1.00  0.00     0.029 A 
HETATM   21  C   UNL     1      41.090 -11.516  -0.421  1.00  0.00     0.023 A 
HETATM   22  C   UNL     1      40.199 -13.288  -1.787  1.00  0.00     0.063 A 
HETATM   23  C   UNL     1      41.294 -10.751  -1.583  1.00  0.00    -0.061 A 
HETATM   24  C   UNL     1      41.889  -9.376  -1.494  1.00  0.00     0.048 C 
HETATM   25  C   UNL     1      40.954 -11.282  -2.833  1.00  0.00     0.009 A 
HETATM   26  C   UNL     1      40.399 -12.560  -2.962  1.00  0.00     0.032 A 
HETATM   27  N   UNL     1      39.686 -14.537  -1.571  1.00  0.00    -0.277 N 
HETATM   28  H   UNL     1      39.341 -15.185  -2.269  1.00  0.00     0.189 HD
HETATM   29  N   UNL     1      39.656 -14.914  -0.280  1.00  0.00    -0.168 NA
ENDBRANCH   1  19
TORSDOF 3
ENDMDL
MODEL 3
REMARK VINA RESULT:      -9.2      4.649      8.116
REMARK  3 active torsions:
REMARK  status: ('A' for Active; 'I' for Inactive)
REMARK    1  A    between atoms: C_9  and  C_10 
REMARK       I    between atoms: C_10  and  N_11 
REMARK    2  A    between atoms: N_11  and  C_12 
REMARK    3  A    between atoms: C_12  and  C_13 
ROOT
HETATM    1  C   UNL     1      43.560 -11.992   5.287  1.00  0.00     0.273 C 
HETATM    2  N   UNL     1      43.498 -13.357   5.462  1.00  0.00    -0.347 N 
HETATM    3  O   UNL     1      42.871 -11.380   4.475  1.00  0.00    -0.266 OA
HETATM    4  H   UNL     1      44.193 -13.741   6.095  1.00  0.00     0.163 HD
ENDROOT
BRANCH   2   5
HETATM    5  C   UNL     1      42.652 -14.220   4.671  1.00  0.00     0.114 C 
HETATM    6  C   UNL     1      41.195 -14.093   5.123  1.00  0.00     0.037 C 
BRANCH   5   7
HETATM    7  C   UNL     1      43.138 -15.658   4.722  1.00  0.00    -0.034 A 
HETATM    8  C   UNL     1      43.003 -16.477   3.588  1.00  0.00     0.041 A 
HETATM    9  C   UNL     1      43.404 -17.813   3.628  1.00  0.00     0.069 A 
HETATM   10  C   UNL     1      43.962 -18.348   4.788  1.00  0.00     0.096 A 
HETATM   11  N   UNL     1      43.260 -18.606   2.489  1.00  0.00    -0.323 N 
HETATM   12  O   UNL     1      44.406 -19.637   4.896  1.00  0.00    -0.340 OA
HETATM   13  C   UNL     1      44.138 -17.536   5.907  1.00  0.00     0.040 A 
HETATM   14  C   UNL     1      43.954 -20.503   3.866  1.00  0.00     0.278 C 
HETATM   15  C   UNL     1      43.561 -19.938   2.501  1.00  0.00     0.246 C 
HETATM   16  O   UNL     1      43.451 -20.631   1.493  1.00  0.00    -0.271 OA
HETATM   17  C   UNL     1      43.726 -16.201   5.877  1.00  0.00     0.012 A 
HETATM   18  H   UNL     1      42.936 -18.213   1.616  1.00  0.00     0.169 HD
ENDBRANCH   5   7
ENDBRANCH   2   5
BRANCH   1  19
HETATM   19  C   UNL     1      44.521 -11.344   6.195  1.00  0.00     0.157 A 
HETATM   20  C   UNL     1      44.236 -10.629   7.397  1.00  0.00     0.029 A 
HETATM   21  C   UNL     1      43.078 -10.266   8.113  1.00  0.00     0.023 A 
HETATM   22  C   UNL     1      45.477 -10.258   7.899  1.00  0.00     0.063 A 
HETATM   23  C   UNL     1      43.203  -9.539   9.309  1.00  0.00    -0.061 A 
HETATM   24  C   UNL     1      41.984  -9.143  10.090  1.00  0.00     0.048 C 
HETATM   25  C   UNL     1      44.475  -9.195   9.785  1.00  0.00     0.009 A 
HETATM   26  C   UNL     1      45.638  -9.546   9.090  1.00  0.00     0.032 A 
HETATM   27  N   UNL     1      46.389 -10.738   7.000  1.00  0.00    -0.277 N 
HETATM   28  H   UNL     1      47.398 -10.653   7.049  1.00  0.00     0.189 HD
HETATM   29  N   UNL     1      45.852 -11.394   5.956  1.00  0.00    -0.168 NA
ENDBRANCH   1  19
TORSDOF 3
ENDMDL
MODEL 4
REMARK VINA RESULT:      -9.1      5.869      8.566
REMARK  3 active torsions:
REMARK  status: ('A' for Active; 'I' for Inactive)
REMARK    1  A    between atoms: C_9  and  C_10 
REMARK       I    between atoms: C_10  and  N_11 
REMARK    2  A    between atoms: N_11  and  C_12 
REMARK    3  A    between atoms: C_12  and  C_13 
ROOT
HETATM    1  C   UNL     1      43.227 -13.608   6.478  1.00  0.00     0.273 C 
HETATM    2  N   UNL     1      44.369 -12.939   6.861  1.00  0.00    -0.347 N 
HETATM    3  O   UNL     1      42.269 -13.061   5.937  1.00  0.00    -0.266 OA
HETATM    4  H   UNL     1      45.038 -13.495   7.385  1.00  0.00     0.163 HD
ENDROOT
BRANCH   2   5
HETATM    5  C   UNL     1      44.539 -11.512   6.713  1.00  0.00     0.114 C 
HETATM    6  C   UNL     1      45.868 -11.205   6.021  1.00  0.00     0.037 C 
BRANCH   5   7
HETATM    7  C   UNL     1      44.421 -10.806   8.053  1.00  0.00    -0.034 A 
HETATM    8  C   UNL     1      43.150 -10.575   8.606  1.00  0.00     0.041 A 
HETATM    9  C   UNL     1      43.018  -9.890   9.815  1.00  0.00     0.069 A 
HETATM   10  C   UNL     1      44.147  -9.442  10.500  1.00  0.00     0.096 A 
HETATM   11  N   UNL     1      41.746  -9.673  10.344  1.00  0.00    -0.323 N 
HETATM   12  O   UNL     1      44.101  -8.792  11.701  1.00  0.00    -0.340 OA
HETATM   13  C   UNL     1      45.415  -9.700   9.982  1.00  0.00     0.040 A 
HETATM   14  C   UNL     1      42.820  -8.292  12.052  1.00  0.00     0.278 C 
HETATM   15  C   UNL     1      41.558  -8.938  11.481  1.00  0.00     0.246 C 
HETATM   16  O   UNL     1      40.439  -8.763  11.956  1.00  0.00    -0.271 OA
HETATM   17  C   UNL     1      45.552 -10.374   8.765  1.00  0.00     0.012 A 
HETATM   18  H   UNL     1      40.923 -10.062   9.904  1.00  0.00     0.169 HD
ENDBRANCH   5   7
ENDBRANCH   2   5
BRANCH   1  19
HETATM   19  C   UNL     1      43.290 -15.051   6.762  1.00  0.00     0.157 A 
HETATM   20  C   UNL     1      43.383 -16.120   5.821  1.00  0.00     0.029 A 
HETATM   21  C   UNL     1      43.421 -16.238   4.418  1.00  0.00     0.023 A 
HETATM   22  C   UNL     1      43.455 -17.274   6.592  1.00  0.00     0.063 A 
HETATM   23  C   UNL     1      43.529 -17.511   3.832  1.00  0.00    -0.061 A 
HETATM   24  C   UNL     1      43.574 -17.661   2.339  1.00  0.00     0.048 C 
HETATM   25  C   UNL     1      43.610 -18.647   4.647  1.00  0.00     0.009 A 
HETATM   26  C   UNL     1      43.574 -18.553   6.043  1.00  0.00     0.032 A 
HETATM   27  N   UNL     1      43.390 -16.847   7.889  1.00  0.00    -0.277 N 
HETATM   28  H   UNL     1      43.417 -17.421   8.723  1.00  0.00     0.189 HD
HETATM   29  N   UNL     1      43.283 -15.514   8.034  1.00  0.00    -0.168 NA
ENDBRANCH   1  19
TORSDOF 3
ENDMDL
MODEL 5
REMARK VINA RESULT:      -8.9      2.474      7.418
REMARK  3 active torsions:
REMARK  status: ('A' for Active; 'I' for Inactive)
REMARK    1  A    between atoms: C_9  and  C_10 
REMARK       I    between atoms: C_10  and  N_11 
REMARK    2  A    between atoms: N_11  and  C_12 
REMARK    3  A    between atoms: C_12  and  C_13 
ROOT
HETATM    1  C   UNL     1      40.340 -13.052   2.409  1.00  0.00     0.273 C 
HETATM    2  N   UNL     1      41.400 -13.706   2.998  1.00  0.00    -0.347 N 
HETATM    3  O   UNL     1      39.225 -12.973   2.916  1.00  0.00    -0.266 OA
HETATM    4  H   UNL     1      42.234 -13.777   2.423  1.00  0.00     0.163 HD
ENDROOT
BRANCH   2   5
HETATM    5  C   UNL     1      41.297 -14.412   4.253  1.00  0.00     0.114 C 
HETATM    6  C   UNL     1      41.581 -13.464   5.421  1.00  0.00     0.037 C 
BRANCH   5   7
HETATM    7  C   UNL     1      42.209 -15.627   4.274  1.00  0.00    -0.034 A 
HETATM    8  C   UNL     1      42.097 -16.595   3.262  1.00  0.00     0.041 A 
HETATM    9  C   UNL     1      42.896 -17.740   3.287  1.00  0.00     0.069 A 
HETATM   10  C   UNL     1      43.829 -17.927   4.306  1.00  0.00     0.096 A 
HETATM   11  N   UNL     1      42.767 -18.687   2.271  1.00  0.00    -0.323 N 
HETATM   12  O   UNL     1      44.667 -19.005   4.382  1.00  0.00    -0.340 OA
HETATM   13  C   UNL     1      43.977 -16.955   5.293  1.00  0.00     0.040 A 
HETATM   14  C   UNL     1      44.300 -20.097   3.552  1.00  0.00     0.278 C 
HETATM   15  C   UNL     1      43.467 -19.860   2.293  1.00  0.00     0.246 C 
HETATM   16  O   UNL     1      43.366 -20.686   1.389  1.00  0.00    -0.271 OA
HETATM   17  C   UNL     1      43.171 -15.814   5.280  1.00  0.00     0.012 A 
HETATM   18  H   UNL     1      42.156 -18.527   1.481  1.00  0.00     0.169 HD
ENDBRANCH   5   7
ENDBRANCH   2   5
BRANCH   1  19
HETATM   19  C   UNL     1      40.696 -12.437   1.119  1.00  0.00     0.157 A 
HETATM   20  C   UNL     1      40.355 -12.897  -0.188  1.00  0.00     0.029 A 
HETATM   21  C   UNL     1      39.656 -13.995  -0.728  1.00  0.00     0.023 A 
HETATM   22  C   UNL     1      40.887 -11.950  -1.055  1.00  0.00     0.063 A 
HETATM   23  C   UNL     1      39.516 -14.108  -2.123  1.00  0.00    -0.061 A 
HETATM   24  C   UNL     1      38.773 -15.267  -2.721  1.00  0.00     0.048 C 
HETATM   25  C   UNL     1      40.057 -13.124  -2.959  1.00  0.00     0.009 A 
HETATM   26  C   UNL     1      40.755 -12.025  -2.443  1.00  0.00     0.032 A 
HETATM   27  N   UNL     1      41.499 -11.028  -0.251  1.00  0.00    -0.277 N 
HETATM   28  H   UNL     1      41.992 -10.193  -0.545  1.00  0.00     0.189 HD
HETATM   29  N   UNL     1      41.412 -11.289   1.065  1.00  0.00    -0.168 NA
ENDBRANCH   1  19
TORSDOF 3
ENDMDL
MODEL 6
REMARK VINA RESULT:      -8.8      4.581      7.457
REMARK  3 active torsions:
REMARK  status: ('A' for Active; 'I' for Inactive)
REMARK    1  A    between atoms: C_9  and  C_10 
REMARK       I    between atoms: C_10  and  N_11 
REMARK    2  A    between atoms: N_11  and  C_12 
REMARK    3  A    between atoms: C_12  and  C_13 
ROOT
HETATM    1  C   UNL     1      41.887 -13.992   3.708  1.00  0.00     0.273 C 
HETATM    2  N   UNL     1      42.756 -12.933   3.855  1.00  0.00    -0.347 N 
HETATM    3  O   UNL     1      40.723 -13.975   4.097  1.00  0.00    -0.266 OA
HETATM    4  H   UNL     1      43.714 -13.121   3.577  1.00  0.00     0.163 HD
ENDROOT
BRANCH   2   5
HETATM    5  C   UNL     1      42.402 -11.706   4.529  1.00  0.00     0.114 C 
HETATM    6  C   UNL     1      42.409 -10.537   3.542  1.00  0.00     0.037 C 
BRANCH   5   7
HETATM    7  C   UNL     1      43.315 -11.452   5.716  1.00  0.00    -0.034 A 
HETATM    8  C   UNL     1      42.760 -11.073   6.950  1.00  0.00     0.041 A 
HETATM    9  C   UNL     1      43.584 -10.793   8.041  1.00  0.00     0.069 A 
HETATM   10  C   UNL     1      44.969 -10.904   7.926  1.00  0.00     0.096 A 
HETATM   11  N   UNL     1      43.010 -10.419   9.256  1.00  0.00    -0.323 N 
HETATM   12  O   UNL     1      45.840 -10.677   8.956  1.00  0.00    -0.340 OA
HETATM   13  C   UNL     1      45.530 -11.318   6.719  1.00  0.00     0.040 A 
HETATM   14  C   UNL     1      45.277  -9.987  10.061  1.00  0.00     0.278 C 
HETATM   15  C   UNL     1      43.774 -10.057  10.329  1.00  0.00     0.246 C 
HETATM   16  O   UNL     1      43.267  -9.745  11.403  1.00  0.00    -0.271 OA
HETATM   17  C   UNL     1      44.710 -11.587   5.620  1.00  0.00     0.012 A 
HETATM   18  H   UNL     1      42.006 -10.415   9.380  1.00  0.00     0.169 HD
ENDBRANCH   5   7
ENDBRANCH   2   5
BRANCH   1  19
HETATM   19  C   UNL     1      42.498 -15.138   3.012  1.00  0.00     0.157 A 
HETATM   20  C   UNL     1      42.929 -16.373   3.581  1.00  0.00     0.029 A 
HETATM   21  C   UNL     1      42.975 -16.935   4.873  1.00  0.00     0.023 A 
HETATM   22  C   UNL     1      43.387 -17.125   2.507  1.00  0.00     0.063 A 
HETATM   23  C   UNL     1      43.482 -18.235   5.044  1.00  0.00    -0.061 A 
HETATM   24  C   UNL     1      43.539 -18.855   6.410  1.00  0.00     0.048 C 
HETATM   25  C   UNL     1      43.923 -18.962   3.932  1.00  0.00     0.009 A 
HETATM   26  C   UNL     1      43.886 -18.423   2.640  1.00  0.00     0.032 A 
HETATM   27  N   UNL     1      43.223 -16.326   1.410  1.00  0.00    -0.277 N 
HETATM   28  H   UNL     1      43.451 -16.553   0.449  1.00  0.00     0.189 HD
HETATM   29  N   UNL     1      42.695 -15.117   1.673  1.00  0.00    -0.168 NA
ENDBRANCH   1  19
TORSDOF 3
ENDMDL
MODEL 7
REMARK VINA RESULT:      -8.7      4.080      7.619
REMARK  3 active torsions:
REMARK  status: ('A' for Active; 'I' for Inactive)
REMARK    1  A    between atoms: C_9  and  C_10 
REMARK       I    between atoms: C_10  and  N_11 
REMARK    2  A    between atoms: N_11  and  C_12 
REMARK    3  A    between atoms: C_12  and  C_13 
ROOT
HETATM    1  C   UNL     1      42.358 -11.958   4.352  1.00  0.00     0.273 C 
HETATM    2  N   UNL     1      42.043 -13.298   4.419  1.00  0.00    -0.347 N 
HETATM    3  O   UNL     1      42.674 -11.387   3.312  1.00  0.00    -0.266 OA
HETATM    4  H   UNL     1      41.897 -13.658   5.357  1.00  0.00     0.163 HD
ENDROOT
BRANCH   2   5
HETATM    5  C   UNL     1      42.101 -14.184   3.280  1.00  0.00     0.114 C 
HETATM    6  C   UNL     1      40.710 -14.348   2.664  1.00  0.00     0.037 C 
BRANCH   5   7
HETATM    7  C   UNL     1      42.716 -15.520   3.658  1.00  0.00    -0.034 A 
HETATM    8  C   UNL     1      42.708 -16.575   2.730  1.00  0.00     0.041 A 
HETATM    9  C   UNL     1      43.229 -17.824   3.072  1.00  0.00     0.069 A 
HETATM   10  C   UNL     1      43.782 -18.035   4.335  1.00  0.00     0.096 A 
HETATM   11  N   UNL     1      43.210 -18.855   2.134  1.00  0.00    -0.323 N 
HETATM   12  O   UNL     1      44.339 -19.218   4.734  1.00  0.00    -0.340 OA
HETATM   13  C   UNL     1      43.833 -16.986   5.250  1.00  0.00     0.040 A 
HETATM   14  C   UNL     1      44.016 -20.329   3.911  1.00  0.00     0.278 C 
HETATM   15  C   UNL     1      43.633 -20.116   2.446  1.00  0.00     0.246 C 
HETATM   16  O   UNL     1      43.633 -21.019   1.614  1.00  0.00    -0.271 OA
HETATM   17  C   UNL     1      43.300 -15.737   4.917  1.00  0.00     0.012 A 
HETATM   18  H   UNL     1      42.890 -18.696   1.188  1.00  0.00     0.169 HD
ENDBRANCH   5   7
ENDBRANCH   2   5
BRANCH   1  19
HETATM   19  C   UNL     1      42.250 -11.281   5.655  1.00  0.00     0.157 A 
HETATM   20  C   UNL     1      43.313 -10.888   6.522  1.00  0.00     0.029 A 
HETATM   21  C   UNL     1      44.718 -10.988   6.516  1.00  0.00     0.023 A 
HETATM   22  C   UNL     1      42.691 -10.255   7.591  1.00  0.00     0.063 A 
HETATM   23  C   UNL     1      45.455 -10.453   7.587  1.00  0.00    -0.061 A 
HETATM   24  C   UNL     1      46.953 -10.546   7.602  1.00  0.00     0.048 C 
HETATM   25  C   UNL     1      44.788  -9.813   8.639  1.00  0.00     0.009 A 
HETATM   26  C   UNL     1      43.393  -9.702   8.665  1.00  0.00     0.032 A 
HETATM   27  N   UNL     1      41.353 -10.318   7.320  1.00  0.00    -0.277 N 
HETATM   28  H   UNL     1      40.596  -9.952   7.887  1.00  0.00     0.189 HD
HETATM   29  N   UNL     1      41.045 -10.934   6.165  1.00  0.00    -0.168 NA
ENDBRANCH   1  19
TORSDOF 3
ENDMDL
MODEL 8
REMARK VINA RESULT:      -8.6      4.900      8.324
REMARK  3 active torsions:
REMARK  status: ('A' for Active; 'I' for Inactive)
REMARK    1  A    between atoms: C_9  and  C_10 
REMARK       I    between atoms: C_10  and  N_11 
REMARK    2  A    between atoms: N_11  and  C_12 
REMARK    3  A    between atoms: C_12  and  C_13 
ROOT
HETATM    1  C   UNL     1      43.292 -11.317   5.937  1.00  0.00     0.273 C 
HETATM    2  N   UNL     1      42.769 -12.575   6.143  1.00  0.00    -0.347 N 
HETATM    3  O   UNL     1      42.950 -10.582   5.014  1.00  0.00    -0.266 OA
HETATM    4  H   UNL     1      43.213 -13.109   6.884  1.00  0.00     0.163 HD
ENDROOT
BRANCH   2   5
HETATM    5  C   UNL     1      41.798 -13.183   5.263  1.00  0.00     0.114 C 
HETATM    6  C   UNL     1      40.474 -13.395   6.000  1.00  0.00     0.037 C 
BRANCH   5   7
HETATM    7  C   UNL     1      42.332 -14.477   4.673  1.00  0.00    -0.034 A 
HETATM    8  C   UNL     1      42.471 -15.609   5.493  1.00  0.00     0.041 A 
HETATM    9  C   UNL     1      42.999 -16.795   4.980  1.00  0.00     0.069 A 
HETATM   10  C   UNL     1      43.379 -16.877   3.640  1.00  0.00     0.096 A 
HETATM   11  N   UNL     1      43.127 -17.906   5.813  1.00  0.00    -0.323 N 
HETATM   12  O   UNL     1      43.875 -18.009   3.057  1.00  0.00    -0.340 OA
HETATM   13  C   UNL     1      43.209 -15.773   2.807  1.00  0.00     0.040 A 
HETATM   14  C   UNL     1      44.305 -19.004   3.974  1.00  0.00     0.278 C 
HETATM   15  C   UNL     1      43.712 -19.062   5.382  1.00  0.00     0.246 C 
HETATM   16  O   UNL     1      43.807 -20.046   6.112  1.00  0.00    -0.271 OA
HETATM   17  C   UNL     1      42.693 -14.580   3.318  1.00  0.00     0.012 A 
HETATM   18  H   UNL     1      42.780 -17.889   6.763  1.00  0.00     0.169 HD
ENDBRANCH   5   7
ENDBRANCH   2   5
BRANCH   1  19
HETATM   19  C   UNL     1      44.285 -10.939   6.957  1.00  0.00     0.157 A 
HETATM   20  C   UNL     1      44.041 -10.337   8.227  1.00  0.00     0.029 A 
HETATM   21  C   UNL     1      42.911  -9.885   8.938  1.00  0.00     0.023 A 
HETATM   22  C   UNL     1      45.293 -10.225   8.820  1.00  0.00     0.063 A 
HETATM   23  C   UNL     1      43.074  -9.334  10.220  1.00  0.00    -0.061 A 
HETATM   24  C   UNL     1      41.885  -8.848  10.997  1.00  0.00     0.048 C 
HETATM   25  C   UNL     1      44.353  -9.251  10.784  1.00  0.00     0.009 A 
HETATM   26  C   UNL     1      45.489  -9.693  10.097  1.00  0.00     0.032 A 
HETATM   27  N   UNL     1      46.173 -10.731   7.904  1.00  0.00    -0.277 N 
HETATM   28  H   UNL     1      47.179 -10.810   8.002  1.00  0.00     0.189 HD
HETATM   29  N   UNL     1      45.606 -11.166   6.765  1.00  0.00    -0.168 NA
ENDBRANCH   1  19
TORSDOF 3
ENDMDL
MODEL 9
REMARK VINA RESULT:      -8.5      6.100      9.006
REMARK  3 active torsions:
REMARK  status: ('A' for Active; 'I' for Inactive)
REMARK    1  A    between atoms: C_9  and  C_10 
REMARK       I    between atoms: C_10  and  N_11 
REMARK    2  A    between atoms: N_11  and  C_12 
REMARK    3  A    between atoms: C_12  and  C_13 
ROOT
HETATM    1  C   UNL     1      42.615 -11.756   5.397  1.00  0.00     0.273 C 
HETATM    2  N   UNL     1      43.547 -11.865   6.405  1.00  0.00    -0.347 N 
HETATM    3  O   UNL     1      42.539 -10.788   4.644  1.00  0.00    -0.266 OA
HETATM    4  H   UNL     1      43.432 -12.671   7.012  1.00  0.00     0.163 HD
ENDROOT
BRANCH   2   5
HETATM    5  C   UNL     1      44.501 -10.827   6.718  1.00  0.00     0.114 C 
HETATM    6  C   UNL     1      45.928 -11.332   6.491  1.00  0.00     0.037 C 
BRANCH   5   7
HETATM    7  C   UNL     1      44.301 -10.308   8.131  1.00  0.00    -0.034 A 
HETATM    8  C   UNL     1      43.028  -9.874   8.538  1.00  0.00     0.041 A 
HETATM    9  C   UNL     1      42.832  -9.354   9.818  1.00  0.00     0.069 A 
HETATM   10  C   UNL     1      43.895  -9.275  10.718  1.00  0.00     0.096 A 
HETATM   11  N   UNL     1      41.559  -8.931  10.199  1.00  0.00    -0.323 N 
HETATM   12  O   UNL     1      43.777  -8.807  11.997  1.00  0.00    -0.340 OA
HETATM   13  C   UNL     1      45.154  -9.738  10.341  1.00  0.00     0.040 A 
HETATM   14  C   UNL     1      42.582  -8.084  12.251  1.00  0.00     0.278 C 
HETATM   15  C   UNL     1      41.332  -8.340  11.409  1.00  0.00     0.246 C 
HETATM   16  O   UNL     1      40.207  -7.984  11.751  1.00  0.00    -0.271 OA
HETATM   17  C   UNL     1      45.358 -10.248   9.056  1.00  0.00     0.012 A 
HETATM   18  H   UNL     1      40.762  -9.058   9.589  1.00  0.00     0.169 HD
ENDBRANCH   5   7
ENDBRANCH   2   5
BRANCH   1  19
HETATM   19  C   UNL     1      41.739 -12.935   5.301  1.00  0.00     0.157 A 
HETATM   20  C   UNL     1      41.855 -14.035   4.400  1.00  0.00     0.029 A 
HETATM   21  C   UNL     1      42.719 -14.399   3.347  1.00  0.00     0.023 A 
HETATM   22  C   UNL     1      40.819 -14.895   4.742  1.00  0.00     0.063 A 
HETATM   23  C   UNL     1      42.512 -15.614   2.671  1.00  0.00    -0.061 A 
HETATM   24  C   UNL     1      43.421 -16.024   1.548  1.00  0.00     0.048 C 
HETATM   25  C   UNL     1      41.462 -16.456   3.057  1.00  0.00     0.009 A 
HETATM   26  C   UNL     1      40.592 -16.114   4.099  1.00  0.00     0.032 A 
HETATM   27  N   UNL     1      40.165 -14.279   5.773  1.00  0.00    -0.277 N 
HETATM   28  H   UNL     1      39.354 -14.623   6.275  1.00  0.00     0.189 HD
HETATM   29  N   UNL     1      40.684 -13.092   6.135  1.00  0.00    -0.168 NA
ENDBRANCH   1  19
TORSDOF 3
ENDMDL
MODEL 10
REMARK VINA RESULT:      -8.2      6.451      9.264
REMARK  3 active torsions:
REMARK  status: ('A' for Active; 'I' for Inactive)
REMARK    1  A    between atoms: C_9  and  C_10 
REMARK       I    between atoms: C_10  and  N_11 
REMARK    2  A    between atoms: N_11  and  C_12 
REMARK    3  A    between atoms: C_12  and  C_13 
ROOT
HETATM    1  C   UNL     1      44.218 -10.463   9.042  1.00  0.00     0.273 C 
HETATM    2  N   UNL     1      43.196 -10.798   8.181  1.00  0.00    -0.347 N 
HETATM    3  O   UNL     1      45.346 -10.155   8.669  1.00  0.00    -0.266 OA
HETATM    4  H   UNL     1      42.346 -11.126   8.629  1.00  0.00     0.163 HD
ENDROOT
BRANCH   2   5
HETATM    5  C   UNL     1      43.360 -10.872   6.747  1.00  0.00     0.114 C 
HETATM    6  C   UNL     1      42.335  -9.975   6.049  1.00  0.00     0.037 C 
BRANCH   5   7
HETATM    7  C   UNL     1      43.281 -12.308   6.261  1.00  0.00    -0.034 A 
HETATM    8  C   UNL     1      42.723 -12.585   5.002  1.00  0.00     0.041 A 
HETATM    9  C   UNL     1      42.602 -13.903   4.555  1.00  0.00     0.069 A 
HETATM   10  C   UNL     1      43.050 -14.960   5.346  1.00  0.00     0.096 A 
HETATM   11  N   UNL     1      42.046 -14.152   3.301  1.00  0.00    -0.323 N 
HETATM   12  O   UNL     1      42.994 -16.272   4.966  1.00  0.00    -0.340 OA
HETATM   13  C   UNL     1      43.641 -14.696   6.580  1.00  0.00     0.040 A 
HETATM   14  C   UNL     1      42.139 -16.530   3.862  1.00  0.00     0.278 C 
HETATM   15  C   UNL     1      41.831 -15.424   2.853  1.00  0.00     0.246 C 
HETATM   16  O   UNL     1      41.358 -15.643   1.740  1.00  0.00    -0.271 OA
HETATM   17  C   UNL     1      43.753 -13.380   7.037  1.00  0.00     0.012 A 
HETATM   18  H   UNL     1      41.793 -13.394   2.680  1.00  0.00     0.169 HD
ENDBRANCH   5   7
ENDBRANCH   2   5
BRANCH   1  19
HETATM   19  C   UNL     1      43.803 -10.489  10.455  1.00  0.00     0.157 A 
HETATM   20  C   UNL     1      43.285  -9.409  11.229  1.00  0.00     0.029 A 
HETATM   21  C   UNL     1      43.011  -8.043  11.013  1.00  0.00     0.023 A 
HETATM   22  C   UNL     1      43.011  -9.957  12.476  1.00  0.00     0.063 A 
HETATM   23  C   UNL     1      42.474  -7.271  12.058  1.00  0.00    -0.061 A 
HETATM   24  C   UNL     1      42.173  -5.815  11.851  1.00  0.00     0.048 C 
HETATM   25  C   UNL     1      42.204  -7.867  13.296  1.00  0.00     0.009 A 
HETATM   26  C   UNL     1      42.467  -9.222  13.532  1.00  0.00     0.032 A 
HETATM   27  N   UNL     1      43.380 -11.270  12.382  1.00  0.00    -0.277 N 
HETATM   28  H   UNL     1      43.318 -11.976  13.107  1.00  0.00     0.189 HD
HETATM   29  N   UNL     1      43.868 -11.629  11.181  1.00  0.00    -0.168 NA
ENDBRANCH   1  19
TORSDOF 3
ENDMDL
