MODEL 1
REMARK VINA RESULT:      -7.5      0.000      0.000
REMARK  7 active torsions:
REMARK  status: ('A' for Active; 'I' for Inactive)
REMARK    1  A    between atoms: O_2  and  C_3 
REMARK    2  A    between atoms: C_4  and  O_5 
REMARK    3  A    between atoms: C_6  and  C_7 
REMARK    4  A    between atoms: C_7  and  N_8 
REMARK    5  A    between atoms: C_11  and  C_12 
REMARK    6  A    between atoms: C_12  and  N_13 
REMARK    7  A    between atoms: N_13  and  C_14 
ROOT
HETATM    1  N   UNL     1      40.681 -14.390   2.590  1.00  0.00    -0.067 N 
HETATM    2  H   UNL     1      39.894 -13.712   2.634  1.00  0.00     0.280 HD
HETATM    3  C   UNL     1      41.653 -14.013   3.679  1.00  0.00     0.241 C 
HETATM    4  C   UNL     1      42.060 -15.335   4.326  1.00  0.00     0.026 C 
HETATM    5  C   UNL     1      40.764 -16.139   4.236  1.00  0.00     0.035 C 
HETATM    6  C   UNL     1      40.143 -15.765   2.896  1.00  0.00     0.235 C 
ENDROOT
BRANCH   1   7
HETATM    7  C   UNL     1      41.163 -14.234   1.167  1.00  0.00     0.276 C 
BRANCH   7   8
HETATM    8  C   UNL     1      40.137 -13.661   0.237  1.00  0.00     0.005 A 
HETATM    9  C   UNL     1      39.528 -12.435   0.514  1.00  0.00     0.107 A 
HETATM   10  C   UNL     1      38.521 -11.902  -0.302  1.00  0.00     0.103 A 
HETATM   11  C   UNL     1      38.150 -12.590  -1.455  1.00  0.00     0.058 A 
HETATM   12  C   UNL     1      38.767 -13.804  -1.758  1.00  0.00     0.014 A 
HETATM   13  C   UNL     1      39.742 -14.349  -0.918  1.00  0.00     0.030 A 
HETATM   14 BR   UNL     1      38.288 -14.734  -3.333  1.00  0.00    -0.051 Br
BRANCH   9  15
HETATM   15  O   UNL     1      39.949 -11.736   1.619  1.00  0.00    -0.357 OA
HETATM   16  H   UNL     1      39.132 -11.609   2.157  1.00  0.00     0.218 HD
ENDBRANCH   9  15
BRANCH  10  17
HETATM   17  O   UNL     1      38.003 -10.711   0.130  1.00  0.00    -0.353 OA
HETATM   18  C   UNL     1      36.771 -10.782   0.848  1.00  0.00     0.210 C 
ENDBRANCH  10  17
ENDBRANCH   7   8
ENDBRANCH   1   7
BRANCH   4  19
HETATM   19  C   UNL     1      43.264 -15.974   3.609  1.00  0.00     0.100 C 
BRANCH  19  20
HETATM   20  N   UNL     1      43.935 -16.950   4.491  1.00  0.00    -0.279 NA
HETATM   21  H   UNL     1      43.458 -16.944   5.401  1.00  0.00     0.129 HD
BRANCH  20  22
HETATM   22  C   UNL     1      43.874 -18.263   4.010  1.00  0.00     0.079 A 
HETATM   23  N   UNL     1      44.170 -19.240   4.880  1.00  0.00    -0.357 N 
HETATM   24  H   UNL     1      44.413 -18.947   5.825  1.00  0.00     0.166 HD
HETATM   25  C   UNL     1      44.151 -20.542   4.565  1.00  0.00     0.089 A 
HETATM   26  C   UNL     1      43.811 -20.934   3.277  1.00  0.00     0.017 A 
HETATM   27  C   UNL     1      43.482 -19.958   2.342  1.00  0.00     0.005 A 
HETATM   28  C   UNL     1      43.503 -18.614   2.711  1.00  0.00     0.042 A 
ENDBRANCH  20  22
ENDBRANCH  19  20
ENDBRANCH   4  19
TORSDOF 7
ENDMDL
MODEL 2
REMARK VINA RESULT:      -7.3      2.003      2.380
REMARK  7 active torsions:
REMARK  status: ('A' for Active; 'I' for Inactive)
REMARK    1  A    between atoms: O_2  and  C_3 
REMARK    2  A    between atoms: C_4  and  O_5 
REMARK    3  A    between atoms: C_6  and  C_7 
REMARK    4  A    between atoms: C_7  and  N_8 
REMARK    5  A    between atoms: C_11  and  C_12 
REMARK    6  A    between atoms: C_12  and  N_13 
REMARK    7  A    between atoms: N_13  and  C_14 
ROOT
HETATM    1  N   UNL     1      40.707 -14.465   2.150  1.00  0.00    -0.067 N 
HETATM    2  H   UNL     1      39.906 -13.807   2.077  1.00  0.00     0.280 HD
HETATM    3  C   UNL     1      41.572 -13.985   3.289  1.00  0.00     0.241 C 
HETATM    4  C   UNL     1      41.948 -15.246   4.063  1.00  0.00     0.026 C 
HETATM    5  C   UNL     1      40.682 -16.090   3.920  1.00  0.00     0.035 C 
HETATM    6  C   UNL     1      40.174 -15.829   2.509  1.00  0.00     0.235 C 
ENDROOT
BRANCH   1   7
HETATM    7  C   UNL     1      41.309 -14.397   0.767  1.00  0.00     0.276 C 
BRANCH   7   8
HETATM    8  C   UNL     1      40.532 -13.549  -0.194  1.00  0.00     0.005 A 
HETATM    9  C   UNL     1      39.466 -14.087  -0.918  1.00  0.00     0.107 A 
HETATM   10  C   UNL     1      38.759 -13.339  -1.870  1.00  0.00     0.103 A 
HETATM   11  C   UNL     1      39.096 -12.002  -2.066  1.00  0.00     0.058 A 
HETATM   12  C   UNL     1      40.143 -11.444  -1.332  1.00  0.00     0.014 A 
HETATM   13  C   UNL     1      40.869 -12.207  -0.413  1.00  0.00     0.030 A 
HETATM   14 BR   UNL     1      40.593  -9.623  -1.572  1.00  0.00    -0.051 Br
BRANCH   9  15
HETATM   15  O   UNL     1      39.103 -15.388  -0.669  1.00  0.00    -0.357 OA
HETATM   16  H   UNL     1      38.118 -15.365  -0.618  1.00  0.00     0.218 HD
ENDBRANCH   9  15
BRANCH  10  17
HETATM   17  O   UNL     1      37.767 -14.026  -2.517  1.00  0.00    -0.353 OA
HETATM   18  C   UNL     1      38.138 -14.668  -3.737  1.00  0.00     0.210 C 
ENDBRANCH  10  17
ENDBRANCH   7   8
ENDBRANCH   1   7
BRANCH   4  19
HETATM   19  C   UNL     1      43.224 -15.901   3.502  1.00  0.00     0.100 C 
BRANCH  19  20
HETATM   20  N   UNL     1      43.776 -16.873   4.466  1.00  0.00    -0.279 NA
HETATM   21  H   UNL     1      43.189 -16.860   5.309  1.00  0.00     0.129 HD
BRANCH  20  22
HETATM   22  C   UNL     1      43.773 -18.189   3.989  1.00  0.00     0.079 A 
HETATM   23  N   UNL     1      44.073 -19.153   4.872  1.00  0.00    -0.357 N 
HETATM   24  H   UNL     1      44.278 -18.849   5.822  1.00  0.00     0.166 HD
HETATM   25  C   UNL     1      44.107 -20.456   4.562  1.00  0.00     0.089 A 
HETATM   26  C   UNL     1      43.819 -20.863   3.266  1.00  0.00     0.017 A 
HETATM   27  C   UNL     1      43.487 -19.902   2.317  1.00  0.00     0.005 A 
HETATM   28  C   UNL     1      43.453 -18.556   2.681  1.00  0.00     0.042 A 
ENDBRANCH  20  22
ENDBRANCH  19  20
ENDBRANCH   4  19
TORSDOF 7
ENDMDL
MODEL 3
REMARK VINA RESULT:      -7.2      6.540      9.575
REMARK  7 active torsions:
REMARK  status: ('A' for Active; 'I' for Inactive)
REMARK    1  A    between atoms: O_2  and  C_3 
REMARK    2  A    between atoms: C_4  and  O_5 
REMARK    3  A    between atoms: C_6  and  C_7 
REMARK    4  A    between atoms: C_7  and  N_8 
REMARK    5  A    between atoms: C_11  and  C_12 
REMARK    6  A    between atoms: C_12  and  N_13 
REMARK    7  A    between atoms: N_13  and  C_14 
ROOT
HETATM    1  N   UNL     1      43.678 -12.751   6.147  1.00  0.00    -0.067 N 
HETATM    2  H   UNL     1      43.941 -13.098   5.204  1.00  0.00     0.280 HD
HETATM    3  C   UNL     1      44.842 -11.943   6.663  1.00  0.00     0.241 C 
HETATM    4  C   UNL     1      44.218 -10.698   7.290  1.00  0.00     0.026 C 
HETATM    5  C   UNL     1      43.026 -10.449   6.367  1.00  0.00     0.035 C 
HETATM    6  C   UNL     1      42.494 -11.829   6.004  1.00  0.00     0.235 C 
ENDROOT
BRANCH   1   7
HETATM    7  C   UNL     1      43.361 -14.029   6.885  1.00  0.00     0.276 C 
BRANCH   7   8
HETATM    8  C   UNL     1      43.306 -15.242   6.006  1.00  0.00     0.005 A 
HETATM    9  C   UNL     1      43.320 -16.525   6.559  1.00  0.00     0.107 A 
HETATM   10  C   UNL     1      43.333 -17.679   5.763  1.00  0.00     0.103 A 
HETATM   11  C   UNL     1      43.279 -17.546   4.378  1.00  0.00     0.058 A 
HETATM   12  C   UNL     1      43.240 -16.270   3.812  1.00  0.00     0.014 A 
HETATM   13  C   UNL     1      43.268 -15.125   4.611  1.00  0.00     0.030 A 
HETATM   14 BR   UNL     1      43.142 -16.079   1.933  1.00  0.00    -0.051 Br
BRANCH   9  15
HETATM   15  O   UNL     1      43.309 -16.642   7.927  1.00  0.00    -0.357 OA
HETATM   16  H   UNL     1      42.945 -17.543   8.095  1.00  0.00     0.218 HD
ENDBRANCH   9  15
BRANCH  10  17
HETATM   17  O   UNL     1      43.384 -18.856   6.460  1.00  0.00    -0.353 OA
HETATM   18  C   UNL     1      43.842 -19.998   5.737  1.00  0.00     0.210 C 
ENDBRANCH  10  17
ENDBRANCH   7   8
ENDBRANCH   1   7
BRANCH   4  19
HETATM   19  C   UNL     1      43.850 -10.928   8.768  1.00  0.00     0.100 C 
BRANCH  19  20
HETATM   20  N   UNL     1      42.682 -10.107   9.145  1.00  0.00    -0.279 NA
HETATM   21  H   UNL     1      41.837 -10.682   9.043  1.00  0.00     0.129 HD
BRANCH  20  22
HETATM   22  C   UNL     1      42.719  -9.671  10.475  1.00  0.00     0.079 A 
HETATM   23  N   UNL     1      41.865 -10.258  11.327  1.00  0.00    -0.357 N 
HETATM   24  H   UNL     1      41.258 -10.977  10.937  1.00  0.00     0.166 HD
HETATM   25  C   UNL     1      41.787  -9.948  12.628  1.00  0.00     0.089 A 
HETATM   26  C   UNL     1      42.623  -8.973  13.154  1.00  0.00     0.017 A 
HETATM   27  C   UNL     1      43.537  -8.345  12.314  1.00  0.00     0.005 A 
HETATM   28  C   UNL     1      43.594  -8.703  10.967  1.00  0.00     0.042 A 
ENDBRANCH  20  22
ENDBRANCH  19  20
ENDBRANCH   4  19
TORSDOF 7
ENDMDL
MODEL 4
REMARK VINA RESULT:      -7.2      3.507      7.837
REMARK  7 active torsions:
REMARK  status: ('A' for Active; 'I' for Inactive)
REMARK    1  A    between atoms: O_2  and  C_3 
REMARK    2  A    between atoms: C_4  and  O_5 
REMARK    3  A    between atoms: C_6  and  C_7 
REMARK    4  A    between atoms: C_7  and  N_8 
REMARK    5  A    between atoms: C_11  and  C_12 
REMARK    6  A    between atoms: C_12  and  N_13 
REMARK    7  A    between atoms: N_13  and  C_14 
ROOT
HETATM    1  N   UNL     1      41.334 -14.395   2.876  1.00  0.00    -0.067 N 
HETATM    2  H   UNL     1      41.155 -15.011   3.695  1.00  0.00     0.280 HD
HETATM    3  C   UNL     1      40.130 -14.498   1.973  1.00  0.00     0.241 C 
HETATM    4  C   UNL     1      39.836 -13.065   1.536  1.00  0.00     0.026 C 
HETATM    5  C   UNL     1      40.210 -12.273   2.788  1.00  0.00     0.035 C 
HETATM    6  C   UNL     1      41.435 -12.972   3.363  1.00  0.00     0.235 C 
ENDROOT
BRANCH   1   7
HETATM    7  C   UNL     1      42.633 -14.943   2.337  1.00  0.00     0.276 C 
BRANCH   7   8
HETATM    8  C   UNL     1      43.070 -16.222   2.984  1.00  0.00     0.005 A 
HETATM    9  C   UNL     1      43.485 -16.241   4.317  1.00  0.00     0.107 A 
HETATM   10  C   UNL     1      43.958 -17.408   4.934  1.00  0.00     0.103 A 
HETATM   11  C   UNL     1      43.969 -18.599   4.210  1.00  0.00     0.058 A 
HETATM   12  C   UNL     1      43.534 -18.599   2.884  1.00  0.00     0.014 A 
HETATM   13  C   UNL     1      43.101 -17.424   2.265  1.00  0.00     0.030 A 
HETATM   14 BR   UNL     1      43.520 -20.215   1.901  1.00  0.00    -0.051 Br
BRANCH   9  15
HETATM   15  O   UNL     1      43.410 -15.075   5.038  1.00  0.00    -0.357 OA
HETATM   16  H   UNL     1      44.023 -15.213   5.798  1.00  0.00     0.218 HD
ENDBRANCH   9  15
BRANCH  10  17
HETATM   17  O   UNL     1      44.360 -17.249   6.232  1.00  0.00    -0.353 OA
HETATM   18  C   UNL     1      43.470 -17.743   7.233  1.00  0.00     0.210 C 
ENDBRANCH  10  17
ENDBRANCH   7   8
ENDBRANCH   1   7
BRANCH   4  19
HETATM   19  C   UNL     1      40.628 -12.681   0.272  1.00  0.00     0.100 C 
BRANCH  19  20
HETATM   20  N   UNL     1      40.658 -13.806  -0.683  1.00  0.00    -0.279 NA
HETATM   21  H   UNL     1      40.638 -14.683  -0.149  1.00  0.00     0.129 HD
BRANCH  20  22
HETATM   22  C   UNL     1      39.554 -13.830  -1.544  1.00  0.00     0.079 A 
HETATM   23  N   UNL     1      38.696 -12.804  -1.455  1.00  0.00    -0.357 N 
HETATM   24  H   UNL     1      38.918 -12.086  -0.768  1.00  0.00     0.166 HD
HETATM   25  C   UNL     1      37.598 -12.689  -2.216  1.00  0.00     0.089 A 
HETATM   26  C   UNL     1      37.307 -13.668  -3.156  1.00  0.00     0.017 A 
HETATM   27  C   UNL     1      38.176 -14.746  -3.297  1.00  0.00     0.005 A 
HETATM   28  C   UNL     1      39.313 -14.824  -2.493  1.00  0.00     0.042 A 
ENDBRANCH  20  22
ENDBRANCH  19  20
ENDBRANCH   4  19
TORSDOF 7
ENDMDL
MODEL 5
REMARK VINA RESULT:      -7.2      2.571      3.544
REMARK  7 active torsions:
REMARK  status: ('A' for Active; 'I' for Inactive)
REMARK    1  A    between atoms: O_2  and  C_3 
REMARK    2  A    between atoms: C_4  and  O_5 
REMARK    3  A    between atoms: C_6  and  C_7 
REMARK    4  A    between atoms: C_7  and  N_8 
REMARK    5  A    between atoms: C_11  and  C_12 
REMARK    6  A    between atoms: C_12  and  N_13 
REMARK    7  A    between atoms: N_13  and  C_14 
ROOT
HETATM    1  N   UNL     1      41.839 -15.009   5.604  1.00  0.00    -0.067 N 
HETATM    2  H   UNL     1      41.526 -14.025   5.488  1.00  0.00     0.280 HD
HETATM    3  C   UNL     1      43.347 -14.999   5.600  1.00  0.00     0.241 C 
HETATM    4  C   UNL     1      43.756 -15.943   6.729  1.00  0.00     0.026 C 
HETATM    5  C   UNL     1      42.655 -15.693   7.759  1.00  0.00     0.035 C 
HETATM    6  C   UNL     1      41.377 -15.501   6.953  1.00  0.00     0.235 C 
ENDROOT
BRANCH   1   7
HETATM    7  C   UNL     1      41.163 -15.702   4.446  1.00  0.00     0.276 C 
BRANCH   7   8
HETATM    8  C   UNL     1      40.598 -14.765   3.422  1.00  0.00     0.005 A 
HETATM    9  C   UNL     1      40.512 -15.143   2.080  1.00  0.00     0.107 A 
HETATM   10  C   UNL     1      40.047 -14.268   1.088  1.00  0.00     0.103 A 
HETATM   11  C   UNL     1      39.609 -12.998   1.457  1.00  0.00     0.058 A 
HETATM   12  C   UNL     1      39.666 -12.616   2.798  1.00  0.00     0.014 A 
HETATM   13  C   UNL     1      40.168 -13.480   3.775  1.00  0.00     0.030 A 
HETATM   14 BR   UNL     1      39.051 -10.903   3.314  1.00  0.00    -0.051 Br
BRANCH   9  15
HETATM   15  O   UNL     1      40.887 -16.419   1.739  1.00  0.00    -0.357 OA
HETATM   16  H   UNL     1      40.380 -16.614   0.916  1.00  0.00     0.218 HD
ENDBRANCH   9  15
BRANCH  10  17
HETATM   17  O   UNL     1      40.060 -14.780  -0.181  1.00  0.00    -0.353 OA
HETATM   18  C   UNL     1      39.379 -14.017  -1.177  1.00  0.00     0.210 C 
ENDBRANCH  10  17
ENDBRANCH   7   8
ENDBRANCH   1   7
BRANCH   4  19
HETATM   19  C   UNL     1      43.863 -17.400   6.243  1.00  0.00     0.100 C 
BRANCH  19  20
HETATM   20  N   UNL     1      44.662 -17.477   5.004  1.00  0.00    -0.279 NA
HETATM   21  H   UNL     1      45.627 -17.724   5.256  1.00  0.00     0.129 HD
BRANCH  20  22
HETATM   22  C   UNL     1      44.211 -18.459   4.114  1.00  0.00     0.079 A 
HETATM   23  N   UNL     1      44.308 -19.733   4.521  1.00  0.00    -0.357 N 
HETATM   24  H   UNL     1      44.701 -19.884   5.448  1.00  0.00     0.166 HD
HETATM   25  C   UNL     1      43.914 -20.778   3.781  1.00  0.00     0.089 A 
HETATM   26  C   UNL     1      43.371 -20.564   2.521  1.00  0.00     0.017 A 
HETATM   27  C   UNL     1      43.236 -19.258   2.060  1.00  0.00     0.005 A 
HETATM   28  C   UNL     1      43.648 -18.197   2.865  1.00  0.00     0.042 A 
ENDBRANCH  20  22
ENDBRANCH  19  20
ENDBRANCH   4  19
TORSDOF 7
ENDMDL
MODEL 6
REMARK VINA RESULT:      -7.0      5.566      6.727
REMARK  7 active torsions:
REMARK  status: ('A' for Active; 'I' for Inactive)
REMARK    1  A    between atoms: O_2  and  C_3 
REMARK    2  A    between atoms: C_4  and  O_5 
REMARK    3  A    between atoms: C_6  and  C_7 
REMARK    4  A    between atoms: C_7  and  N_8 
REMARK    5  A    between atoms: C_11  and  C_12 
REMARK    6  A    between atoms: C_12  and  N_13 
REMARK    7  A    between atoms: N_13  and  C_14 
ROOT
HETATM    1  N   UNL     1      41.882 -13.847   6.756  1.00  0.00    -0.067 N 
HETATM    2  H   UNL     1      41.562 -13.294   7.575  1.00  0.00     0.280 HD
HETATM    3  C   UNL     1      42.826 -14.903   7.275  1.00  0.00     0.241 C 
HETATM    4  C   UNL     1      42.437 -16.183   6.539  1.00  0.00     0.026 C 
HETATM    5  C   UNL     1      40.922 -16.024   6.414  1.00  0.00     0.035 C 
HETATM    6  C   UNL     1      40.687 -14.542   6.154  1.00  0.00     0.235 C 
ENDROOT
BRANCH   1   7
HETATM    7  C   UNL     1      42.477 -12.787   5.861  1.00  0.00     0.276 C 
BRANCH   7   8
HETATM    8  C   UNL     1      42.624 -11.448   6.519  1.00  0.00     0.005 A 
HETATM    9  C   UNL     1      43.716 -11.176   7.346  1.00  0.00     0.107 A 
HETATM   10  C   UNL     1      43.851  -9.956   8.025  1.00  0.00     0.103 A 
HETATM   11  C   UNL     1      42.892  -8.965   7.831  1.00  0.00     0.058 A 
HETATM   12  C   UNL     1      41.807  -9.215   6.989  1.00  0.00     0.014 A 
HETATM   13  C   UNL     1      41.660 -10.447   6.347  1.00  0.00     0.030 A 
HETATM   14 BR   UNL     1      40.513  -7.866   6.700  1.00  0.00    -0.051 Br
BRANCH   9  15
HETATM   15  O   UNL     1      44.687 -12.138   7.477  1.00  0.00    -0.357 OA
HETATM   16  H   UNL     1      45.536 -11.638   7.450  1.00  0.00     0.218 HD
ENDBRANCH   9  15
BRANCH  10  17
HETATM   17  O   UNL     1      44.959  -9.863   8.823  1.00  0.00    -0.353 OA
HETATM   18  C   UNL     1      46.011  -9.025   8.346  1.00  0.00     0.210 C 
ENDBRANCH  10  17
ENDBRANCH   7   8
ENDBRANCH   1   7
BRANCH   4  19
HETATM   19  C   UNL     1      43.181 -16.318   5.197  1.00  0.00     0.100 C 
BRANCH  19  20
HETATM   20  N   UNL     1      44.162 -17.420   5.256  1.00  0.00    -0.279 NA
HETATM   21  H   UNL     1      44.089 -17.867   6.178  1.00  0.00     0.129 HD
BRANCH  20  22
HETATM   22  C   UNL     1      43.931 -18.418   4.302  1.00  0.00     0.079 A 
HETATM   23  N   UNL     1      44.155 -19.683   4.684  1.00  0.00    -0.357 N 
HETATM   24  H   UNL     1      44.474 -19.817   5.642  1.00  0.00     0.166 HD
HETATM   25  C   UNL     1      43.975 -20.742   3.883  1.00  0.00     0.089 A 
HETATM   26  C   UNL     1      43.533 -20.552   2.580  1.00  0.00     0.017 A 
HETATM   27  C   UNL     1      43.272 -19.258   2.141  1.00  0.00     0.005 A 
HETATM   28  C   UNL     1      43.462 -18.183   3.009  1.00  0.00     0.042 A 
ENDBRANCH  20  22
ENDBRANCH  19  20
ENDBRANCH   4  19
TORSDOF 7
ENDMDL
MODEL 7
REMARK VINA RESULT:      -7.0      4.729      7.727
REMARK  7 active torsions:
REMARK  status: ('A' for Active; 'I' for Inactive)
REMARK    1  A    between atoms: O_2  and  C_3 
REMARK    2  A    between atoms: C_4  and  O_5 
REMARK    3  A    between atoms: C_6  and  C_7 
REMARK    4  A    between atoms: C_7  and  N_8 
REMARK    5  A    between atoms: C_11  and  C_12 
REMARK    6  A    between atoms: C_12  and  N_13 
REMARK    7  A    between atoms: N_13  and  C_14 
ROOT
HETATM    1  N   UNL     1      42.004 -13.254   2.506  1.00  0.00    -0.067 N 
HETATM    2  H   UNL     1      42.222 -13.854   1.686  1.00  0.00     0.280 HD
HETATM    3  C   UNL     1      43.307 -12.664   2.983  1.00  0.00     0.241 C 
HETATM    4  C   UNL     1      42.998 -11.198   3.277  1.00  0.00     0.026 C 
HETATM    5  C   UNL     1      41.973 -10.872   2.192  1.00  0.00     0.035 C 
HETATM    6  C   UNL     1      41.117 -12.124   2.048  1.00  0.00     0.235 C 
ENDROOT
BRANCH   1   7
HETATM    7  C   UNL     1      41.316 -14.221   3.439  1.00  0.00     0.276 C 
BRANCH   7   8
HETATM    8  C   UNL     1      42.169 -15.382   3.850  1.00  0.00     0.005 A 
HETATM    9  C   UNL     1      42.597 -16.321   2.909  1.00  0.00     0.107 A 
HETATM   10  C   UNL     1      43.343 -17.452   3.269  1.00  0.00     0.103 A 
HETATM   11  C   UNL     1      43.714 -17.621   4.602  1.00  0.00     0.058 A 
HETATM   12  C   UNL     1      43.314 -16.678   5.550  1.00  0.00     0.014 A 
HETATM   13  C   UNL     1      42.537 -15.574   5.188  1.00  0.00     0.030 A 
HETATM   14 BR   UNL     1      43.833 -16.884   7.356  1.00  0.00    -0.051 Br
BRANCH   9  15
HETATM   15  O   UNL     1      42.279 -16.109   1.589  1.00  0.00    -0.357 OA
HETATM   16  H   UNL     1      42.974 -15.490   1.264  1.00  0.00     0.218 HD
ENDBRANCH   9  15
BRANCH  10  17
HETATM   17  O   UNL     1      43.651 -18.291   2.233  1.00  0.00    -0.353 OA
HETATM   18  C   UNL     1      43.324 -19.668   2.418  1.00  0.00     0.210 C 
ENDBRANCH  10  17
ENDBRANCH   7   8
ENDBRANCH   1   7
BRANCH   4  19
HETATM   19  C   UNL     1      42.495 -10.999   4.718  1.00  0.00     0.100 C 
BRANCH  19  20
HETATM   20  N   UNL     1      43.062 -12.028   5.612  1.00  0.00    -0.279 NA
HETATM   21  H   UNL     1      43.599 -12.691   5.041  1.00  0.00     0.129 HD
BRANCH  20  22
HETATM   22  C   UNL     1      43.944 -11.507   6.567  1.00  0.00     0.079 A 
HETATM   23  N   UNL     1      43.417 -11.162   7.751  1.00  0.00    -0.357 N 
HETATM   24  H   UNL     1      42.416 -11.310   7.862  1.00  0.00     0.166 HD
HETATM   25  C   UNL     1      44.136 -10.654   8.761  1.00  0.00     0.089 A 
HETATM   26  C   UNL     1      45.503 -10.462   8.605  1.00  0.00     0.017 A 
HETATM   27  C   UNL     1      46.098 -10.818   7.399  1.00  0.00     0.005 A 
HETATM   28  C   UNL     1      45.317 -11.354   6.375  1.00  0.00     0.042 A 
ENDBRANCH  20  22
ENDBRANCH  19  20
ENDBRANCH   4  19
TORSDOF 7
ENDMDL
MODEL 8
REMARK VINA RESULT:      -6.9      5.447      6.663
REMARK  7 active torsions:
REMARK  status: ('A' for Active; 'I' for Inactive)
REMARK    1  A    between atoms: O_2  and  C_3 
REMARK    2  A    between atoms: C_4  and  O_5 
REMARK    3  A    between atoms: C_6  and  C_7 
REMARK    4  A    between atoms: C_7  and  N_8 
REMARK    5  A    between atoms: C_11  and  C_12 
REMARK    6  A    between atoms: C_12  and  N_13 
REMARK    7  A    between atoms: N_13  and  C_14 
ROOT
HETATM    1  N   UNL     1      42.351 -14.002   6.644  1.00  0.00    -0.067 N 
HETATM    2  H   UNL     1      41.741 -13.418   7.250  1.00  0.00     0.280 HD
HETATM    3  C   UNL     1      42.780 -15.193   7.463  1.00  0.00     0.241 C 
HETATM    4  C   UNL     1      42.649 -16.390   6.525  1.00  0.00     0.026 C 
HETATM    5  C   UNL     1      41.425 -16.006   5.696  1.00  0.00     0.035 C 
HETATM    6  C   UNL     1      41.532 -14.502   5.482  1.00  0.00     0.235 C 
ENDROOT
BRANCH   1   7
HETATM    7  C   UNL     1      43.435 -13.029   6.244  1.00  0.00     0.276 C 
BRANCH   7   8
HETATM    8  C   UNL     1      43.355 -11.707   6.945  1.00  0.00     0.005 A 
HETATM    9  C   UNL     1      42.436 -10.738   6.536  1.00  0.00     0.107 A 
HETATM   10  C   UNL     1      42.378  -9.469   7.129  1.00  0.00     0.103 A 
HETATM   11  C   UNL     1      43.228  -9.180   8.194  1.00  0.00     0.058 A 
HETATM   12  C   UNL     1      44.135 -10.148   8.630  1.00  0.00     0.014 A 
HETATM   13  C   UNL     1      44.214 -11.396   8.007  1.00  0.00     0.030 A 
HETATM   14 BR   UNL     1      45.276  -9.775  10.091  1.00  0.00    -0.051 Br
BRANCH   9  15
HETATM   15  O   UNL     1      41.560 -11.057   5.528  1.00  0.00    -0.357 OA
HETATM   16  H   UNL     1      40.970 -10.271   5.455  1.00  0.00     0.218 HD
ENDBRANCH   9  15
BRANCH  10  17
HETATM   17  O   UNL     1      41.447  -8.624   6.587  1.00  0.00    -0.353 OA
HETATM   18  C   UNL     1      41.795  -7.240   6.554  1.00  0.00     0.210 C 
ENDBRANCH  10  17
ENDBRANCH   7   8
ENDBRANCH   1   7
BRANCH   4  19
HETATM   19  C   UNL     1      43.934 -16.616   5.706  1.00  0.00     0.100 C 
BRANCH  19  20
HETATM   20  N   UNL     1      43.609 -16.862   4.287  1.00  0.00    -0.279 NA
HETATM   21  H   UNL     1      44.288 -16.355   3.707  1.00  0.00     0.129 HD
BRANCH  20  22
HETATM   22  C   UNL     1      43.695 -18.213   3.926  1.00  0.00     0.079 A 
HETATM   23  N   UNL     1      44.025 -19.077   4.897  1.00  0.00    -0.357 N 
HETATM   24  H   UNL     1      44.185 -18.681   5.821  1.00  0.00     0.166 HD
HETATM   25  C   UNL     1      44.143 -20.398   4.703  1.00  0.00     0.089 A 
HETATM   26  C   UNL     1      43.915 -20.931   3.441  1.00  0.00     0.017 A 
HETATM   27  C   UNL     1      43.555 -20.076   2.404  1.00  0.00     0.005 A 
HETATM   28  C   UNL     1      43.434 -18.709   2.649  1.00  0.00     0.042 A 
ENDBRANCH  20  22
ENDBRANCH  19  20
ENDBRANCH   4  19
TORSDOF 7
ENDMDL
MODEL 9
REMARK VINA RESULT:      -6.8      2.604      3.234
REMARK  7 active torsions:
REMARK  status: ('A' for Active; 'I' for Inactive)
REMARK    1  A    between atoms: O_2  and  C_3 
REMARK    2  A    between atoms: C_4  and  O_5 
REMARK    3  A    between atoms: C_6  and  C_7 
REMARK    4  A    between atoms: C_7  and  N_8 
REMARK    5  A    between atoms: C_11  and  C_12 
REMARK    6  A    between atoms: C_12  and  N_13 
REMARK    7  A    between atoms: N_13  and  C_14 
ROOT
HETATM    1  N   UNL     1      40.503 -14.802   4.308  1.00  0.00    -0.067 N 
HETATM    2  H   UNL     1      39.652 -14.500   3.792  1.00  0.00     0.280 HD
HETATM    3  C   UNL     1      40.605 -13.935   5.538  1.00  0.00     0.241 C 
HETATM    4  C   UNL     1      40.976 -14.891   6.670  1.00  0.00     0.026 C 
HETATM    5  C   UNL     1      40.216 -16.155   6.273  1.00  0.00     0.035 C 
HETATM    6  C   UNL     1      40.309 -16.229   4.755  1.00  0.00     0.235 C 
ENDROOT
BRANCH   1   7
HETATM    7  C   UNL     1      41.587 -14.636   3.271  1.00  0.00     0.276 C 
BRANCH   7   8
HETATM    8  C   UNL     1      41.124 -13.978   2.006  1.00  0.00     0.005 A 
HETATM    9  C   UNL     1      40.400 -14.697   1.052  1.00  0.00     0.107 A 
HETATM   10  C   UNL     1      40.006 -14.129  -0.168  1.00  0.00     0.103 A 
HETATM   11  C   UNL     1      40.302 -12.791  -0.418  1.00  0.00     0.058 A 
HETATM   12  C   UNL     1      41.003 -12.053   0.537  1.00  0.00     0.014 A 
HETATM   13  C   UNL     1      41.427 -12.638   1.733  1.00  0.00     0.030 A 
HETATM   14 BR   UNL     1      41.388 -10.229   0.218  1.00  0.00    -0.051 Br
BRANCH   9  15
HETATM   15  O   UNL     1      40.060 -15.996   1.338  1.00  0.00    -0.357 OA
HETATM   16  H   UNL     1      39.861 -16.399   0.460  1.00  0.00     0.218 HD
ENDBRANCH   9  15
BRANCH  10  17
HETATM   17  O   UNL     1      39.337 -14.978  -1.006  1.00  0.00    -0.353 OA
HETATM   18  C   UNL     1      38.894 -14.423  -2.245  1.00  0.00     0.210 C 
ENDBRANCH  10  17
ENDBRANCH   7   8
ENDBRANCH   1   7
BRANCH   4  19
HETATM   19  C   UNL     1      42.501 -15.068   6.789  1.00  0.00     0.100 C 
BRANCH  19  20
HETATM   20  N   UNL     1      42.823 -16.328   7.488  1.00  0.00    -0.279 NA
HETATM   21  H   UNL     1      41.964 -16.685   7.923  1.00  0.00     0.129 HD
BRANCH  20  22
HETATM   22  C   UNL     1      43.291 -17.332   6.631  1.00  0.00     0.079 A 
HETATM   23  N   UNL     1      43.148 -18.598   7.049  1.00  0.00    -0.357 N 
HETATM   24  H   UNL     1      42.707 -18.728   7.958  1.00  0.00     0.166 HD
HETATM   25  C   UNL     1      43.545 -19.662   6.337  1.00  0.00     0.089 A 
HETATM   26  C   UNL     1      44.138 -19.477   5.096  1.00  0.00     0.017 A 
HETATM   27  C   UNL     1      44.295 -18.182   4.612  1.00  0.00     0.005 A 
HETATM   28  C   UNL     1      43.860 -17.101   5.378  1.00  0.00     0.042 A 
ENDBRANCH  20  22
ENDBRANCH  19  20
ENDBRANCH   4  19
TORSDOF 7
ENDMDL
MODEL 10
REMARK VINA RESULT:      -6.7      3.790      7.753
REMARK  7 active torsions:
REMARK  status: ('A' for Active; 'I' for Inactive)
REMARK    1  A    between atoms: O_2  and  C_3 
REMARK    2  A    between atoms: C_4  and  O_5 
REMARK    3  A    between atoms: C_6  and  C_7 
REMARK    4  A    between atoms: C_7  and  N_8 
REMARK    5  A    between atoms: C_11  and  C_12 
REMARK    6  A    between atoms: C_12  and  N_13 
REMARK    7  A    between atoms: N_13  and  C_14 
ROOT
HETATM    1  N   UNL     1      41.592 -12.692   3.257  1.00  0.00    -0.067 N 
HETATM    2  H   UNL     1      41.874 -12.932   4.229  1.00  0.00     0.280 HD
HETATM    3  C   UNL     1      40.092 -12.827   3.183  1.00  0.00     0.241 C 
HETATM    4  C   UNL     1      39.619 -11.605   2.400  1.00  0.00     0.026 C 
HETATM    5  C   UNL     1      40.608 -10.536   2.863  1.00  0.00     0.035 C 
HETATM    6  C   UNL     1      41.946 -11.249   3.001  1.00  0.00     0.235 C 
ENDROOT
BRANCH   1   7
HETATM    7  C   UNL     1      42.401 -13.667   2.436  1.00  0.00     0.276 C 
BRANCH   7   8
HETATM    8  C   UNL     1      42.731 -14.941   3.154  1.00  0.00     0.005 A 
HETATM    9  C   UNL     1      43.111 -16.081   2.443  1.00  0.00     0.107 A 
HETATM   10  C   UNL     1      43.366 -17.305   3.079  1.00  0.00     0.103 A 
HETATM   11  C   UNL     1      43.286 -17.375   4.468  1.00  0.00     0.058 A 
HETATM   12  C   UNL     1      42.931 -16.236   5.193  1.00  0.00     0.014 A 
HETATM   13  C   UNL     1      42.641 -15.031   4.548  1.00  0.00     0.030 A 
HETATM   14 BR   UNL     1      42.845 -16.314   7.080  1.00  0.00    -0.051 Br
BRANCH   9  15
HETATM   15  O   UNL     1      43.248 -15.982   1.080  1.00  0.00    -0.357 OA
HETATM   16  H   UNL     1      42.328 -16.056   0.733  1.00  0.00     0.218 HD
ENDBRANCH   9  15
BRANCH  10  17
HETATM   17  O   UNL     1      43.691 -18.333   2.236  1.00  0.00    -0.353 OA
HETATM   18  C   UNL     1      43.656 -19.645   2.797  1.00  0.00     0.210 C 
ENDBRANCH  10  17
ENDBRANCH   7   8
ENDBRANCH   1   7
BRANCH   4  19
HETATM   19  C   UNL     1      39.618 -11.866   0.882  1.00  0.00     0.100 C 
BRANCH  19  20
HETATM   20  N   UNL     1      39.577 -13.316   0.605  1.00  0.00    -0.279 NA
HETATM   21  H   UNL     1      38.964 -13.760   1.299  1.00  0.00     0.129 HD
BRANCH  20  22
HETATM   22  C   UNL     1      39.052 -13.623  -0.656  1.00  0.00     0.079 A 
HETATM   23  N   UNL     1      38.068 -12.833  -1.109  1.00  0.00    -0.357 N 
HETATM   24  H   UNL     1      37.782 -12.069  -0.500  1.00  0.00     0.166 HD
HETATM   25  C   UNL     1      37.471 -13.002  -2.298  1.00  0.00     0.089 A 
HETATM   26  C   UNL     1      37.871 -14.041  -3.127  1.00  0.00     0.017 A 
HETATM   27  C   UNL     1      38.899 -14.879  -2.707  1.00  0.00     0.005 A 
HETATM   28  C   UNL     1      39.502 -14.664  -1.468  1.00  0.00     0.042 A 
ENDBRANCH  20  22
ENDBRANCH  19  20
ENDBRANCH   4  19
TORSDOF 7
ENDMDL
