MODEL 1
REMARK VINA RESULT:      -8.3      0.000      0.000
REMARK  8 active torsions:
REMARK  status: ('A' for Active; 'I' for Inactive)
REMARK    1  A    between atoms: O_2  and  C_3 
REMARK    2  A    between atoms: C_6  and  C_7 
REMARK    3  A    between atoms: C_7  and  N_8 
REMARK    4  A    between atoms: C_7  and  C_27 
REMARK    5  A    between atoms: N_8  and  C_11 
REMARK    6  A    between atoms: C_11  and  C_12 
REMARK       I    between atoms: C_12  and  N_13 
REMARK    7  A    between atoms: N_13  and  C_14 
REMARK    8  A    between atoms: C_17  and  N_18 
ROOT
HETATM    1  N   UNL     1      43.459 -16.739   5.869  1.00  0.00    -0.055 N 
HETATM    2  H   UNL     1      42.435 -16.672   5.989  1.00  0.00     0.278 HD
HETATM    3  H   UNL     1      43.773 -17.556   6.394  1.00  0.00     0.278 HD
ENDROOT
BRANCH   1   4
HETATM    4  C   UNL     1      43.682 -16.942   4.393  1.00  0.00     0.252 C 
BRANCH   4   5
HETATM    5  C   UNL     1      42.686 -16.169   3.544  1.00  0.00    -0.023 A 
HETATM    6  C   UNL     1      43.162 -15.343   2.508  1.00  0.00     0.012 A 
HETATM    7  C   UNL     1      42.280 -14.663   1.659  1.00  0.00     0.037 A 
HETATM    8  C   UNL     1      40.905 -14.801   1.824  1.00  0.00     0.068 A 
HETATM    9  C   UNL     1      40.421 -15.592   2.865  1.00  0.00     0.037 A 
HETATM   10  C   UNL     1      41.297 -16.278   3.714  1.00  0.00     0.012 A 
BRANCH   8  11
HETATM   11  O   UNL     1      39.944 -14.214   1.052  1.00  0.00    -0.356 OA
HETATM   12  C   UNL     1      39.950 -14.550  -0.332  1.00  0.00     0.210 C 
ENDBRANCH   8  11
ENDBRANCH   4   5
BRANCH   4  13
HETATM   13  C   UNL     1      43.775 -18.410   4.009  1.00  0.00    -0.023 A 
HETATM   14  C   UNL     1      44.047 -19.369   5.002  1.00  0.00     0.009 A 
HETATM   15  C   UNL     1      44.125 -20.725   4.680  1.00  0.00     0.001 A 
HETATM   16  C   UNL     1      43.934 -21.143   3.367  1.00  0.00     0.000 A 
HETATM   17  C   UNL     1      43.669 -20.207   2.371  1.00  0.00     0.001 A 
HETATM   18  C   UNL     1      43.591 -18.849   2.686  1.00  0.00     0.009 A 
ENDBRANCH   4  13
ENDBRANCH   1   4
BRANCH   1  19
HETATM   19  C   UNL     1      44.045 -15.469   6.449  1.00  0.00     0.336 C 
BRANCH  19  20
HETATM   20  C   UNL     1      42.994 -14.361   6.470  1.00  0.00     0.248 C 
HETATM   21  N   UNL     1      43.350 -13.215   5.789  1.00  0.00    -0.326 N 
HETATM   22  H   UNL     1      44.268 -13.162   5.360  1.00  0.00     0.169 HD
HETATM   23  O   UNL     1      41.902 -14.630   6.968  1.00  0.00    -0.271 OA
BRANCH  21  24
HETATM   24  C   UNL     1      42.505 -12.118   5.505  1.00  0.00     0.034 A 
HETATM   25  C   UNL     1      42.482 -10.940   6.245  1.00  0.00     0.032 A 
HETATM   26  C   UNL     1      41.564  -9.922   5.943  1.00  0.00     0.032 A 
HETATM   27  C   UNL     1      40.636 -10.054   4.905  1.00  0.00     0.037 A 
HETATM   28  C   UNL     1      40.698 -11.226   4.139  1.00  0.00     0.032 A 
HETATM   29  C   UNL     1      41.624 -12.241   4.429  1.00  0.00     0.032 A 
BRANCH  27  30
HETATM   30  N   UNL     1      39.655  -9.057   4.642  1.00  0.00    -0.318 N 
HETATM   31  C   UNL     1      38.321  -9.068   5.087  1.00  0.00     0.224 C 
HETATM   32  O   UNL     1      37.759  -9.863   5.825  1.00  0.00    -0.273 OA
HETATM   33  C   UNL     1      37.597  -7.926   4.414  1.00  0.00     0.105 C 
HETATM   34  C   UNL     1      38.721  -7.024   3.948  1.00  0.00     0.029 C 
HETATM   35  C   UNL     1      39.865  -7.983   3.698  1.00  0.00     0.133 C 
ENDBRANCH  27  30
ENDBRANCH  21  24
ENDBRANCH  19  20
ENDBRANCH   1  19
TORSDOF 8
ENDMDL
MODEL 2
REMARK VINA RESULT:      -8.2      2.523      3.271
REMARK  8 active torsions:
REMARK  status: ('A' for Active; 'I' for Inactive)
REMARK    1  A    between atoms: O_2  and  C_3 
REMARK    2  A    between atoms: C_6  and  C_7 
REMARK    3  A    between atoms: C_7  and  N_8 
REMARK    4  A    between atoms: C_7  and  C_27 
REMARK    5  A    between atoms: N_8  and  C_11 
REMARK    6  A    between atoms: C_11  and  C_12 
REMARK       I    between atoms: C_12  and  N_13 
REMARK    7  A    between atoms: N_13  and  C_14 
REMARK    8  A    between atoms: C_17  and  N_18 
ROOT
HETATM    1  N   UNL     1      43.293 -16.560   5.445  1.00  0.00    -0.055 N 
HETATM    2  H   UNL     1      42.388 -16.064   5.472  1.00  0.00     0.278 HD
HETATM    3  H   UNL     1      43.186 -17.414   5.995  1.00  0.00     0.278 HD
ENDROOT
BRANCH   1   4
HETATM    4  C   UNL     1      43.532 -16.892   3.995  1.00  0.00     0.252 C 
BRANCH   4   5
HETATM    5  C   UNL     1      42.520 -16.230   3.074  1.00  0.00    -0.023 A 
HETATM    6  C   UNL     1      41.149 -16.323   3.379  1.00  0.00     0.012 A 
HETATM    7  C   UNL     1      40.186 -15.674   2.597  1.00  0.00     0.037 A 
HETATM    8  C   UNL     1      40.574 -14.914   1.499  1.00  0.00     0.068 A 
HETATM    9  C   UNL     1      41.927 -14.839   1.168  1.00  0.00     0.037 A 
HETATM   10  C   UNL     1      42.894 -15.480   1.948  1.00  0.00     0.012 A 
BRANCH   8  11
HETATM   11  O   UNL     1      39.740 -14.217   0.674  1.00  0.00    -0.356 OA
HETATM   12  C   UNL     1      40.025 -14.285  -0.720  1.00  0.00     0.210 C 
ENDBRANCH   8  11
ENDBRANCH   4   5
BRANCH   4  13
HETATM   13  C   UNL     1      43.667 -18.386   3.749  1.00  0.00    -0.023 A 
HETATM   14  C   UNL     1      44.008 -19.236   4.818  1.00  0.00     0.009 A 
HETATM   15  C   UNL     1      44.127 -20.613   4.624  1.00  0.00     0.001 A 
HETATM   16  C   UNL     1      43.909 -21.161   3.363  1.00  0.00     0.000 A 
HETATM   17  C   UNL     1      43.577 -20.335   2.293  1.00  0.00     0.001 A 
HETATM   18  C   UNL     1      43.458 -18.957   2.481  1.00  0.00     0.009 A 
ENDBRANCH   4  13
ENDBRANCH   1   4
BRANCH   1  19
HETATM   19  C   UNL     1      44.311 -15.636   6.079  1.00  0.00     0.336 C 
BRANCH  19  20
HETATM   20  C   UNL     1      43.607 -14.492   6.806  1.00  0.00     0.248 C 
HETATM   21  N   UNL     1      44.232 -13.267   6.696  1.00  0.00    -0.326 N 
HETATM   22  H   UNL     1      45.108 -13.205   6.188  1.00  0.00     0.169 HD
HETATM   23  O   UNL     1      42.508 -14.732   7.303  1.00  0.00    -0.271 OA
BRANCH  21  24
HETATM   24  C   UNL     1      43.709 -12.024   7.119  1.00  0.00     0.034 A 
HETATM   25  C   UNL     1      42.711 -11.328   6.444  1.00  0.00     0.032 A 
HETATM   26  C   UNL     1      42.293 -10.064   6.889  1.00  0.00     0.032 A 
HETATM   27  C   UNL     1      42.866  -9.453   8.008  1.00  0.00     0.037 A 
HETATM   28  C   UNL     1      43.839 -10.182   8.705  1.00  0.00     0.032 A 
HETATM   29  C   UNL     1      44.250 -11.452   8.273  1.00  0.00     0.032 A 
BRANCH  27  30
HETATM   30  N   UNL     1      42.498  -8.141   8.420  1.00  0.00    -0.318 N 
HETATM   31  C   UNL     1      43.381  -7.096   8.749  1.00  0.00     0.224 C 
HETATM   32  O   UNL     1      44.600  -7.066   8.684  1.00  0.00    -0.273 OA
HETATM   33  C   UNL     1      42.565  -5.959   9.314  1.00  0.00     0.105 C 
HETATM   34  C   UNL     1      41.159  -6.265   8.840  1.00  0.00     0.029 C 
HETATM   35  C   UNL     1      41.138  -7.776   8.746  1.00  0.00     0.133 C 
ENDBRANCH  27  30
ENDBRANCH  21  24
ENDBRANCH  19  20
ENDBRANCH   1  19
TORSDOF 8
ENDMDL
MODEL 3
REMARK VINA RESULT:      -8.0      0.758      1.425
REMARK  8 active torsions:
REMARK  status: ('A' for Active; 'I' for Inactive)
REMARK    1  A    between atoms: O_2  and  C_3 
REMARK    2  A    between atoms: C_6  and  C_7 
REMARK    3  A    between atoms: C_7  and  N_8 
REMARK    4  A    between atoms: C_7  and  C_27 
REMARK    5  A    between atoms: N_8  and  C_11 
REMARK    6  A    between atoms: C_11  and  C_12 
REMARK       I    between atoms: C_12  and  N_13 
REMARK    7  A    between atoms: N_13  and  C_14 
REMARK    8  A    between atoms: C_17  and  N_18 
ROOT
HETATM    1  N   UNL     1      43.208 -16.631   5.453  1.00  0.00    -0.055 N 
HETATM    2  H   UNL     1      42.232 -16.294   5.442  1.00  0.00     0.278 HD
HETATM    3  H   UNL     1      43.233 -17.464   6.043  1.00  0.00     0.278 HD
ENDROOT
BRANCH   1   4
HETATM    4  C   UNL     1      43.532 -16.986   4.025  1.00  0.00     0.252 C 
BRANCH   4   5
HETATM    5  C   UNL     1      42.571 -16.345   3.036  1.00  0.00    -0.023 A 
HETATM    6  C   UNL     1      41.185 -16.433   3.268  1.00  0.00     0.012 A 
HETATM    7  C   UNL     1      40.266 -15.803   2.421  1.00  0.00     0.037 A 
HETATM    8  C   UNL     1      40.713 -15.067   1.329  1.00  0.00     0.068 A 
HETATM    9  C   UNL     1      42.082 -14.997   1.070  1.00  0.00     0.037 A 
HETATM   10  C   UNL     1      43.006 -15.620   1.915  1.00  0.00     0.012 A 
BRANCH   8  11
HETATM   11  O   UNL     1      39.925 -14.389   0.444  1.00  0.00    -0.356 OA
HETATM   12  C   UNL     1      40.172 -12.992   0.317  1.00  0.00     0.210 C 
ENDBRANCH   8  11
ENDBRANCH   4   5
BRANCH   4  13
HETATM   13  C   UNL     1      43.689 -18.483   3.813  1.00  0.00    -0.023 A 
HETATM   14  C   UNL     1      43.512 -19.022   2.525  1.00  0.00     0.009 A 
HETATM   15  C   UNL     1      43.663 -20.392   2.300  1.00  0.00     0.001 A 
HETATM   16  C   UNL     1      43.991 -21.241   3.353  1.00  0.00     0.000 A 
HETATM   17  C   UNL     1      44.164 -20.725   4.634  1.00  0.00     0.001 A 
HETATM   18  C   UNL     1      44.014 -19.356   4.866  1.00  0.00     0.009 A 
ENDBRANCH   4  13
ENDBRANCH   1   4
BRANCH   1  19
HETATM   19  C   UNL     1      44.042 -15.520   6.054  1.00  0.00     0.336 C 
BRANCH  19  20
HETATM   20  C   UNL     1      43.217 -14.239   6.167  1.00  0.00     0.248 C 
HETATM   21  N   UNL     1      43.033 -13.564   4.978  1.00  0.00    -0.326 N 
HETATM   22  H   UNL     1      43.470 -13.924   4.135  1.00  0.00     0.169 HD
HETATM   23  O   UNL     1      42.695 -14.000   7.254  1.00  0.00    -0.271 OA
BRANCH  21  24
HETATM   24  C   UNL     1      42.175 -12.461   4.770  1.00  0.00     0.034 A 
HETATM   25  C   UNL     1      42.495 -11.150   5.107  1.00  0.00     0.032 A 
HETATM   26  C   UNL     1      41.560 -10.117   4.934  1.00  0.00     0.032 A 
HETATM   27  C   UNL     1      40.279 -10.362   4.432  1.00  0.00     0.037 A 
HETATM   28  C   UNL     1      39.984 -11.680   4.054  1.00  0.00     0.032 A 
HETATM   29  C   UNL     1      40.919 -12.713   4.213  1.00  0.00     0.032 A 
BRANCH  27  30
HETATM   30  N   UNL     1      39.303  -9.332   4.324  1.00  0.00    -0.318 N 
HETATM   31  C   UNL     1      38.499  -8.838   5.367  1.00  0.00     0.224 C 
HETATM   32  O   UNL     1      38.514  -9.120   6.555  1.00  0.00    -0.273 OA
HETATM   33  C   UNL     1      37.480  -7.900   4.763  1.00  0.00     0.105 C 
HETATM   34  C   UNL     1      38.074  -7.558   3.413  1.00  0.00     0.029 C 
HETATM   35  C   UNL     1      38.873  -8.792   3.054  1.00  0.00     0.133 C 
ENDBRANCH  27  30
ENDBRANCH  21  24
ENDBRANCH  19  20
ENDBRANCH   1  19
TORSDOF 8
ENDMDL
MODEL 4
REMARK VINA RESULT:      -7.8      2.990      6.316
REMARK  8 active torsions:
REMARK  status: ('A' for Active; 'I' for Inactive)
REMARK    1  A    between atoms: O_2  and  C_3 
REMARK    2  A    between atoms: C_6  and  C_7 
REMARK    3  A    between atoms: C_7  and  N_8 
REMARK    4  A    between atoms: C_7  and  C_27 
REMARK    5  A    between atoms: N_8  and  C_11 
REMARK    6  A    between atoms: C_11  and  C_12 
REMARK       I    between atoms: C_12  and  N_13 
REMARK    7  A    between atoms: N_13  and  C_14 
REMARK    8  A    between atoms: C_17  and  N_18 
ROOT
HETATM    1  N   UNL     1      40.004 -12.728   1.961  1.00  0.00    -0.055 N 
HETATM    2  H   UNL     1      40.963 -12.639   2.334  1.00  0.00     0.278 HD
HETATM    3  H   UNL     1      39.844 -11.929   1.347  1.00  0.00     0.278 HD
ENDROOT
BRANCH   1   4
HETATM    4  C   UNL     1      39.991 -14.011   1.173  1.00  0.00     0.252 C 
BRANCH   4   5
HETATM    5  C   UNL     1      41.056 -14.990   1.640  1.00  0.00    -0.023 A 
HETATM    6  C   UNL     1      40.707 -15.996   2.562  1.00  0.00     0.012 A 
HETATM    7  C   UNL     1      41.637 -16.959   2.971  1.00  0.00     0.037 A 
HETATM    8  C   UNL     1      42.931 -16.941   2.462  1.00  0.00     0.068 A 
HETATM    9  C   UNL     1      43.298 -15.933   1.572  1.00  0.00     0.037 A 
HETATM   10  C   UNL     1      42.372 -14.970   1.155  1.00  0.00     0.012 A 
BRANCH   8  11
HETATM   11  O   UNL     1      43.921 -17.833   2.761  1.00  0.00    -0.356 OA
HETATM   12  C   UNL     1      43.592 -19.212   2.626  1.00  0.00     0.210 C 
ENDBRANCH   8  11
ENDBRANCH   4   5
BRANCH   4  13
HETATM   13  C   UNL     1      40.018 -13.778  -0.329  1.00  0.00    -0.023 A 
HETATM   14  C   UNL     1      40.618 -12.611  -0.838  1.00  0.00     0.009 A 
HETATM   15  C   UNL     1      40.669 -12.378  -2.213  1.00  0.00     0.001 A 
HETATM   16  C   UNL     1      40.122 -13.302  -3.099  1.00  0.00     0.000 A 
HETATM   17  C   UNL     1      39.520 -14.459  -2.613  1.00  0.00     0.001 A 
HETATM   18  C   UNL     1      39.465 -14.698  -1.238  1.00  0.00     0.009 A 
ENDBRANCH   4  13
ENDBRANCH   1   4
BRANCH   1  19
HETATM   19  C   UNL     1      39.072 -12.685   3.153  1.00  0.00     0.336 C 
BRANCH  19  20
HETATM   20  C   UNL     1      39.872 -12.547   4.447  1.00  0.00     0.248 C 
HETATM   21  N   UNL     1      41.049 -11.838   4.326  1.00  0.00    -0.326 N 
HETATM   22  H   UNL     1      41.324 -11.492   3.412  1.00  0.00     0.169 HD
HETATM   23  O   UNL     1      39.347 -12.958   5.481  1.00  0.00    -0.271 OA
BRANCH  21  24
HETATM   24  C   UNL     1      41.882 -11.417   5.387  1.00  0.00     0.034 A 
HETATM   25  C   UNL     1      42.908 -12.188   5.925  1.00  0.00     0.032 A 
HETATM   26  C   UNL     1      43.647 -11.727   7.026  1.00  0.00     0.032 A 
HETATM   27  C   UNL     1      43.377 -10.496   7.630  1.00  0.00     0.037 A 
HETATM   28  C   UNL     1      42.371  -9.710   7.052  1.00  0.00     0.032 A 
HETATM   29  C   UNL     1      41.639 -10.159   5.942  1.00  0.00     0.032 A 
BRANCH  27  30
HETATM   30  N   UNL     1      44.073 -10.058   8.792  1.00  0.00    -0.318 N 
HETATM   31  C   UNL     1      45.378  -9.534   8.828  1.00  0.00     0.224 C 
HETATM   32  O   UNL     1      46.136  -9.283   7.905  1.00  0.00    -0.273 OA
HETATM   33  C   UNL     1      45.780  -9.390  10.277  1.00  0.00     0.105 C 
HETATM   34  C   UNL     1      44.457  -9.423  11.014  1.00  0.00     0.029 C 
HETATM   35  C   UNL     1      43.582 -10.287  10.131  1.00  0.00     0.133 C 
ENDBRANCH  27  30
ENDBRANCH  21  24
ENDBRANCH  19  20
ENDBRANCH   1  19
TORSDOF 8
ENDMDL
MODEL 5
REMARK VINA RESULT:      -7.8      4.413      9.578
REMARK  8 active torsions:
REMARK  status: ('A' for Active; 'I' for Inactive)
REMARK    1  A    between atoms: O_2  and  C_3 
REMARK    2  A    between atoms: C_6  and  C_7 
REMARK    3  A    between atoms: C_7  and  N_8 
REMARK    4  A    between atoms: C_7  and  C_27 
REMARK    5  A    between atoms: N_8  and  C_11 
REMARK    6  A    between atoms: C_11  and  C_12 
REMARK       I    between atoms: C_12  and  N_13 
REMARK    7  A    between atoms: N_13  and  C_14 
REMARK    8  A    between atoms: C_17  and  N_18 
ROOT
HETATM    1  N   UNL     1      40.496  -9.528  10.160  1.00  0.00    -0.055 N 
HETATM    2  H   UNL     1      40.931 -10.426   9.896  1.00  0.00     0.278 HD
HETATM    3  H   UNL     1      39.903  -9.707  10.972  1.00  0.00     0.278 HD
ENDROOT
BRANCH   1   4
HETATM    4  C   UNL     1      41.636  -8.616  10.530  1.00  0.00     0.252 C 
BRANCH   4   5
HETATM    5  C   UNL     1      42.935  -9.003   9.842  1.00  0.00    -0.023 A 
HETATM    6  C   UNL     1      43.442 -10.306  10.014  1.00  0.00     0.012 A 
HETATM    7  C   UNL     1      44.599 -10.728   9.349  1.00  0.00     0.037 A 
HETATM    8  C   UNL     1      45.269  -9.860   8.493  1.00  0.00     0.068 A 
HETATM    9  C   UNL     1      44.795  -8.558   8.338  1.00  0.00     0.037 A 
HETATM   10  C   UNL     1      43.636  -8.131   8.996  1.00  0.00     0.012 A 
BRANCH   8  11
HETATM   11  O   UNL     1      46.389 -10.155   7.771  1.00  0.00    -0.356 OA
HETATM   12  C   UNL     1      46.224 -11.071   6.693  1.00  0.00     0.210 C 
ENDBRANCH   8  11
ENDBRANCH   4   5
BRANCH   4  13
HETATM   13  C   UNL     1      41.789  -8.446  12.033  1.00  0.00    -0.023 A 
HETATM   14  C   UNL     1      40.892  -9.100  12.898  1.00  0.00     0.009 A 
HETATM   15  C   UNL     1      41.017  -8.972  14.283  1.00  0.00     0.001 A 
HETATM   16  C   UNL     1      42.035  -8.191  14.823  1.00  0.00     0.000 A 
HETATM   17  C   UNL     1      42.928  -7.533  13.981  1.00  0.00     0.001 A 
HETATM   18  C   UNL     1      42.807  -7.656  12.596  1.00  0.00     0.009 A 
ENDBRANCH   4  13
ENDBRANCH   1   4
BRANCH   1  19
HETATM   19  C   UNL     1      39.665  -9.086   8.975  1.00  0.00     0.336 C 
BRANCH  19  20
HETATM   20  C   UNL     1      39.723 -10.135   7.866  1.00  0.00     0.248 C 
HETATM   21  N   UNL     1      40.909 -10.163   7.160  1.00  0.00    -0.326 N 
HETATM   22  H   UNL     1      41.632  -9.489   7.386  1.00  0.00     0.169 HD
HETATM   23  O   UNL     1      38.784 -10.925   7.788  1.00  0.00    -0.271 OA
BRANCH  21  24
HETATM   24  C   UNL     1      41.291 -11.139   6.211  1.00  0.00     0.034 A 
HETATM   25  C   UNL     1      40.522 -11.496   5.109  1.00  0.00     0.032 A 
HETATM   26  C   UNL     1      40.937 -12.525   4.249  1.00  0.00     0.032 A 
HETATM   27  C   UNL     1      42.122 -13.234   4.470  1.00  0.00     0.037 A 
HETATM   28  C   UNL     1      42.910 -12.835   5.558  1.00  0.00     0.032 A 
HETATM   29  C   UNL     1      42.505 -11.798   6.413  1.00  0.00     0.032 A 
BRANCH  27  30
HETATM   30  N   UNL     1      42.511 -14.326   3.644  1.00  0.00    -0.318 N 
HETATM   31  C   UNL     1      42.403 -15.691   3.969  1.00  0.00     0.224 C 
HETATM   32  O   UNL     1      41.907 -16.214   4.954  1.00  0.00    -0.273 OA
HETATM   33  C   UNL     1      43.111 -16.481   2.894  1.00  0.00     0.105 C 
HETATM   34  C   UNL     1      43.199 -15.504   1.740  1.00  0.00     0.029 C 
HETATM   35  C   UNL     1      43.262 -14.154   2.422  1.00  0.00     0.133 C 
ENDBRANCH  27  30
ENDBRANCH  21  24
ENDBRANCH  19  20
ENDBRANCH   1  19
TORSDOF 8
ENDMDL
MODEL 6
REMARK VINA RESULT:      -7.5      3.864      9.931
REMARK  8 active torsions:
REMARK  status: ('A' for Active; 'I' for Inactive)
REMARK    1  A    between atoms: O_2  and  C_3 
REMARK    2  A    between atoms: C_6  and  C_7 
REMARK    3  A    between atoms: C_7  and  N_8 
REMARK    4  A    between atoms: C_7  and  C_27 
REMARK    5  A    between atoms: N_8  and  C_11 
REMARK    6  A    between atoms: C_11  and  C_12 
REMARK       I    between atoms: C_12  and  N_13 
REMARK    7  A    between atoms: N_13  and  C_14 
REMARK    8  A    between atoms: C_17  and  N_18 
ROOT
HETATM    1  N   UNL     1      39.813 -10.371   8.313  1.00  0.00    -0.055 N 
HETATM    2  H   UNL     1      40.679 -10.903   8.134  1.00  0.00     0.278 HD
HETATM    3  H   UNL     1      39.324 -10.837   9.079  1.00  0.00     0.278 HD
ENDROOT
BRANCH   1   4
HETATM    4  C   UNL     1      40.260  -8.995   8.733  1.00  0.00     0.252 C 
BRANCH   4   5
HETATM    5  C   UNL     1      41.769  -8.828   8.660  1.00  0.00    -0.023 A 
HETATM    6  C   UNL     1      42.550  -9.867   8.118  1.00  0.00     0.012 A 
HETATM    7  C   UNL     1      43.935  -9.732   7.971  1.00  0.00     0.037 A 
HETATM    8  C   UNL     1      44.568  -8.555   8.357  1.00  0.00     0.068 A 
HETATM    9  C   UNL     1      43.810  -7.530   8.924  1.00  0.00     0.037 A 
HETATM   10  C   UNL     1      42.425  -7.656   9.069  1.00  0.00     0.012 A 
BRANCH   8  11
HETATM   11  O   UNL     1      45.902  -8.289   8.246  1.00  0.00    -0.356 OA
HETATM   12  C   UNL     1      46.715  -9.336   7.723  1.00  0.00     0.210 C 
ENDBRANCH   8  11
ENDBRANCH   4   5
BRANCH   4  13
HETATM   13  C   UNL     1      39.680  -8.572  10.072  1.00  0.00    -0.023 A 
HETATM   14  C   UNL     1      39.976  -9.324  11.224  1.00  0.00     0.009 A 
HETATM   15  C   UNL     1      39.468  -8.951  12.469  1.00  0.00     0.001 A 
HETATM   16  C   UNL     1      38.657  -7.826  12.583  1.00  0.00     0.000 A 
HETATM   17  C   UNL     1      38.349  -7.073  11.454  1.00  0.00     0.001 A 
HETATM   18  C   UNL     1      38.854  -7.441  10.205  1.00  0.00     0.009 A 
ENDBRANCH   4  13
ENDBRANCH   1   4
BRANCH   1  19
HETATM   19  C   UNL     1      38.998 -10.432   7.039  1.00  0.00     0.336 C 
BRANCH  19  20
HETATM   20  C   UNL     1      39.620 -11.426   6.059  1.00  0.00     0.248 C 
HETATM   21  N   UNL     1      40.364 -12.428   6.647  1.00  0.00    -0.326 N 
HETATM   22  H   UNL     1      40.481 -12.427   7.655  1.00  0.00     0.169 HD
HETATM   23  O   UNL     1      39.304 -11.322   4.875  1.00  0.00    -0.271 OA
BRANCH  21  24
HETATM   24  C   UNL     1      40.896 -13.563   5.995  1.00  0.00     0.034 A 
HETATM   25  C   UNL     1      40.324 -14.830   6.046  1.00  0.00     0.032 A 
HETATM   26  C   UNL     1      40.951 -15.924   5.428  1.00  0.00     0.032 A 
HETATM   27  C   UNL     1      42.169 -15.789   4.754  1.00  0.00     0.037 A 
HETATM   28  C   UNL     1      42.712 -14.499   4.672  1.00  0.00     0.032 A 
HETATM   29  C   UNL     1      42.082 -13.400   5.276  1.00  0.00     0.032 A 
BRANCH  27  30
HETATM   30  N   UNL     1      42.845 -16.907   4.190  1.00  0.00    -0.318 N 
HETATM   31  C   UNL     1      43.653 -17.825   4.885  1.00  0.00     0.224 C 
HETATM   32  O   UNL     1      43.881 -17.902   6.082  1.00  0.00    -0.273 OA
HETATM   33  C   UNL     1      44.320 -18.720   3.867  1.00  0.00     0.105 C 
HETATM   34  C   UNL     1      43.469 -18.537   2.627  1.00  0.00     0.029 C 
HETATM   35  C   UNL     1      42.942 -17.124   2.764  1.00  0.00     0.133 C 
ENDBRANCH  27  30
ENDBRANCH  21  24
ENDBRANCH  19  20
ENDBRANCH   1  19
TORSDOF 8
ENDMDL
MODEL 7
REMARK VINA RESULT:      -7.5      3.695      5.028
REMARK  8 active torsions:
REMARK  status: ('A' for Active; 'I' for Inactive)
REMARK    1  A    between atoms: O_2  and  C_3 
REMARK    2  A    between atoms: C_6  and  C_7 
REMARK    3  A    between atoms: C_7  and  N_8 
REMARK    4  A    between atoms: C_7  and  C_27 
REMARK    5  A    between atoms: N_8  and  C_11 
REMARK    6  A    between atoms: C_11  and  C_12 
REMARK       I    between atoms: C_12  and  N_13 
REMARK    7  A    between atoms: N_13  and  C_14 
REMARK    8  A    between atoms: C_17  and  N_18 
ROOT
HETATM    1  N   UNL     1      42.471 -13.566   4.090  1.00  0.00    -0.055 N 
HETATM    2  H   UNL     1      41.573 -13.107   3.868  1.00  0.00     0.278 HD
HETATM    3  H   UNL     1      42.318 -14.150   4.912  1.00  0.00     0.278 HD
ENDROOT
BRANCH   1   4
HETATM    4  C   UNL     1      42.799 -14.417   2.891  1.00  0.00     0.252 C 
BRANCH   4   5
HETATM    5  C   UNL     1      41.733 -14.333   1.810  1.00  0.00    -0.023 A 
HETATM    6  C   UNL     1      41.652 -13.173   1.015  1.00  0.00     0.012 A 
HETATM    7  C   UNL     1      40.730 -13.076  -0.034  1.00  0.00     0.037 A 
HETATM    8  C   UNL     1      39.876 -14.138  -0.314  1.00  0.00     0.068 A 
HETATM    9  C   UNL     1      39.926 -15.280   0.485  1.00  0.00     0.037 A 
HETATM   10  C   UNL     1      40.848 -15.385   1.532  1.00  0.00     0.012 A 
BRANCH   8  11
HETATM   11  O   UNL     1      38.952 -14.179  -1.318  1.00  0.00    -0.356 OA
HETATM   12  C   UNL     1      39.461 -14.329  -2.641  1.00  0.00     0.210 C 
ENDBRANCH   8  11
ENDBRANCH   4   5
BRANCH   4  13
HETATM   13  C   UNL     1      43.151 -15.848   3.265  1.00  0.00    -0.023 A 
HETATM   14  C   UNL     1      43.347 -16.802   2.249  1.00  0.00     0.009 A 
HETATM   15  C   UNL     1      43.684 -18.119   2.564  1.00  0.00     0.001 A 
HETATM   16  C   UNL     1      43.829 -18.504   3.894  1.00  0.00     0.000 A 
HETATM   17  C   UNL     1      43.633 -17.575   4.912  1.00  0.00     0.001 A 
HETATM   18  C   UNL     1      43.295 -16.256   4.603  1.00  0.00     0.009 A 
ENDBRANCH   4  13
ENDBRANCH   1   4
BRANCH   1  19
HETATM   19  C   UNL     1      43.458 -12.459   4.393  1.00  0.00     0.336 C 
BRANCH  19  20
HETATM   20  C   UNL     1      43.537 -12.217   5.899  1.00  0.00     0.248 C 
HETATM   21  N   UNL     1      43.550 -10.888   6.270  1.00  0.00    -0.326 N 
HETATM   22  H   UNL     1      43.544 -10.175   5.548  1.00  0.00     0.169 HD
HETATM   23  O   UNL     1      43.452 -13.200   6.633  1.00  0.00    -0.271 OA
BRANCH  21  24
HETATM   24  C   UNL     1      43.442 -10.390   7.589  1.00  0.00     0.034 A 
HETATM   25  C   UNL     1      44.411 -10.569   8.571  1.00  0.00     0.032 A 
HETATM   26  C   UNL     1      44.199 -10.104   9.878  1.00  0.00     0.032 A 
HETATM   27  C   UNL     1      43.015  -9.459  10.247  1.00  0.00     0.037 A 
HETATM   28  C   UNL     1      42.066  -9.245   9.237  1.00  0.00     0.032 A 
HETATM   29  C   UNL     1      42.278  -9.696   7.925  1.00  0.00     0.032 A 
BRANCH  27  30
HETATM   30  N   UNL     1      42.765  -9.051  11.587  1.00  0.00    -0.318 N 
HETATM   31  C   UNL     1      42.747  -7.728  12.062  1.00  0.00     0.224 C 
HETATM   32  O   UNL     1      42.864  -6.683  11.441  1.00  0.00    -0.273 OA
HETATM   33  C   UNL     1      42.640  -7.776  13.568  1.00  0.00     0.105 C 
HETATM   34  C   UNL     1      42.132  -9.177  13.839  1.00  0.00     0.029 C 
HETATM   35  C   UNL     1      42.690  -9.985  12.687  1.00  0.00     0.133 C 
ENDBRANCH  27  30
ENDBRANCH  21  24
ENDBRANCH  19  20
ENDBRANCH   1  19
TORSDOF 8
ENDMDL
MODEL 8
REMARK VINA RESULT:      -7.5      3.581      5.554
REMARK  8 active torsions:
REMARK  status: ('A' for Active; 'I' for Inactive)
REMARK    1  A    between atoms: O_2  and  C_3 
REMARK    2  A    between atoms: C_6  and  C_7 
REMARK    3  A    between atoms: C_7  and  N_8 
REMARK    4  A    between atoms: C_7  and  C_27 
REMARK    5  A    between atoms: N_8  and  C_11 
REMARK    6  A    between atoms: C_11  and  C_12 
REMARK       I    between atoms: C_12  and  N_13 
REMARK    7  A    between atoms: N_13  and  C_14 
REMARK    8  A    between atoms: C_17  and  N_18 
ROOT
HETATM    1  N   UNL     1      40.941 -13.243   3.486  1.00  0.00    -0.055 N 
HETATM    2  H   UNL     1      41.449 -12.364   3.298  1.00  0.00     0.278 HD
HETATM    3  H   UNL     1      40.778 -13.697   2.586  1.00  0.00     0.278 HD
ENDROOT
BRANCH   1   4
HETATM    4  C   UNL     1      41.865 -14.074   4.338  1.00  0.00     0.252 C 
BRANCH   4   5
HETATM    5  C   UNL     1      42.957 -13.241   4.991  1.00  0.00    -0.023 A 
HETATM    6  C   UNL     1      43.547 -12.190   4.263  1.00  0.00     0.012 A 
HETATM    7  C   UNL     1      44.508 -11.355   4.845  1.00  0.00     0.037 A 
HETATM    8  C   UNL     1      44.895 -11.550   6.167  1.00  0.00     0.068 A 
HETATM    9  C   UNL     1      44.340 -12.607   6.889  1.00  0.00     0.037 A 
HETATM   10  C   UNL     1      43.375 -13.441   6.315  1.00  0.00     0.012 A 
BRANCH   8  11
HETATM   11  O   UNL     1      45.801 -10.796   6.855  1.00  0.00    -0.356 OA
HETATM   12  C   UNL     1      45.595 -10.685   8.260  1.00  0.00     0.210 C 
ENDBRANCH   8  11
ENDBRANCH   4   5
BRANCH   4  13
HETATM   13  C   UNL     1      42.406 -15.289   3.603  1.00  0.00    -0.023 A 
HETATM   14  C   UNL     1      42.689 -15.199   2.228  1.00  0.00     0.009 A 
HETATM   15  C   UNL     1      43.199 -16.296   1.531  1.00  0.00     0.001 A 
HETATM   16  C   UNL     1      43.432 -17.497   2.195  1.00  0.00     0.000 A 
HETATM   17  C   UNL     1      43.153 -17.606   3.554  1.00  0.00     0.001 A 
HETATM   18  C   UNL     1      42.642 -16.513   4.256  1.00  0.00     0.009 A 
ENDBRANCH   4  13
ENDBRANCH   1   4
BRANCH   1  19
HETATM   19  C   UNL     1      39.630 -12.853   4.135  1.00  0.00     0.336 C 
BRANCH  19  20
HETATM   20  C   UNL     1      39.871 -12.355   5.559  1.00  0.00     0.248 C 
HETATM   21  N   UNL     1      40.369 -11.071   5.645  1.00  0.00    -0.326 N 
HETATM   22  H   UNL     1      40.572 -10.564   4.790  1.00  0.00     0.169 HD
HETATM   23  O   UNL     1      39.488 -13.075   6.480  1.00  0.00    -0.271 OA
BRANCH  21  24
HETATM   24  C   UNL     1      40.515 -10.312   6.828  1.00  0.00     0.034 A 
HETATM   25  C   UNL     1      41.738  -9.882   7.332  1.00  0.00     0.032 A 
HETATM   26  C   UNL     1      41.807  -9.191   8.552  1.00  0.00     0.032 A 
HETATM   27  C   UNL     1      40.663  -8.920   9.309  1.00  0.00     0.037 A 
HETATM   28  C   UNL     1      39.433  -9.319   8.770  1.00  0.00     0.032 A 
HETATM   29  C   UNL     1      39.357  -9.999   7.544  1.00  0.00     0.032 A 
BRANCH  27  30
HETATM   30  N   UNL     1      40.735  -8.285  10.581  1.00  0.00    -0.318 N 
HETATM   31  C   UNL     1      40.567  -8.910  11.830  1.00  0.00     0.224 C 
HETATM   32  O   UNL     1      40.404 -10.092  12.087  1.00  0.00    -0.273 OA
HETATM   33  C   UNL     1      40.529  -7.831  12.887  1.00  0.00     0.105 C 
HETATM   34  C   UNL     1      41.151  -6.637  12.193  1.00  0.00     0.029 C 
HETATM   35  C   UNL     1      40.797  -6.850  10.736  1.00  0.00     0.133 C 
ENDBRANCH  27  30
ENDBRANCH  21  24
ENDBRANCH  19  20
ENDBRANCH   1  19
TORSDOF 8
ENDMDL
MODEL 9
REMARK VINA RESULT:      -7.5      3.343      6.138
REMARK  8 active torsions:
REMARK  status: ('A' for Active; 'I' for Inactive)
REMARK    1  A    between atoms: O_2  and  C_3 
REMARK    2  A    between atoms: C_6  and  C_7 
REMARK    3  A    between atoms: C_7  and  N_8 
REMARK    4  A    between atoms: C_7  and  C_27 
REMARK    5  A    between atoms: N_8  and  C_11 
REMARK    6  A    between atoms: C_11  and  C_12 
REMARK       I    between atoms: C_12  and  N_13 
REMARK    7  A    between atoms: N_13  and  C_14 
REMARK    8  A    between atoms: C_17  and  N_18 
ROOT
HETATM    1  N   UNL     1      40.243 -15.703   2.998  1.00  0.00    -0.055 N 
HETATM    2  H   UNL     1      40.153 -16.653   3.392  1.00  0.00     0.278 HD
HETATM    3  H   UNL     1      39.666 -15.083   3.568  1.00  0.00     0.278 HD
ENDROOT
BRANCH   1   4
HETATM    4  C   UNL     1      41.699 -15.342   3.134  1.00  0.00     0.252 C 
BRANCH   4   5
HETATM    5  C   UNL     1      42.549 -16.519   3.584  1.00  0.00    -0.023 A 
HETATM    6  C   UNL     1      42.759 -16.727   4.961  1.00  0.00     0.012 A 
HETATM    7  C   UNL     1      43.479 -17.834   5.426  1.00  0.00     0.037 A 
HETATM    8  C   UNL     1      43.998 -18.759   4.525  1.00  0.00     0.068 A 
HETATM    9  C   UNL     1      43.823 -18.547   3.157  1.00  0.00     0.037 A 
HETATM   10  C   UNL     1      43.100 -17.446   2.687  1.00  0.00     0.012 A 
BRANCH   8  11
HETATM   11  O   UNL     1      44.695 -19.887   4.848  1.00  0.00    -0.356 OA
HETATM   12  C   UNL     1      43.923 -21.024   5.220  1.00  0.00     0.210 C 
ENDBRANCH   8  11
ENDBRANCH   4   5
BRANCH   4  13
HETATM   13  C   UNL     1      41.919 -14.095   3.975  1.00  0.00    -0.023 A 
HETATM   14  C   UNL     1      40.918 -13.679   4.872  1.00  0.00     0.009 A 
HETATM   15  C   UNL     1      41.099 -12.546   5.666  1.00  0.00     0.001 A 
HETATM   16  C   UNL     1      42.278 -11.812   5.577  1.00  0.00     0.000 A 
HETATM   17  C   UNL     1      43.277 -12.206   4.691  1.00  0.00     0.001 A 
HETATM   18  C   UNL     1      43.102 -13.338   3.893  1.00  0.00     0.009 A 
ENDBRANCH   4  13
ENDBRANCH   1   4
BRANCH   1  19
HETATM   19  C   UNL     1      39.718 -15.773   1.580  1.00  0.00     0.336 C 
BRANCH  19  20
HETATM   20  C   UNL     1      40.058 -14.489   0.825  1.00  0.00     0.248 C 
HETATM   21  N   UNL     1      39.592 -13.332   1.414  1.00  0.00    -0.326 N 
HETATM   22  H   UNL     1      39.040 -13.400   2.263  1.00  0.00     0.169 HD
HETATM   23  O   UNL     1      40.807 -14.588  -0.145  1.00  0.00    -0.271 OA
BRANCH  21  24
HETATM   24  C   UNL     1      39.911 -12.011   1.024  1.00  0.00     0.034 A 
HETATM   25  C   UNL     1      39.279 -11.330  -0.011  1.00  0.00     0.032 A 
HETATM   26  C   UNL     1      39.701 -10.044  -0.384  1.00  0.00     0.032 A 
HETATM   27  C   UNL     1      40.770  -9.407   0.254  1.00  0.00     0.037 A 
HETATM   28  C   UNL     1      41.368 -10.085   1.325  1.00  0.00     0.032 A 
HETATM   29  C   UNL     1      40.941 -11.365   1.711  1.00  0.00     0.032 A 
BRANCH  27  30
HETATM   30  N   UNL     1      41.248  -8.135  -0.169  1.00  0.00    -0.318 N 
HETATM   31  C   UNL     1      42.454  -7.887  -0.849  1.00  0.00     0.224 C 
HETATM   32  O   UNL     1      43.280  -8.680  -1.271  1.00  0.00    -0.273 OA
HETATM   33  C   UNL     1      42.648  -6.391  -0.919  1.00  0.00     0.105 C 
HETATM   34  C   UNL     1      41.260  -5.844  -0.656  1.00  0.00     0.029 C 
HETATM   35  C   UNL     1      40.629  -6.893   0.235  1.00  0.00     0.133 C 
ENDBRANCH  27  30
ENDBRANCH  21  24
ENDBRANCH  19  20
ENDBRANCH   1  19
TORSDOF 8
ENDMDL
MODEL 10
REMARK VINA RESULT:      -7.5      4.057      5.968
REMARK  8 active torsions:
REMARK  status: ('A' for Active; 'I' for Inactive)
REMARK    1  A    between atoms: O_2  and  C_3 
REMARK    2  A    between atoms: C_6  and  C_7 
REMARK    3  A    between atoms: C_7  and  N_8 
REMARK    4  A    between atoms: C_7  and  C_27 
REMARK    5  A    between atoms: N_8  and  C_11 
REMARK    6  A    between atoms: C_11  and  C_12 
REMARK       I    between atoms: C_12  and  N_13 
REMARK    7  A    between atoms: N_13  and  C_14 
REMARK    8  A    between atoms: C_17  and  N_18 
ROOT
HETATM    1  N   UNL     1      41.377 -15.941   1.554  1.00  0.00    -0.055 N 
HETATM    2  H   UNL     1      41.943 -15.191   1.125  1.00  0.00     0.278 HD
HETATM    3  H   UNL     1      41.697 -16.826   1.159  1.00  0.00     0.278 HD
ENDROOT
BRANCH   1   4
HETATM    4  C   UNL     1      41.677 -15.882   3.030  1.00  0.00     0.252 C 
BRANCH   4   5
HETATM    5  C   UNL     1      42.023 -14.478   3.496  1.00  0.00    -0.023 A 
HETATM    6  C   UNL     1      41.366 -13.946   4.622  1.00  0.00     0.012 A 
HETATM    7  C   UNL     1      41.698 -12.683   5.127  1.00  0.00     0.037 A 
HETATM    8  C   UNL     1      42.698 -11.930   4.521  1.00  0.00     0.068 A 
HETATM    9  C   UNL     1      43.336 -12.432   3.387  1.00  0.00     0.037 A 
HETATM   10  C   UNL     1      43.012 -13.695   2.880  1.00  0.00     0.012 A 
BRANCH   8  11
HETATM   11  O   UNL     1      43.131 -10.700   4.927  1.00  0.00    -0.356 OA
HETATM   12  C   UNL     1      42.279  -9.993   5.823  1.00  0.00     0.210 C 
ENDBRANCH   8  11
ENDBRANCH   4   5
BRANCH   4  13
HETATM   13  C   UNL     1      42.700 -16.920   3.462  1.00  0.00    -0.023 A 
HETATM   14  C   UNL     1      43.070 -17.942   2.569  1.00  0.00     0.009 A 
HETATM   15  C   UNL     1      44.017 -18.900   2.935  1.00  0.00     0.001 A 
HETATM   16  C   UNL     1      44.605 -18.854   4.196  1.00  0.00     0.000 A 
HETATM   17  C   UNL     1      44.246 -17.853   5.095  1.00  0.00     0.001 A 
HETATM   18  C   UNL     1      43.299 -16.893   4.735  1.00  0.00     0.009 A 
ENDBRANCH   4  13
ENDBRANCH   1   4
BRANCH   1  19
HETATM   19  C   UNL     1      39.938 -15.669   1.170  1.00  0.00     0.336 C 
BRANCH  19  20
HETATM   20  C   UNL     1      39.867 -14.536   0.148  1.00  0.00     0.248 C 
HETATM   21  N   UNL     1      40.454 -13.356   0.553  1.00  0.00    -0.326 N 
HETATM   22  H   UNL     1      40.853 -13.298   1.485  1.00  0.00     0.169 HD
HETATM   23  O   UNL     1      39.420 -14.809  -0.965  1.00  0.00    -0.271 OA
BRANCH  21  24
HETATM   24  C   UNL     1      40.682 -12.218  -0.254  1.00  0.00     0.034 A 
HETATM   25  C   UNL     1      40.920 -12.270  -1.624  1.00  0.00     0.032 A 
HETATM   26  C   UNL     1      41.208 -11.100  -2.345  1.00  0.00     0.032 A 
HETATM   27  C   UNL     1      41.278  -9.850  -1.722  1.00  0.00     0.037 A 
HETATM   28  C   UNL     1      40.991  -9.806  -0.350  1.00  0.00     0.032 A 
HETATM   29  C   UNL     1      40.690 -10.970   0.373  1.00  0.00     0.032 A 
BRANCH  27  30
HETATM   30  N   UNL     1      41.641  -8.673  -2.434  1.00  0.00    -0.318 N 
HETATM   31  C   UNL     1      42.769  -7.870  -2.189  1.00  0.00     0.224 C 
HETATM   32  O   UNL     1      43.681  -8.040  -1.395  1.00  0.00    -0.273 OA
HETATM   33  C   UNL     1      42.651  -6.630  -3.043  1.00  0.00     0.105 C 
HETATM   34  C   UNL     1      41.642  -7.027  -4.101  1.00  0.00     0.029 C 
HETATM   35  C   UNL     1      40.765  -8.038  -3.393  1.00  0.00     0.133 C 
ENDBRANCH  27  30
ENDBRANCH  21  24
ENDBRANCH  19  20
ENDBRANCH   1  19
TORSDOF 8
ENDMDL
