MODEL 1
REMARK VINA RESULT:      -9.3      0.000      0.000
REMARK  7 active torsions:
REMARK  status: ('A' for Active; 'I' for Inactive)
REMARK    1  A    between atoms: C_2  and  N_3 
REMARK    2  A    between atoms: C_11  and  C_12 
REMARK    3  A    between atoms: C_14  and  O_15 
REMARK    4  A    between atoms: C_17  and  O_18 
REMARK    5  A    between atoms: O_18  and  C_19 
REMARK    6  A    between atoms: C_19  and  C_20 
REMARK    7  A    between atoms: C_31  and  O_32 
ROOT
HETATM    1  N   UNL     1      40.032  -8.472  13.093  1.00  0.00    -0.067 N 
HETATM    2  H   UNL     1      39.117  -8.418  13.555  1.00  0.00     0.280 HD
HETATM    3  C   UNL     1      39.753  -8.241  11.604  1.00  0.00     0.281 C 
HETATM    4  C   UNL     1      40.891  -8.717  10.769  1.00  0.00     0.018 A 
HETATM    5  C   UNL     1      41.889  -9.580  11.196  1.00  0.00    -0.024 A 
HETATM    6  C   UNL     1      42.838  -9.818  10.152  1.00  0.00     0.057 A 
HETATM    7  C   UNL     1      42.487  -9.175   8.992  1.00  0.00     0.087 A 
HETATM    8  N   UNL     1      43.222  -9.271   7.868  1.00  0.00    -0.357 N 
HETATM    9  C   UNL     1      44.170 -10.380   7.789  1.00  0.00     0.243 C 
HETATM   10  N   UNL     1      44.724 -10.874   9.068  1.00  0.00    -0.235 NA
HETATM   11  C   UNL     1      44.050 -10.593  10.121  1.00  0.00     0.173 C 
HETATM   12  S   UNL     1      41.069  -8.258   9.140  1.00  0.00    -0.074 SA
HETATM   13  C   UNL     1      41.906 -10.123  12.593  1.00  0.00     0.068 C 
HETATM   14  C   UNL     1      40.562  -9.891  13.308  1.00  0.00     0.240 C 
HETATM   15  H   UNL     1      42.808  -8.995   6.983  1.00  0.00     0.162 HD
ENDROOT
BRANCH   9  16
HETATM   16  C   UNL     1      43.546 -11.497   6.947  1.00  0.00    -0.012 A 
HETATM   17  C   UNL     1      42.310 -11.329   6.290  1.00  0.00     0.050 A 
HETATM   18  C   UNL     1      41.780 -12.340   5.486  1.00  0.00     0.102 A 
HETATM   19  C   UNL     1      42.521 -13.509   5.290  1.00  0.00     0.112 A 
HETATM   20  C   UNL     1      43.727 -13.718   5.955  1.00  0.00     0.041 A 
HETATM   21  C   UNL     1      44.236 -12.713   6.780  1.00  0.00     0.014 A 
BRANCH  18  22
HETATM   22  O   UNL     1      40.588 -12.236   4.821  1.00  0.00    -0.353 OA
HETATM   23  C   UNL     1      39.428 -12.336   5.640  1.00  0.00     0.210 C 
ENDBRANCH  18  22
BRANCH  19  24
HETATM   24  O   UNL     1      41.974 -14.503   4.468  1.00  0.00    -0.272 OA
BRANCH  24  25
HETATM   25  C   UNL     1      41.755 -15.701   5.113  1.00  0.00     0.300 C 
HETATM   26  O   UNL     1      41.058 -15.944   6.084  1.00  0.00    -0.259 OA
BRANCH  25  27
HETATM   27  C   UNL     1      42.531 -16.715   4.391  1.00  0.00     0.061 A 
HETATM   28  C   UNL     1      43.547 -17.423   5.038  1.00  0.00     0.050 A 
HETATM   29 CL   UNL     1      43.946 -17.161   6.697  1.00  0.00    -0.083 Cl
HETATM   30  C   UNL     1      44.271 -18.384   4.329  1.00  0.00     0.025 A 
HETATM   31  C   UNL     1      43.977 -18.635   2.986  1.00  0.00     0.002 A 
HETATM   32  C   UNL     1      42.955 -17.930   2.348  1.00  0.00     0.001 A 
HETATM   33  C   UNL     1      42.226 -16.968   3.048  1.00  0.00     0.019 A 
ENDBRANCH  25  27
ENDBRANCH  24  25
ENDBRANCH  19  24
ENDBRANCH   9  16
BRANCH  11  34
HETATM   34  O   UNL     1      44.495 -11.057  11.302  1.00  0.00    -0.344 OA
HETATM   35  H   UNL     1      44.608 -10.280  11.879  1.00  0.00     0.219 HD
ENDBRANCH  11  34
BRANCH   1  36
HETATM   36  C   UNL     1      40.881  -7.363  13.680  1.00  0.00     0.231 C 
HETATM   37  C   UNL     1      41.140  -7.597  15.156  1.00  0.00     0.034 C 
ENDBRANCH   1  36
TORSDOF 7
ENDMDL
MODEL 2
REMARK VINA RESULT:      -8.8      3.772      9.342
REMARK  7 active torsions:
REMARK  status: ('A' for Active; 'I' for Inactive)
REMARK    1  A    between atoms: C_2  and  N_3 
REMARK    2  A    between atoms: C_11  and  C_12 
REMARK    3  A    between atoms: C_14  and  O_15 
REMARK    4  A    between atoms: C_17  and  O_18 
REMARK    5  A    between atoms: O_18  and  C_19 
REMARK    6  A    between atoms: C_19  and  C_20 
REMARK    7  A    between atoms: C_31  and  O_32 
ROOT
HETATM    1  N   UNL     1      43.724 -17.840   2.606  1.00  0.00    -0.067 N 
HETATM    2  H   UNL     1      44.585 -18.117   2.120  1.00  0.00     0.280 HD
HETATM    3  C   UNL     1      43.352 -16.469   2.032  1.00  0.00     0.281 C 
HETATM    4  C   UNL     1      42.400 -15.757   2.928  1.00  0.00     0.018 A 
HETATM    5  C   UNL     1      42.160 -16.078   4.256  1.00  0.00    -0.024 A 
HETATM    6  C   UNL     1      41.174 -15.209   4.821  1.00  0.00     0.057 A 
HETATM    7  C   UNL     1      40.763 -14.257   3.922  1.00  0.00     0.087 A 
HETATM    8  N   UNL     1      39.854 -13.316   4.239  1.00  0.00    -0.357 N 
HETATM    9  C   UNL     1      39.612 -13.080   5.660  1.00  0.00     0.243 C 
HETATM   10  N   UNL     1      39.824 -14.226   6.570  1.00  0.00    -0.235 NA
HETATM   11  C   UNL     1      40.571 -15.169   6.126  1.00  0.00     0.173 C 
HETATM   12  S   UNL     1      41.501 -14.411   2.403  1.00  0.00    -0.074 SA
HETATM   13  C   UNL     1      42.868 -17.219   4.923  1.00  0.00     0.068 C 
HETATM   14  C   UNL     1      44.068 -17.705   4.090  1.00  0.00     0.240 C 
HETATM   15  H   UNL     1      39.764 -12.497   3.645  1.00  0.00     0.162 HD
ENDROOT
BRANCH   9  16
HETATM   16  C   UNL     1      40.395 -11.836   6.089  1.00  0.00    -0.012 A 
HETATM   17  C   UNL     1      41.802 -11.784   6.021  1.00  0.00     0.050 A 
HETATM   18  C   UNL     1      42.497 -10.624   6.368  1.00  0.00     0.102 A 
HETATM   19  C   UNL     1      41.775  -9.484   6.731  1.00  0.00     0.112 A 
HETATM   20  C   UNL     1      40.386  -9.516   6.843  1.00  0.00     0.041 A 
HETATM   21  C   UNL     1      39.701 -10.689   6.522  1.00  0.00     0.014 A 
BRANCH  18  22
HETATM   22  O   UNL     1      43.861 -10.511   6.320  1.00  0.00    -0.353 OA
HETATM   23  C   UNL     1      44.577 -11.601   6.891  1.00  0.00     0.210 C 
ENDBRANCH  18  22
BRANCH  19  24
HETATM   24  O   UNL     1      42.493  -8.328   7.062  1.00  0.00    -0.272 OA
BRANCH  24  25
HETATM   25  C   UNL     1      42.294  -7.898   8.357  1.00  0.00     0.300 C 
HETATM   26  O   UNL     1      41.529  -7.050   8.784  1.00  0.00    -0.259 OA
BRANCH  25  27
HETATM   27  C   UNL     1      43.196  -8.684   9.204  1.00  0.00     0.061 A 
HETATM   28  C   UNL     1      42.685  -9.526  10.195  1.00  0.00     0.050 A 
HETATM   29 CL   UNL     1      40.992  -9.695  10.482  1.00  0.00    -0.083 Cl
HETATM   30  C   UNL     1      43.566 -10.265  10.987  1.00  0.00     0.025 A 
HETATM   31  C   UNL     1      44.945 -10.165  10.785  1.00  0.00     0.002 A 
HETATM   32  C   UNL     1      45.449  -9.330   9.787  1.00  0.00     0.001 A 
HETATM   33  C   UNL     1      44.577  -8.588   8.990  1.00  0.00     0.019 A 
ENDBRANCH  25  27
ENDBRANCH  24  25
ENDBRANCH  19  24
ENDBRANCH   9  16
BRANCH  11  34
HETATM   34  O   UNL     1      40.824 -16.213   6.936  1.00  0.00    -0.344 OA
HETATM   35  H   UNL     1      40.037 -16.323   7.499  1.00  0.00     0.219 HD
ENDBRANCH  11  34
BRANCH   1  36
HETATM   36  C   UNL     1      42.681 -18.887   2.271  1.00  0.00     0.231 C 
HETATM   37  C   UNL     1      43.331 -20.205   1.896  1.00  0.00     0.034 C 
ENDBRANCH   1  36
TORSDOF 7
ENDMDL
MODEL 3
REMARK VINA RESULT:      -8.7      1.796      2.294
REMARK  7 active torsions:
REMARK  status: ('A' for Active; 'I' for Inactive)
REMARK    1  A    between atoms: C_2  and  N_3 
REMARK    2  A    between atoms: C_11  and  C_12 
REMARK    3  A    between atoms: C_14  and  O_15 
REMARK    4  A    between atoms: C_17  and  O_18 
REMARK    5  A    between atoms: O_18  and  C_19 
REMARK    6  A    between atoms: C_19  and  C_20 
REMARK    7  A    between atoms: C_31  and  O_32 
ROOT
HETATM    1  N   UNL     1      41.219  -8.232  13.076  1.00  0.00    -0.067 N 
HETATM    2  H   UNL     1      40.434  -8.166  13.734  1.00  0.00     0.280 HD
HETATM    3  C   UNL     1      40.584  -8.238  11.682  1.00  0.00     0.281 C 
HETATM    4  C   UNL     1      41.537  -8.763  10.664  1.00  0.00     0.018 A 
HETATM    5  C   UNL     1      42.681  -9.495  10.944  1.00  0.00    -0.024 A 
HETATM    6  C   UNL     1      43.382  -9.826   9.742  1.00  0.00     0.057 A 
HETATM    7  C   UNL     1      42.715  -9.381   8.629  1.00  0.00     0.087 A 
HETATM    8  N   UNL     1      43.176  -9.597   7.382  1.00  0.00    -0.357 N 
HETATM    9  C   UNL     1      44.178 -10.648   7.219  1.00  0.00     0.243 C 
HETATM   10  N   UNL     1      45.056 -10.917   8.379  1.00  0.00    -0.235 NA
HETATM   11  C   UNL     1      44.620 -10.525   9.519  1.00  0.00     0.173 C 
HETATM   12  S   UNL     1      41.292  -8.537   8.996  1.00  0.00    -0.074 SA
HETATM   13  C   UNL     1      43.070  -9.827  12.354  1.00  0.00     0.068 C 
HETATM   14  C   UNL     1      41.912  -9.572  13.336  1.00  0.00     0.240 C 
HETATM   15  H   UNL     1      42.546  -9.477   6.595  1.00  0.00     0.162 HD
ENDROOT
BRANCH   9  16
HETATM   16  C   UNL     1      43.482 -11.910   6.703  1.00  0.00    -0.012 A 
HETATM   17  C   UNL     1      42.218 -11.859   6.081  1.00  0.00     0.050 A 
HETATM   18  C   UNL     1      41.620 -13.013   5.570  1.00  0.00     0.102 A 
HETATM   19  C   UNL     1      42.319 -14.222   5.631  1.00  0.00     0.112 A 
HETATM   20  C   UNL     1      43.553 -14.311   6.272  1.00  0.00     0.041 A 
HETATM   21  C   UNL     1      44.130 -13.157   6.805  1.00  0.00     0.014 A 
BRANCH  18  22
HETATM   22  O   UNL     1      40.398 -13.027   4.954  1.00  0.00    -0.353 OA
HETATM   23  C   UNL     1      39.546 -11.932   5.275  1.00  0.00     0.210 C 
ENDBRANCH  18  22
BRANCH  19  24
HETATM   24  O   UNL     1      41.704 -15.364   5.100  1.00  0.00    -0.272 OA
BRANCH  24  25
HETATM   25  C   UNL     1      42.386 -15.924   4.041  1.00  0.00     0.300 C 
HETATM   26  O   UNL     1      43.388 -16.619   4.043  1.00  0.00    -0.259 OA
BRANCH  25  27
HETATM   27  C   UNL     1      41.661 -15.539   2.826  1.00  0.00     0.061 A 
HETATM   28  C   UNL     1      42.109 -14.474   2.040  1.00  0.00     0.050 A 
HETATM   29 CL   UNL     1      43.517 -13.559   2.438  1.00  0.00    -0.083 Cl
HETATM   30  C   UNL     1      41.401 -14.128   0.887  1.00  0.00     0.025 A 
HETATM   31  C   UNL     1      40.259 -14.846   0.522  1.00  0.00     0.002 A 
HETATM   32  C   UNL     1      39.822 -15.915   1.306  1.00  0.00     0.001 A 
HETATM   33  C   UNL     1      40.522 -16.268   2.460  1.00  0.00     0.019 A 
ENDBRANCH  25  27
ENDBRANCH  24  25
ENDBRANCH  19  24
ENDBRANCH   9  16
BRANCH  11  34
HETATM   34  O   UNL     1      45.366 -10.785  10.607  1.00  0.00    -0.344 OA
HETATM   35  H   UNL     1      44.863 -10.452  11.372  1.00  0.00     0.219 HD
ENDBRANCH  11  34
BRANCH   1  36
HETATM   36  C   UNL     1      42.076  -7.002  13.294  1.00  0.00     0.231 C 
HETATM   37  C   UNL     1      42.792  -7.066  14.630  1.00  0.00     0.034 C 
ENDBRANCH   1  36
TORSDOF 7
ENDMDL
MODEL 4
REMARK VINA RESULT:      -8.7      3.653      9.526
REMARK  7 active torsions:
REMARK  status: ('A' for Active; 'I' for Inactive)
REMARK    1  A    between atoms: C_2  and  N_3 
REMARK    2  A    between atoms: C_11  and  C_12 
REMARK    3  A    between atoms: C_14  and  O_15 
REMARK    4  A    between atoms: C_17  and  O_18 
REMARK    5  A    between atoms: O_18  and  C_19 
REMARK    6  A    between atoms: C_19  and  C_20 
REMARK    7  A    between atoms: C_31  and  O_32 
ROOT
HETATM    1  N   UNL     1      39.942 -15.122   3.409  1.00  0.00    -0.067 N 
HETATM    2  H   UNL     1      39.004 -15.541   3.417  1.00  0.00     0.280 HD
HETATM    3  C   UNL     1      40.524 -15.394   4.800  1.00  0.00     0.281 C 
HETATM    4  C   UNL     1      41.671 -14.488   5.084  1.00  0.00     0.018 A 
HETATM    5  C   UNL     1      41.956 -13.320   4.393  1.00  0.00    -0.024 A 
HETATM    6  C   UNL     1      43.137 -12.698   4.907  1.00  0.00     0.057 A 
HETATM    7  C   UNL     1      43.648 -13.389   5.977  1.00  0.00     0.087 A 
HETATM    8  N   UNL     1      44.748 -12.979   6.637  1.00  0.00    -0.357 N 
HETATM    9  C   UNL     1      45.152 -11.587   6.451  1.00  0.00     0.243 C 
HETATM   10  N   UNL     1      44.799 -10.959   5.159  1.00  0.00    -0.235 NA
HETATM   11  C   UNL     1      43.847 -11.514   4.503  1.00  0.00     0.173 C 
HETATM   12  S   UNL     1      42.767 -14.788   6.350  1.00  0.00    -0.074 SA
HETATM   13  C   UNL     1      41.098 -12.858   3.253  1.00  0.00     0.068 C 
HETATM   14  C   UNL     1      39.759 -13.616   3.209  1.00  0.00     0.240 C 
HETATM   15  H   UNL     1      44.945 -13.365   7.555  1.00  0.00     0.162 HD
ENDROOT
BRANCH   9  16
HETATM   16  C   UNL     1      44.667 -10.772   7.653  1.00  0.00    -0.012 A 
HETATM   17  C   UNL     1      43.318 -10.391   7.796  1.00  0.00     0.050 A 
HETATM   18  C   UNL     1      42.884  -9.692   8.925  1.00  0.00     0.102 A 
HETATM   19  C   UNL     1      43.797  -9.422   9.948  1.00  0.00     0.112 A 
HETATM   20  C   UNL     1      45.144  -9.753   9.818  1.00  0.00     0.041 A 
HETATM   21  C   UNL     1      45.575 -10.427   8.674  1.00  0.00     0.014 A 
BRANCH  18  22
HETATM   22  O   UNL     1      41.588  -9.297   9.122  1.00  0.00    -0.353 OA
HETATM   23  C   UNL     1      40.771  -9.301   7.956  1.00  0.00     0.210 C 
ENDBRANCH  18  22
BRANCH  19  24
HETATM   24  O   UNL     1      43.335  -8.731  11.075  1.00  0.00    -0.272 OA
BRANCH  24  25
HETATM   25  C   UNL     1      43.102  -9.538  12.168  1.00  0.00     0.300 C 
HETATM   26  O   UNL     1      43.287 -10.736  12.302  1.00  0.00    -0.259 OA
BRANCH  25  27
HETATM   27  C   UNL     1      42.572  -8.670  13.225  1.00  0.00     0.061 A 
HETATM   28  C   UNL     1      41.295  -8.887  13.747  1.00  0.00     0.050 A 
HETATM   29 CL   UNL     1      40.275 -10.165  13.195  1.00  0.00    -0.083 Cl
HETATM   30  C   UNL     1      40.814  -8.047  14.754  1.00  0.00     0.025 A 
HETATM   31  C   UNL     1      41.608  -7.004  15.236  1.00  0.00     0.002 A 
HETATM   32  C   UNL     1      42.888  -6.797  14.717  1.00  0.00     0.001 A 
HETATM   33  C   UNL     1      43.376  -7.631  13.711  1.00  0.00     0.019 A 
ENDBRANCH  25  27
ENDBRANCH  24  25
ENDBRANCH  19  24
ENDBRANCH   9  16
BRANCH  11  34
HETATM   34  O   UNL     1      43.465 -10.952   3.343  1.00  0.00    -0.344 OA
HETATM   35  H   UNL     1      42.522 -11.171   3.228  1.00  0.00     0.219 HD
ENDBRANCH  11  34
BRANCH   1  36
HETATM   36  C   UNL     1      40.727 -15.834   2.327  1.00  0.00     0.231 C 
HETATM   37  C   UNL     1      40.119 -15.585   0.959  1.00  0.00     0.034 C 
ENDBRANCH   1  36
TORSDOF 7
ENDMDL
MODEL 5
REMARK VINA RESULT:      -8.6      3.795      9.492
REMARK  7 active torsions:
REMARK  status: ('A' for Active; 'I' for Inactive)
REMARK    1  A    between atoms: C_2  and  N_3 
REMARK    2  A    between atoms: C_11  and  C_12 
REMARK    3  A    between atoms: C_14  and  O_15 
REMARK    4  A    between atoms: C_17  and  O_18 
REMARK    5  A    between atoms: O_18  and  C_19 
REMARK    6  A    between atoms: C_19  and  C_20 
REMARK    7  A    between atoms: C_31  and  O_32 
ROOT
HETATM    1  N   UNL     1      43.798 -17.838   2.727  1.00  0.00    -0.067 N 
HETATM    2  H   UNL     1      44.672 -18.157   2.292  1.00  0.00     0.280 HD
HETATM    3  C   UNL     1      43.543 -16.440   2.155  1.00  0.00     0.281 C 
HETATM    4  C   UNL     1      42.576 -15.687   3.001  1.00  0.00     0.018 A 
HETATM    5  C   UNL     1      42.233 -16.012   4.305  1.00  0.00    -0.024 A 
HETATM    6  C   UNL     1      41.264 -15.096   4.822  1.00  0.00     0.057 A 
HETATM    7  C   UNL     1      40.966 -14.110   3.916  1.00  0.00     0.087 A 
HETATM    8  N   UNL     1      40.093 -13.123   4.191  1.00  0.00    -0.357 N 
HETATM    9  C   UNL     1      39.774 -12.893   5.598  1.00  0.00     0.243 C 
HETATM   10  N   UNL     1      39.861 -14.063   6.499  1.00  0.00    -0.235 NA
HETATM   11  C   UNL     1      40.580 -15.041   6.086  1.00  0.00     0.173 C 
HETATM   12  S   UNL     1      41.790 -14.285   2.444  1.00  0.00    -0.074 SA
HETATM   13  C   UNL     1      42.831 -17.202   4.996  1.00  0.00     0.068 C 
HETATM   14  C   UNL     1      44.053 -17.745   4.232  1.00  0.00     0.240 C 
HETATM   15  H   UNL     1      40.087 -12.292   3.607  1.00  0.00     0.162 HD
ENDROOT
BRANCH   9  16
HETATM   16  C   UNL     1      40.596 -11.702   6.097  1.00  0.00    -0.012 A 
HETATM   17  C   UNL     1      40.062 -10.755   6.993  1.00  0.00     0.050 A 
HETATM   18  C   UNL     1      40.842  -9.703   7.478  1.00  0.00     0.102 A 
HETATM   19  C   UNL     1      42.188  -9.631   7.108  1.00  0.00     0.112 A 
HETATM   20  C   UNL     1      42.734 -10.531   6.195  1.00  0.00     0.041 A 
HETATM   21  C   UNL     1      41.939 -11.563   5.694  1.00  0.00     0.014 A 
BRANCH  18  22
HETATM   22  O   UNL     1      40.381  -8.755   8.351  1.00  0.00    -0.353 OA
HETATM   23  C   UNL     1      39.915  -9.257   9.599  1.00  0.00     0.210 C 
ENDBRANCH  18  22
BRANCH  19  24
HETATM   24  O   UNL     1      42.953  -8.574   7.618  1.00  0.00    -0.272 OA
BRANCH  24  25
HETATM   25  C   UNL     1      44.067  -8.981   8.322  1.00  0.00     0.300 C 
HETATM   26  O   UNL     1      45.190  -9.234   7.919  1.00  0.00    -0.259 OA
BRANCH  25  27
HETATM   27  C   UNL     1      43.669  -9.053   9.731  1.00  0.00     0.061 A 
HETATM   28  C   UNL     1      43.282  -7.900  10.418  1.00  0.00     0.050 A 
HETATM   29 CL   UNL     1      43.245  -6.345   9.670  1.00  0.00    -0.083 Cl
HETATM   30  C   UNL     1      42.906  -7.995  11.760  1.00  0.00     0.025 A 
HETATM   31  C   UNL     1      42.914  -9.235  12.405  1.00  0.00     0.002 A 
HETATM   32  C   UNL     1      43.292 -10.385  11.710  1.00  0.00     0.001 A 
HETATM   33  C   UNL     1      43.670 -10.299  10.370  1.00  0.00     0.019 A 
ENDBRANCH  25  27
ENDBRANCH  24  25
ENDBRANCH  19  24
ENDBRANCH   9  16
BRANCH  11  34
HETATM   34  O   UNL     1      40.721 -16.108   6.892  1.00  0.00    -0.344 OA
HETATM   35  H   UNL     1      40.913 -15.760   7.781  1.00  0.00     0.219 HD
ENDBRANCH  11  34
BRANCH   1  36
HETATM   36  C   UNL     1      42.722 -18.818   2.308  1.00  0.00     0.231 C 
HETATM   37  C   UNL     1      43.302 -20.201   2.075  1.00  0.00     0.034 C 
ENDBRANCH   1  36
TORSDOF 7
ENDMDL
MODEL 6
REMARK VINA RESULT:      -8.5      3.212      9.637
REMARK  7 active torsions:
REMARK  status: ('A' for Active; 'I' for Inactive)
REMARK    1  A    between atoms: C_2  and  N_3 
REMARK    2  A    between atoms: C_11  and  C_12 
REMARK    3  A    between atoms: C_14  and  O_15 
REMARK    4  A    between atoms: C_17  and  O_18 
REMARK    5  A    between atoms: O_18  and  C_19 
REMARK    6  A    between atoms: C_19  and  C_20 
REMARK    7  A    between atoms: C_31  and  O_32 
ROOT
HETATM    1  N   UNL     1      42.376 -16.462   4.426  1.00  0.00    -0.067 N 
HETATM    2  H   UNL     1      42.959 -17.299   4.542  1.00  0.00     0.280 HD
HETATM    3  C   UNL     1      43.352 -15.281   4.432  1.00  0.00     0.281 C 
HETATM    4  C   UNL     1      42.640 -14.003   4.712  1.00  0.00     0.018 A 
HETATM    5  C   UNL     1      41.370 -13.900   5.261  1.00  0.00    -0.024 A 
HETATM    6  C   UNL     1      40.975 -12.530   5.380  1.00  0.00     0.057 A 
HETATM    7  C   UNL     1      41.970 -11.679   4.969  1.00  0.00     0.087 A 
HETATM    8  N   UNL     1      41.832 -10.340   5.010  1.00  0.00    -0.357 N 
HETATM    9  C   UNL     1      40.771  -9.810   5.863  1.00  0.00     0.243 C 
HETATM   10  N   UNL     1      39.588 -10.673   6.068  1.00  0.00    -0.235 NA
HETATM   11  C   UNL     1      39.756 -11.923   5.843  1.00  0.00     0.173 C 
HETATM   12  S   UNL     1      43.349 -12.488   4.404  1.00  0.00    -0.074 SA
HETATM   13  C   UNL     1      40.577 -15.118   5.630  1.00  0.00     0.068 C 
HETATM   14  C   UNL     1      41.457 -16.382   5.647  1.00  0.00     0.240 C 
HETATM   15  H   UNL     1      42.659  -9.756   4.938  1.00  0.00     0.162 HD
ENDROOT
BRANCH   9  16
HETATM   16  C   UNL     1      41.394  -9.341   7.181  1.00  0.00    -0.012 A 
HETATM   17  C   UNL     1      42.698  -8.809   7.238  1.00  0.00     0.050 A 
HETATM   18  C   UNL     1      43.231  -8.339   8.441  1.00  0.00     0.102 A 
HETATM   19  C   UNL     1      42.431  -8.348   9.587  1.00  0.00     0.112 A 
HETATM   20  C   UNL     1      41.152  -8.902   9.569  1.00  0.00     0.041 A 
HETATM   21  C   UNL     1      40.638  -9.395   8.369  1.00  0.00     0.014 A 
BRANCH  18  22
HETATM   22  O   UNL     1      44.488  -7.810   8.559  1.00  0.00    -0.353 OA
HETATM   23  C   UNL     1      45.551  -8.754   8.483  1.00  0.00     0.210 C 
ENDBRANCH  18  22
BRANCH  19  24
HETATM   24  O   UNL     1      42.984  -7.860  10.777  1.00  0.00    -0.272 OA
BRANCH  24  25
HETATM   25  C   UNL     1      43.304  -8.844  11.689  1.00  0.00     0.300 C 
HETATM   26  O   UNL     1      43.920  -9.884  11.524  1.00  0.00    -0.259 OA
BRANCH  25  27
HETATM   27  C   UNL     1      42.766  -8.409  12.982  1.00  0.00     0.061 A 
HETATM   28  C   UNL     1      41.652  -9.046  13.536  1.00  0.00     0.050 A 
HETATM   29 CL   UNL     1      40.854 -10.361  12.754  1.00  0.00    -0.083 Cl
HETATM   30  C   UNL     1      41.160  -8.614  14.769  1.00  0.00     0.025 A 
HETATM   31  C   UNL     1      41.779  -7.558  15.442  1.00  0.00     0.002 A 
HETATM   32  C   UNL     1      42.897  -6.932  14.887  1.00  0.00     0.001 A 
HETATM   33  C   UNL     1      43.396  -7.356  13.656  1.00  0.00     0.019 A 
ENDBRANCH  25  27
ENDBRANCH  24  25
ENDBRANCH  19  24
ENDBRANCH   9  16
BRANCH  11  34
HETATM   34  O   UNL     1      38.718 -12.752   6.056  1.00  0.00    -0.344 OA
HETATM   35  H   UNL     1      38.242 -12.404   6.832  1.00  0.00     0.219 HD
ENDBRANCH  11  34
BRANCH   1  36
HETATM   36  C   UNL     1      41.676 -16.600   3.090  1.00  0.00     0.231 C 
HETATM   37  C   UNL     1      42.663 -16.503   1.943  1.00  0.00     0.034 C 
ENDBRANCH   1  36
TORSDOF 7
ENDMDL
MODEL 7
REMARK VINA RESULT:      -8.3      6.905     10.385
REMARK  7 active torsions:
REMARK  status: ('A' for Active; 'I' for Inactive)
REMARK    1  A    between atoms: C_2  and  N_3 
REMARK    2  A    between atoms: C_11  and  C_12 
REMARK    3  A    between atoms: C_14  and  O_15 
REMARK    4  A    between atoms: C_17  and  O_18 
REMARK    5  A    between atoms: O_18  and  C_19 
REMARK    6  A    between atoms: C_19  and  C_20 
REMARK    7  A    between atoms: C_31  and  O_32 
ROOT
HETATM    1  N   UNL     1      39.660  -7.906  -3.560  1.00  0.00    -0.067 N 
HETATM    2  H   UNL     1      39.754  -6.892  -3.429  1.00  0.00     0.280 HD
HETATM    3  C   UNL     1      38.754  -8.384  -2.420  1.00  0.00     0.281 C 
HETATM    4  C   UNL     1      38.881  -9.854  -2.220  1.00  0.00     0.018 A 
HETATM    5  C   UNL     1      39.916 -10.640  -2.703  1.00  0.00    -0.024 A 
HETATM    6  C   UNL     1      39.723 -12.013  -2.349  1.00  0.00     0.057 A 
HETATM    7  C   UNL     1      38.597 -12.185  -1.586  1.00  0.00     0.087 A 
HETATM    8  N   UNL     1      38.224 -13.391  -1.118  1.00  0.00    -0.357 N 
HETATM    9  C   UNL     1      39.242 -14.438  -1.100  1.00  0.00     0.243 C 
HETATM   10  N   UNL     1      40.306 -14.349  -2.123  1.00  0.00    -0.235 NA
HETATM   11  C   UNL     1      40.488 -13.194  -2.649  1.00  0.00     0.173 C 
HETATM   12  S   UNL     1      37.743 -10.744  -1.320  1.00  0.00    -0.074 SA
HETATM   13  C   UNL     1      41.038 -10.048  -3.502  1.00  0.00     0.068 C 
HETATM   14  C   UNL     1      41.056  -8.512  -3.401  1.00  0.00     0.240 C 
HETATM   15  H   UNL     1      37.543 -13.441  -0.367  1.00  0.00     0.162 HD
ENDROOT
BRANCH   9  16
HETATM   16  C   UNL     1      39.800 -14.553   0.321  1.00  0.00    -0.012 A 
HETATM   17  C   UNL     1      39.930 -13.429   1.160  1.00  0.00     0.050 A 
HETATM   18  C   UNL     1      40.393 -13.559   2.471  1.00  0.00     0.102 A 
HETATM   19  C   UNL     1      40.675 -14.835   2.967  1.00  0.00     0.112 A 
HETATM   20  C   UNL     1      40.591 -15.961   2.150  1.00  0.00     0.041 A 
HETATM   21  C   UNL     1      40.154 -15.817   0.832  1.00  0.00     0.014 A 
BRANCH  18  22
HETATM   22  O   UNL     1      40.538 -12.506   3.334  1.00  0.00    -0.353 OA
HETATM   23  C   UNL     1      39.323 -11.984   3.862  1.00  0.00     0.210 C 
ENDBRANCH  18  22
BRANCH  19  24
HETATM   24  O   UNL     1      41.125 -14.941   4.289  1.00  0.00    -0.272 OA
BRANCH  24  25
HETATM   25  C   UNL     1      42.495 -14.854   4.421  1.00  0.00     0.300 C 
HETATM   26  O   UNL     1      43.226 -13.885   4.306  1.00  0.00    -0.259 OA
BRANCH  25  27
HETATM   27  C   UNL     1      42.970 -16.200   4.758  1.00  0.00     0.061 A 
HETATM   28  C   UNL     1      42.845 -16.690   6.060  1.00  0.00     0.050 A 
HETATM   29 CL   UNL     1      42.137 -15.765   7.333  1.00  0.00    -0.083 Cl
HETATM   30  C   UNL     1      43.304 -17.976   6.355  1.00  0.00     0.025 A 
HETATM   31  C   UNL     1      43.878 -18.763   5.354  1.00  0.00     0.002 A 
HETATM   32  C   UNL     1      43.991 -18.272   4.052  1.00  0.00     0.001 A 
HETATM   33  C   UNL     1      43.536 -16.989   3.748  1.00  0.00     0.019 A 
ENDBRANCH  25  27
ENDBRANCH  24  25
ENDBRANCH  19  24
ENDBRANCH   9  16
BRANCH  11  34
HETATM   34  O   UNL     1      41.473 -13.056  -3.555  1.00  0.00    -0.344 OA
HETATM   35  H   UNL     1      41.360 -13.780  -4.197  1.00  0.00     0.219 HD
ENDBRANCH  11  34
BRANCH   1  36
HETATM   36  C   UNL     1      39.011  -8.111  -4.913  1.00  0.00     0.231 C 
HETATM   37  C   UNL     1      37.588  -7.584  -4.921  1.00  0.00     0.034 C 
ENDBRANCH   1  36
TORSDOF 7
ENDMDL
MODEL 8
REMARK VINA RESULT:      -8.2      2.337      3.070
REMARK  7 active torsions:
REMARK  status: ('A' for Active; 'I' for Inactive)
REMARK    1  A    between atoms: C_2  and  N_3 
REMARK    2  A    between atoms: C_11  and  C_12 
REMARK    3  A    between atoms: C_14  and  O_15 
REMARK    4  A    between atoms: C_17  and  O_18 
REMARK    5  A    between atoms: O_18  and  C_19 
REMARK    6  A    between atoms: C_19  and  C_20 
REMARK    7  A    between atoms: C_31  and  O_32 
ROOT
HETATM    1  N   UNL     1      39.729  -7.842  12.331  1.00  0.00    -0.067 N 
HETATM    2  H   UNL     1      38.757  -7.623  12.580  1.00  0.00     0.280 HD
HETATM    3  C   UNL     1      39.842  -7.553  10.831  1.00  0.00     0.281 C 
HETATM    4  C   UNL     1      41.037  -8.225  10.248  1.00  0.00     0.018 A 
HETATM    5  C   UNL     1      41.742  -9.260  10.844  1.00  0.00    -0.024 A 
HETATM    6  C   UNL     1      42.846  -9.662  10.028  1.00  0.00     0.057 A 
HETATM    7  C   UNL     1      42.889  -8.957   8.852  1.00  0.00     0.087 A 
HETATM    8  N   UNL     1      43.832  -9.180   7.917  1.00  0.00    -0.357 N 
HETATM    9  C   UNL     1      44.560 -10.444   7.997  1.00  0.00     0.243 C 
HETATM   10  N   UNL     1      44.711 -11.040   9.342  1.00  0.00    -0.235 NA
HETATM   11  C   UNL     1      43.875 -10.647  10.231  1.00  0.00     0.173 C 
HETATM   12  S   UNL     1      41.661  -7.795   8.725  1.00  0.00    -0.074 SA
HETATM   13  C   UNL     1      41.343  -9.807  12.182  1.00  0.00     0.068 C 
HETATM   14  C   UNL     1      39.935  -9.336  12.589  1.00  0.00     0.240 C 
HETATM   15  H   UNL     1      43.687  -8.825   6.976  1.00  0.00     0.162 HD
ENDROOT
BRANCH   9  16
HETATM   16  C   UNL     1      43.956 -11.420   6.984  1.00  0.00    -0.012 A 
HETATM   17  C   UNL     1      43.938 -12.811   7.214  1.00  0.00     0.050 A 
HETATM   18  C   UNL     1      43.337 -13.683   6.303  1.00  0.00     0.102 A 
HETATM   19  C   UNL     1      42.698 -13.154   5.179  1.00  0.00     0.112 A 
HETATM   20  C   UNL     1      42.732 -11.788   4.906  1.00  0.00     0.041 A 
HETATM   21  C   UNL     1      43.359 -10.926   5.808  1.00  0.00     0.014 A 
BRANCH  18  22
HETATM   22  O   UNL     1      43.285 -15.040   6.472  1.00  0.00    -0.353 OA
HETATM   23  C   UNL     1      42.976 -15.474   7.793  1.00  0.00     0.210 C 
ENDBRANCH  18  22
BRANCH  19  24
HETATM   24  O   UNL     1      42.092 -14.047   4.286  1.00  0.00    -0.272 OA
BRANCH  24  25
HETATM   25  C   UNL     1      40.749 -13.809   4.084  1.00  0.00     0.300 C 
HETATM   26  O   UNL     1      39.917 -13.355   4.850  1.00  0.00    -0.259 OA
BRANCH  25  27
HETATM   27  C   UNL     1      40.459 -14.200   2.700  1.00  0.00     0.061 A 
HETATM   28  C   UNL     1      40.500 -13.255   1.673  1.00  0.00     0.050 A 
HETATM   29 CL   UNL     1      40.888 -11.597   1.955  1.00  0.00    -0.083 Cl
HETATM   30  C   UNL     1      40.220 -13.653   0.364  1.00  0.00     0.025 A 
HETATM   31  C   UNL     1      39.907 -14.986   0.087  1.00  0.00     0.002 A 
HETATM   32  C   UNL     1      39.877 -15.929   1.117  1.00  0.00     0.001 A 
HETATM   33  C   UNL     1      40.155 -15.540   2.428  1.00  0.00     0.019 A 
ENDBRANCH  25  27
ENDBRANCH  24  25
ENDBRANCH  19  24
ENDBRANCH   9  16
BRANCH  11  34
HETATM   34  O   UNL     1      43.949 -11.193  11.457  1.00  0.00    -0.344 OA
HETATM   35  H   UNL     1      44.499 -10.594  11.994  1.00  0.00     0.219 HD
ENDBRANCH  11  34
BRANCH   1  36
HETATM   36  C   UNL     1      40.605  -6.913  13.146  1.00  0.00     0.231 C 
HETATM   37  C   UNL     1      40.070  -6.756  14.557  1.00  0.00     0.034 C 
ENDBRANCH   1  36
TORSDOF 7
ENDMDL
MODEL 9
REMARK VINA RESULT:      -8.2      1.554      2.056
REMARK  7 active torsions:
REMARK  status: ('A' for Active; 'I' for Inactive)
REMARK    1  A    between atoms: C_2  and  N_3 
REMARK    2  A    between atoms: C_11  and  C_12 
REMARK    3  A    between atoms: C_14  and  O_15 
REMARK    4  A    between atoms: C_17  and  O_18 
REMARK    5  A    between atoms: O_18  and  C_19 
REMARK    6  A    between atoms: C_19  and  C_20 
REMARK    7  A    between atoms: C_31  and  O_32 
ROOT
HETATM    1  N   UNL     1      41.358  -9.193  13.520  1.00  0.00    -0.067 N 
HETATM    2  H   UNL     1      41.223  -9.619  14.444  1.00  0.00     0.280 HD
HETATM    3  C   UNL     1      40.235  -9.757  12.643  1.00  0.00     0.281 C 
HETATM    4  C   UNL     1      40.550  -9.583  11.197  1.00  0.00     0.018 A 
HETATM    5  C   UNL     1      41.808  -9.309  10.681  1.00  0.00    -0.024 A 
HETATM    6  C   UNL     1      41.759  -9.184   9.257  1.00  0.00     0.057 A 
HETATM    7  C   UNL     1      40.497  -9.415   8.772  1.00  0.00     0.087 A 
HETATM    8  N   UNL     1      40.215  -9.372   7.456  1.00  0.00    -0.357 N 
HETATM    9  C   UNL     1      41.344  -9.469   6.533  1.00  0.00     0.243 C 
HETATM   10  N   UNL     1      42.645  -8.961   7.018  1.00  0.00    -0.235 NA
HETATM   11  C   UNL     1      42.777  -8.869   8.290  1.00  0.00     0.173 C 
HETATM   12  S   UNL     1      39.362  -9.737   9.989  1.00  0.00    -0.074 SA
HETATM   13  C   UNL     1      43.003  -9.157  11.575  1.00  0.00     0.068 C 
HETATM   14  C   UNL     1      42.714  -9.671  12.998  1.00  0.00     0.240 C 
HETATM   15  H   UNL     1      39.350  -9.786   7.122  1.00  0.00     0.162 HD
ENDROOT
BRANCH   9  16
HETATM   16  C   UNL     1      41.430 -10.908   6.015  1.00  0.00    -0.012 A 
HETATM   17  C   UNL     1      40.474 -11.433   5.123  1.00  0.00     0.050 A 
HETATM   18  C   UNL     1      40.595 -12.731   4.621  1.00  0.00     0.102 A 
HETATM   19  C   UNL     1      41.715 -13.491   4.970  1.00  0.00     0.112 A 
HETATM   20  C   UNL     1      42.657 -13.011   5.878  1.00  0.00     0.041 A 
HETATM   21  C   UNL     1      42.513 -11.724   6.397  1.00  0.00     0.014 A 
BRANCH  18  22
HETATM   22  O   UNL     1      39.702 -13.296   3.751  1.00  0.00    -0.353 OA
HETATM   23  C   UNL     1      39.816 -12.861   2.400  1.00  0.00     0.210 C 
ENDBRANCH  18  22
BRANCH  19  24
HETATM   24  O   UNL     1      41.821 -14.784   4.443  1.00  0.00    -0.272 OA
BRANCH  24  25
HETATM   25  C   UNL     1      42.828 -14.927   3.512  1.00  0.00     0.300 C 
HETATM   26  O   UNL     1      43.387 -14.079   2.837  1.00  0.00    -0.259 OA
BRANCH  25  27
HETATM   27  C   UNL     1      43.156 -16.356   3.466  1.00  0.00     0.061 A 
HETATM   28  C   UNL     1      43.812 -16.968   4.537  1.00  0.00     0.050 A 
HETATM   29 CL   UNL     1      44.269 -16.103   5.958  1.00  0.00    -0.083 Cl
HETATM   30  C   UNL     1      44.112 -18.330   4.468  1.00  0.00     0.025 A 
HETATM   31  C   UNL     1      43.754 -19.072   3.340  1.00  0.00     0.002 A 
HETATM   32  C   UNL     1      43.090 -18.457   2.276  1.00  0.00     0.001 A 
HETATM   33  C   UNL     1      42.787 -17.096   2.336  1.00  0.00     0.019 A 
ENDBRANCH  25  27
ENDBRANCH  24  25
ENDBRANCH  19  24
ENDBRANCH   9  16
BRANCH  11  34
HETATM   34  O   UNL     1      43.958  -8.450   8.777  1.00  0.00    -0.344 OA
HETATM   35  H   UNL     1      44.589  -8.479   8.035  1.00  0.00     0.219 HD
ENDBRANCH  11  34
BRANCH   1  36
HETATM   36  C   UNL     1      41.221  -7.696  13.707  1.00  0.00     0.231 C 
HETATM   37  C   UNL     1      41.584  -7.287  15.122  1.00  0.00     0.034 C 
ENDBRANCH   1  36
TORSDOF 7
ENDMDL
MODEL 10
REMARK VINA RESULT:      -8.1      6.232      9.773
REMARK  7 active torsions:
REMARK  status: ('A' for Active; 'I' for Inactive)
REMARK    1  A    between atoms: C_2  and  N_3 
REMARK    2  A    between atoms: C_11  and  C_12 
REMARK    3  A    between atoms: C_14  and  O_15 
REMARK    4  A    between atoms: C_17  and  O_18 
REMARK    5  A    between atoms: O_18  and  C_19 
REMARK    6  A    between atoms: C_19  and  C_20 
REMARK    7  A    between atoms: C_31  and  O_32 
ROOT
HETATM    1  N   UNL     1      41.573  -8.032  -3.821  1.00  0.00    -0.067 N 
HETATM    2  H   UNL     1      42.348  -7.798  -4.453  1.00  0.00     0.280 HD
HETATM    3  C   UNL     1      42.223  -8.311  -2.462  1.00  0.00     0.281 C 
HETATM    4  C   UNL     1      41.300  -9.075  -1.577  1.00  0.00     0.018 A 
HETATM    5  C   UNL     1      40.179  -9.771  -2.003  1.00  0.00    -0.024 A 
HETATM    6  C   UNL     1      39.504 -10.377  -0.897  1.00  0.00     0.057 A 
HETATM    7  C   UNL     1      40.166 -10.155   0.283  1.00  0.00     0.087 A 
HETATM    8  N   UNL     1      39.726 -10.647   1.456  1.00  0.00    -0.357 N 
HETATM    9  C   UNL     1      38.764 -11.745   1.395  1.00  0.00     0.243 C 
HETATM   10  N   UNL     1      37.884 -11.793   0.207  1.00  0.00    -0.235 NA
HETATM   11  C   UNL     1      38.294 -11.152  -0.825  1.00  0.00     0.173 C 
HETATM   12  S   UNL     1      41.554  -9.199   0.100  1.00  0.00    -0.074 SA
HETATM   13  C   UNL     1      39.787  -9.810  -3.450  1.00  0.00     0.068 C 
HETATM   14  C   UNL     1      40.925  -9.310  -4.359  1.00  0.00     0.240 C 
HETATM   15  H   UNL     1      40.360 -10.675   2.249  1.00  0.00     0.162 HD
ENDROOT
BRANCH   9  16
HETATM   16  C   UNL     1      39.510 -13.062   1.629  1.00  0.00    -0.012 A 
HETATM   17  C   UNL     1      39.788 -13.537   2.926  1.00  0.00     0.050 A 
HETATM   18  C   UNL     1      40.424 -14.765   3.122  1.00  0.00     0.102 A 
HETATM   19  C   UNL     1      40.734 -15.552   2.009  1.00  0.00     0.112 A 
HETATM   20  C   UNL     1      40.505 -15.093   0.714  1.00  0.00     0.041 A 
HETATM   21  C   UNL     1      39.894 -13.852   0.528  1.00  0.00     0.014 A 
BRANCH  18  22
HETATM   22  O   UNL     1      40.719 -15.280   4.355  1.00  0.00    -0.353 OA
HETATM   23  C   UNL     1      40.643 -14.352   5.432  1.00  0.00     0.210 C 
ENDBRANCH  18  22
BRANCH  19  24
HETATM   24  O   UNL     1      41.360 -16.786   2.232  1.00  0.00    -0.272 OA
BRANCH  24  25
HETATM   25  C   UNL     1      42.737 -16.725   2.207  1.00  0.00     0.300 C 
HETATM   26  O   UNL     1      43.468 -15.851   1.772  1.00  0.00    -0.259 OA
BRANCH  25  27
HETATM   27  C   UNL     1      43.223 -17.953   2.844  1.00  0.00     0.061 A 
HETATM   28  C   UNL     1      43.730 -17.924   4.146  1.00  0.00     0.050 A 
HETATM   29 CL   UNL     1      43.817 -16.471   5.073  1.00  0.00    -0.083 Cl
HETATM   30  C   UNL     1      44.185 -19.108   4.731  1.00  0.00     0.025 A 
HETATM   31  C   UNL     1      44.127 -20.309   4.020  1.00  0.00     0.002 A 
HETATM   32  C   UNL     1      43.610 -20.334   2.723  1.00  0.00     0.001 A 
HETATM   33  C   UNL     1      43.153 -19.156   2.131  1.00  0.00     0.019 A 
ENDBRANCH  25  27
ENDBRANCH  24  25
ENDBRANCH  19  24
ENDBRANCH   9  16
BRANCH  11  34
HETATM   34  O   UNL     1      37.546 -11.202  -1.941  1.00  0.00    -0.344 OA
HETATM   35  H   UNL     1      38.079 -11.669  -2.610  1.00  0.00     0.219 HD
ENDBRANCH  11  34
BRANCH   1  36
HETATM   36  C   UNL     1      40.671  -6.816  -3.770  1.00  0.00     0.231 C 
HETATM   37  C   UNL     1      41.279  -5.721  -2.915  1.00  0.00     0.034 C 
ENDBRANCH   1  36
TORSDOF 7
ENDMDL
