MODEL 1
REMARK VINA RESULT:      -7.9      0.000      0.000
REMARK  4 active torsions:
REMARK  status: ('A' for Active; 'I' for Inactive)
REMARK    1  A    between atoms: C_2  and  C_3 
REMARK    2  A    between atoms: C_3  and  C_4 
REMARK    3  A    between atoms: C_4  and  C_5 
REMARK    4  A    between atoms: C_25  and  N_26 
ROOT
HETATM    1  C   UNL     1      43.494 -13.198   6.438  1.00  0.00     0.067 A 
HETATM    2  N   UNL     1      44.565 -12.457   6.768  1.00  0.00    -0.177 NA
HETATM    3  N   UNL     1      44.467 -11.360   5.993  1.00  0.00    -0.256 N 
HETATM    4  H   UNL     1      45.166 -10.631   6.084  1.00  0.00     0.191 HD
HETATM    5  C   UNL     1      43.379 -11.386   5.185  1.00  0.00     0.176 A 
HETATM    6  C   UNL     1      42.736 -12.578   5.410  1.00  0.00     0.049 A 
HETATM    7  C   UNL     1      41.488 -12.885   4.656  1.00  0.00     0.144 A 
HETATM    8  C   UNL     1      40.327 -13.268   5.611  1.00  0.00     0.246 A 
HETATM    9  O   UNL     1      39.777 -12.562   6.442  1.00  0.00    -0.271 OA
HETATM   10  N   UNL     1      39.994 -14.591   5.343  1.00  0.00    -0.325 N 
HETATM   11  C   UNL     1      40.797 -15.127   4.346  1.00  0.00     0.043 A 
HETATM   12  C   UNL     1      41.719 -14.174   3.886  1.00  0.00     0.003 A 
HETATM   13  C   UNL     1      40.730 -16.413   3.853  1.00  0.00     0.030 A 
HETATM   14  C   UNL     1      41.629 -16.758   2.848  1.00  0.00     0.003 A 
HETATM   15  C   UNL     1      42.557 -15.820   2.363  1.00  0.00     0.007 A 
HETATM   16  C   UNL     1      42.613 -14.508   2.866  1.00  0.00    -0.051 A 
HETATM   17  C   UNL     1      43.632 -13.551   2.323  1.00  0.00     0.049 C 
HETATM   18  C   UNL     1      41.065 -11.700   3.796  1.00  0.00     0.081 A 
HETATM   19  C   UNL     1      39.712 -11.796   3.110  1.00  0.00     0.021 C 
HETATM   20  N   UNL     1      38.589 -11.875   2.541  1.00  0.00    -0.096 N 
HETATM   21  C   UNL     1      41.801 -10.562   3.686  1.00  0.00     0.140 A 
HETATM   22  O   UNL     1      43.026 -10.405   4.361  1.00  0.00    -0.279 OA
HETATM   23  H   UNL     1      39.252 -15.078   5.826  1.00  0.00     0.169 HD
ENDROOT
BRANCH  21  24
HETATM   24  N   UNL     1      41.458  -9.456   2.942  1.00  0.00    -0.282 NA
HETATM   25  H   UNL     1      42.205  -9.059   2.377  1.00  0.00     0.126 HD
HETATM   26  H   UNL     1      40.606  -9.609   2.408  1.00  0.00     0.126 HD
ENDBRANCH  21  24
BRANCH   1  27
HETATM   27  C   UNL     1      43.235 -14.475   7.170  1.00  0.00     0.062 C 
BRANCH  27  28
HETATM   28  C   UNL     1      43.878 -15.688   6.496  1.00  0.00     0.006 C 
BRANCH  28  29
HETATM   29  C   UNL     1      43.040 -16.947   6.718  1.00  0.00    -0.004 C 
HETATM   30  C   UNL     1      43.506 -18.091   5.832  1.00  0.00     0.005 C 
ENDBRANCH  28  29
ENDBRANCH  27  28
ENDBRANCH   1  27
TORSDOF 4
ENDMDL
MODEL 2
REMARK VINA RESULT:      -7.8      2.259      3.259
REMARK  4 active torsions:
REMARK  status: ('A' for Active; 'I' for Inactive)
REMARK    1  A    between atoms: C_2  and  C_3 
REMARK    2  A    between atoms: C_3  and  C_4 
REMARK    3  A    between atoms: C_4  and  C_5 
REMARK    4  A    between atoms: C_25  and  N_26 
ROOT
HETATM    1  C   UNL     1      43.645 -16.776   5.262  1.00  0.00     0.067 A 
HETATM    2  N   UNL     1      44.881 -16.815   5.790  1.00  0.00    -0.177 NA
HETATM    3  N   UNL     1      45.049 -15.599   6.343  1.00  0.00    -0.256 N 
HETATM    4  H   UNL     1      45.915 -15.397   6.831  1.00  0.00     0.191 HD
HETATM    5  C   UNL     1      43.969 -14.796   6.179  1.00  0.00     0.176 A 
HETATM    6  C   UNL     1      43.046 -15.503   5.450  1.00  0.00     0.049 A 
HETATM    7  C   UNL     1      41.741 -14.866   5.117  1.00  0.00     0.144 A 
HETATM    8  C   UNL     1      40.547 -15.758   5.548  1.00  0.00     0.246 A 
HETATM    9  O   UNL     1      40.222 -16.077   6.681  1.00  0.00    -0.271 OA
HETATM   10  N   UNL     1      39.875 -16.134   4.390  1.00  0.00    -0.325 N 
HETATM   11  C   UNL     1      40.483 -15.614   3.257  1.00  0.00     0.043 A 
HETATM   12  C   UNL     1      41.608 -14.849   3.604  1.00  0.00     0.003 A 
HETATM   13  C   UNL     1      40.072 -15.804   1.955  1.00  0.00     0.030 A 
HETATM   14  C   UNL     1      40.823 -15.196   0.953  1.00  0.00     0.003 A 
HETATM   15  C   UNL     1      41.948 -14.417   1.273  1.00  0.00     0.007 A 
HETATM   16  C   UNL     1      42.357 -14.222   2.605  1.00  0.00    -0.051 A 
HETATM   17  C   UNL     1      43.573 -13.392   2.891  1.00  0.00     0.049 C 
HETATM   18  C   UNL     1      41.616 -13.499   5.780  1.00  0.00     0.081 A 
HETATM   19  C   UNL     1      40.266 -12.808   5.681  1.00  0.00     0.021 C 
HETATM   20  N   UNL     1      39.145 -12.234   5.600  1.00  0.00    -0.096 N 
HETATM   21  C   UNL     1      42.618 -12.929   6.499  1.00  0.00     0.140 A 
HETATM   22  O   UNL     1      43.861 -13.567   6.673  1.00  0.00    -0.279 OA
HETATM   23  H   UNL     1      39.045 -16.711   4.401  1.00  0.00     0.169 HD
ENDROOT
BRANCH  21  24
HETATM   24  N   UNL     1      42.553 -11.709   7.134  1.00  0.00    -0.282 NA
HETATM   25  H   UNL     1      43.001 -11.665   8.046  1.00  0.00     0.126 HD
HETATM   26  H   UNL     1      42.842 -10.949   6.522  1.00  0.00     0.126 HD
ENDBRANCH  21  24
BRANCH   1  27
HETATM   27  C   UNL     1      43.085 -18.004   4.622  1.00  0.00     0.062 C 
BRANCH  27  28
HETATM   28  C   UNL     1      43.312 -18.044   3.110  1.00  0.00     0.006 C 
BRANCH  28  29
HETATM   29  C   UNL     1      44.126 -19.274   2.710  1.00  0.00    -0.004 C 
HETATM   30  C   UNL     1      43.282 -20.277   1.941  1.00  0.00     0.005 C 
ENDBRANCH  28  29
ENDBRANCH  27  28
ENDBRANCH   1  27
TORSDOF 4
ENDMDL
MODEL 3
REMARK VINA RESULT:      -7.5      2.136      4.075
REMARK  4 active torsions:
REMARK  status: ('A' for Active; 'I' for Inactive)
REMARK    1  A    between atoms: C_2  and  C_3 
REMARK    2  A    between atoms: C_3  and  C_4 
REMARK    3  A    between atoms: C_4  and  C_5 
REMARK    4  A    between atoms: C_25  and  N_26 
ROOT
HETATM    1  C   UNL     1      42.076 -15.759   4.492  1.00  0.00     0.067 A 
HETATM    2  N   UNL     1      43.090 -16.606   4.737  1.00  0.00    -0.177 NA
HETATM    3  N   UNL     1      43.907 -15.924   5.563  1.00  0.00    -0.256 N 
HETATM    4  H   UNL     1      44.745 -16.377   5.909  1.00  0.00     0.191 HD
HETATM    5  C   UNL     1      43.447 -14.679   5.841  1.00  0.00     0.176 A 
HETATM    6  C   UNL     1      42.280 -14.513   5.137  1.00  0.00     0.049 A 
HETATM    7  C   UNL     1      41.539 -13.224   5.254  1.00  0.00     0.144 A 
HETATM    8  C   UNL     1      40.055 -13.456   5.644  1.00  0.00     0.246 A 
HETATM    9  O   UNL     1      39.619 -13.923   6.685  1.00  0.00    -0.271 OA
HETATM   10  N   UNL     1      39.277 -13.013   4.581  1.00  0.00    -0.325 N 
HETATM   11  C   UNL     1      40.060 -12.534   3.541  1.00  0.00     0.043 A 
HETATM   12  C   UNL     1      41.423 -12.630   3.861  1.00  0.00     0.003 A 
HETATM   13  C   UNL     1      39.599 -12.031   2.343  1.00  0.00     0.030 A 
HETATM   14  C   UNL     1      40.552 -11.601   1.423  1.00  0.00     0.003 A 
HETATM   15  C   UNL     1      41.923 -11.677   1.722  1.00  0.00     0.007 A 
HETATM   16  C   UNL     1      42.384 -12.185   2.950  1.00  0.00    -0.051 A 
HETATM   17  C   UNL     1      43.859 -12.258   3.213  1.00  0.00     0.049 C 
HETATM   18  C   UNL     1      42.195 -12.309   6.281  1.00  0.00     0.081 A 
HETATM   19  C   UNL     1      41.449 -11.035   6.643  1.00  0.00     0.021 C 
HETATM   20  N   UNL     1      40.830  -9.977   6.943  1.00  0.00    -0.096 N 
HETATM   21  C   UNL     1      43.353 -12.621   6.922  1.00  0.00     0.140 A 
HETATM   22  O   UNL     1      44.038 -13.824   6.667  1.00  0.00    -0.279 OA
HETATM   23  H   UNL     1      38.267 -13.042   4.592  1.00  0.00     0.169 HD
ENDROOT
BRANCH  21  24
HETATM   24  N   UNL     1      43.977 -11.843   7.871  1.00  0.00    -0.282 NA
HETATM   25  H   UNL     1      44.993 -11.878   7.866  1.00  0.00     0.126 HD
HETATM   26  H   UNL     1      43.620 -10.890   7.872  1.00  0.00     0.126 HD
ENDBRANCH  21  24
BRANCH   1  27
HETATM   27  C   UNL     1      40.925 -16.220   3.657  1.00  0.00     0.062 C 
BRANCH  27  28
HETATM   28  C   UNL     1      41.149 -16.000   2.160  1.00  0.00     0.006 C 
BRANCH  28  29
HETATM   29  C   UNL     1      39.833 -15.686   1.449  1.00  0.00    -0.004 C 
HETATM   30  C   UNL     1      40.068 -14.939   0.146  1.00  0.00     0.005 C 
ENDBRANCH  28  29
ENDBRANCH  27  28
ENDBRANCH   1  27
TORSDOF 4
ENDMDL
MODEL 4
REMARK VINA RESULT:      -7.3      2.297      5.387
REMARK  4 active torsions:
REMARK  status: ('A' for Active; 'I' for Inactive)
REMARK    1  A    between atoms: C_2  and  C_3 
REMARK    2  A    between atoms: C_3  and  C_4 
REMARK    3  A    between atoms: C_4  and  C_5 
REMARK    4  A    between atoms: C_25  and  N_26 
ROOT
HETATM    1  C   UNL     1      39.705 -12.923   4.563  1.00  0.00     0.067 A 
HETATM    2  N   UNL     1      38.801 -12.798   3.576  1.00  0.00    -0.177 NA
HETATM    3  N   UNL     1      39.164 -13.725   2.668  1.00  0.00    -0.256 N 
HETATM    4  H   UNL     1      38.604 -13.836   1.830  1.00  0.00     0.191 HD
HETATM    5  C   UNL     1      40.264 -14.423   3.045  1.00  0.00     0.176 A 
HETATM    6  C   UNL     1      40.674 -13.911   4.251  1.00  0.00     0.049 A 
HETATM    7  C   UNL     1      41.873 -14.495   4.917  1.00  0.00     0.144 A 
HETATM    8  C   UNL     1      41.562 -14.917   6.378  1.00  0.00     0.246 A 
HETATM    9  O   UNL     1      40.796 -15.789   6.758  1.00  0.00    -0.271 OA
HETATM   10  N   UNL     1      42.340 -14.121   7.210  1.00  0.00    -0.325 N 
HETATM   11  C   UNL     1      43.109 -13.223   6.483  1.00  0.00     0.043 A 
HETATM   12  C   UNL     1      42.885 -13.378   5.106  1.00  0.00     0.003 A 
HETATM   13  C   UNL     1      43.981 -12.292   7.006  1.00  0.00     0.030 A 
HETATM   14  C   UNL     1      44.661 -11.479   6.105  1.00  0.00     0.003 A 
HETATM   15  C   UNL     1      44.462 -11.619   4.720  1.00  0.00     0.007 A 
HETATM   16  C   UNL     1      43.577 -12.577   4.195  1.00  0.00    -0.051 A 
HETATM   17  C   UNL     1      43.391 -12.676   2.710  1.00  0.00     0.049 C 
HETATM   18  C   UNL     1      42.395 -15.700   4.143  1.00  0.00     0.081 A 
HETATM   19  C   UNL     1      43.502 -16.510   4.797  1.00  0.00     0.021 C 
HETATM   20  N   UNL     1      44.421 -17.182   5.340  1.00  0.00    -0.096 N 
HETATM   21  C   UNL     1      41.867 -16.106   2.958  1.00  0.00     0.140 A 
HETATM   22  O   UNL     1      40.795 -15.424   2.352  1.00  0.00    -0.279 OA
HETATM   23  H   UNL     1      42.332 -14.208   8.217  1.00  0.00     0.169 HD
ENDROOT
BRANCH  21  24
HETATM   24  N   UNL     1      42.286 -17.196   2.228  1.00  0.00    -0.282 NA
HETATM   25  H   UNL     1      42.809 -17.896   2.747  1.00  0.00     0.126 HD
HETATM   26  H   UNL     1      41.526 -17.600   1.684  1.00  0.00     0.126 HD
ENDBRANCH  21  24
BRANCH   1  27
HETATM   27  C   UNL     1      39.563 -12.087   5.793  1.00  0.00     0.062 C 
BRANCH  27  28
HETATM   28  C   UNL     1      39.643 -10.587   5.507  1.00  0.00     0.006 C 
BRANCH  28  29
HETATM   29  C   UNL     1      41.095 -10.112   5.469  1.00  0.00    -0.004 C 
HETATM   30  C   UNL     1      41.455  -9.525   4.115  1.00  0.00     0.005 C 
ENDBRANCH  28  29
ENDBRANCH  27  28
ENDBRANCH   1  27
TORSDOF 4
ENDMDL
MODEL 5
REMARK VINA RESULT:      -7.2      2.021      2.540
REMARK  4 active torsions:
REMARK  status: ('A' for Active; 'I' for Inactive)
REMARK    1  A    between atoms: C_2  and  C_3 
REMARK    2  A    between atoms: C_3  and  C_4 
REMARK    3  A    between atoms: C_4  and  C_5 
REMARK    4  A    between atoms: C_25  and  N_26 
ROOT
HETATM    1  C   UNL     1      40.828 -12.444   5.269  1.00  0.00     0.067 A 
HETATM    2  N   UNL     1      41.388 -11.541   6.092  1.00  0.00    -0.177 NA
HETATM    3  N   UNL     1      41.914 -10.615   5.268  1.00  0.00    -0.256 N 
HETATM    4  H   UNL     1      42.377  -9.807   5.669  1.00  0.00     0.191 HD
HETATM    5  C   UNL     1      41.710 -10.904   3.959  1.00  0.00     0.176 A 
HETATM    6  C   UNL     1      41.042 -12.103   3.909  1.00  0.00     0.049 A 
HETATM    7  C   UNL     1      40.676 -12.674   2.582  1.00  0.00     0.144 A 
HETATM    8  C   UNL     1      39.163 -13.012   2.508  1.00  0.00     0.246 A 
HETATM    9  O   UNL     1      38.220 -12.238   2.553  1.00  0.00    -0.271 OA
HETATM   10  N   UNL     1      39.056 -14.391   2.361  1.00  0.00    -0.325 N 
HETATM   11  C   UNL     1      40.303 -14.999   2.342  1.00  0.00     0.043 A 
HETATM   12  C   UNL     1      41.323 -14.044   2.475  1.00  0.00     0.003 A 
HETATM   13  C   UNL     1      40.545 -16.351   2.217  1.00  0.00     0.030 A 
HETATM   14  C   UNL     1      41.874 -16.764   2.223  1.00  0.00     0.003 A 
HETATM   15  C   UNL     1      42.916 -15.828   2.345  1.00  0.00     0.007 A 
HETATM   16  C   UNL     1      42.660 -14.450   2.464  1.00  0.00    -0.051 A 
HETATM   17  C   UNL     1      43.808 -13.494   2.606  1.00  0.00     0.049 C 
HETATM   18  C   UNL     1      41.035 -11.713   1.455  1.00  0.00     0.081 A 
HETATM   19  C   UNL     1      40.555 -12.079   0.060  1.00  0.00     0.021 C 
HETATM   20  N   UNL     1      40.156 -12.382  -1.098  1.00  0.00    -0.096 N 
HETATM   21  C   UNL     1      41.684 -10.537   1.661  1.00  0.00     0.140 A 
HETATM   22  O   UNL     1      42.084 -10.128   2.947  1.00  0.00    -0.279 OA
HETATM   23  H   UNL     1      38.168 -14.866   2.274  1.00  0.00     0.169 HD
ENDROOT
BRANCH  21  24
HETATM   24  N   UNL     1      42.015  -9.624   0.686  1.00  0.00    -0.282 NA
HETATM   25  H   UNL     1      42.897  -9.793   0.208  1.00  0.00     0.126 HD
HETATM   26  H   UNL     1      41.246  -9.467   0.039  1.00  0.00     0.126 HD
ENDBRANCH  21  24
BRANCH   1  27
HETATM   27  C   UNL     1      40.072 -13.594   5.852  1.00  0.00     0.062 C 
BRANCH  27  28
HETATM   28  C   UNL     1      40.982 -14.636   6.504  1.00  0.00     0.006 C 
BRANCH  28  29
HETATM   29  C   UNL     1      40.799 -16.007   5.854  1.00  0.00    -0.004 C 
HETATM   30  C   UNL     1      42.086 -16.814   5.882  1.00  0.00     0.005 C 
ENDBRANCH  28  29
ENDBRANCH  27  28
ENDBRANCH   1  27
TORSDOF 4
ENDMDL
MODEL 6
REMARK VINA RESULT:      -7.1      2.438      5.424
REMARK  4 active torsions:
REMARK  status: ('A' for Active; 'I' for Inactive)
REMARK    1  A    between atoms: C_2  and  C_3 
REMARK    2  A    between atoms: C_3  and  C_4 
REMARK    3  A    between atoms: C_4  and  C_5 
REMARK    4  A    between atoms: C_25  and  N_26 
ROOT
HETATM    1  C   UNL     1      39.942 -12.730   1.218  1.00  0.00     0.067 A 
HETATM    2  N   UNL     1      38.663 -12.325   1.130  1.00  0.00    -0.177 NA
HETATM    3  N   UNL     1      38.261 -12.199   2.409  1.00  0.00    -0.256 N 
HETATM    4  H   UNL     1      37.318 -11.876   2.598  1.00  0.00     0.191 HD
HETATM    5  C   UNL     1      39.235 -12.515   3.297  1.00  0.00     0.176 A 
HETATM    6  C   UNL     1      40.334 -12.902   2.570  1.00  0.00     0.049 A 
HETATM    7  C   UNL     1      41.575 -13.306   3.291  1.00  0.00     0.144 A 
HETATM    8  C   UNL     1      42.810 -12.515   2.782  1.00  0.00     0.246 A 
HETATM    9  O   UNL     1      43.020 -11.316   2.875  1.00  0.00    -0.271 OA
HETATM   10  N   UNL     1      43.674 -13.434   2.197  1.00  0.00    -0.325 N 
HETATM   11  C   UNL     1      43.159 -14.721   2.245  1.00  0.00     0.043 A 
HETATM   12  C   UNL     1      41.905 -14.731   2.878  1.00  0.00     0.003 A 
HETATM   13  C   UNL     1      43.762 -15.856   1.748  1.00  0.00     0.030 A 
HETATM   14  C   UNL     1      43.077 -17.059   1.894  1.00  0.00     0.003 A 
HETATM   15  C   UNL     1      41.825 -17.099   2.531  1.00  0.00     0.007 A 
HETATM   16  C   UNL     1      41.220 -15.937   3.043  1.00  0.00    -0.051 A 
HETATM   17  C   UNL     1      39.876 -16.032   3.702  1.00  0.00     0.049 C 
HETATM   18  C   UNL     1      41.426 -13.100   4.793  1.00  0.00     0.081 A 
HETATM   19  C   UNL     1      42.672 -13.296   5.641  1.00  0.00     0.021 C 
HETATM   20  N   UNL     1      43.707 -13.458   6.345  1.00  0.00    -0.096 N 
HETATM   21  C   UNL     1      40.269 -12.686   5.374  1.00  0.00     0.140 A 
HETATM   22  O   UNL     1      39.111 -12.427   4.617  1.00  0.00    -0.279 OA
HETATM   23  H   UNL     1      44.565 -13.171   1.798  1.00  0.00     0.169 HD
ENDROOT
BRANCH  21  24
HETATM   24  N   UNL     1      40.084 -12.465   6.721  1.00  0.00    -0.282 NA
HETATM   25  H   UNL     1      40.773 -11.861   7.164  1.00  0.00     0.126 HD
HETATM   26  H   UNL     1      39.129 -12.184   6.930  1.00  0.00     0.126 HD
ENDBRANCH  21  24
BRANCH   1  27
HETATM   27  C   UNL     1      40.742 -12.900  -0.033  1.00  0.00     0.062 C 
BRANCH  27  28
HETATM   28  C   UNL     1      40.443 -14.213  -0.757  1.00  0.00     0.006 C 
BRANCH  28  29
HETATM   29  C   UNL     1      40.108 -13.965  -2.227  1.00  0.00    -0.004 C 
HETATM   30  C   UNL     1      38.921 -14.800  -2.678  1.00  0.00     0.005 C 
ENDBRANCH  28  29
ENDBRANCH  27  28
ENDBRANCH   1  27
TORSDOF 4
ENDMDL
MODEL 7
REMARK VINA RESULT:      -7.0      7.529      9.689
REMARK  4 active torsions:
REMARK  status: ('A' for Active; 'I' for Inactive)
REMARK    1  A    between atoms: C_2  and  C_3 
REMARK    2  A    between atoms: C_3  and  C_4 
REMARK    3  A    between atoms: C_4  and  C_5 
REMARK    4  A    between atoms: C_25  and  N_26 
ROOT
HETATM    1  C   UNL     1      40.650  -9.883  12.921  1.00  0.00     0.067 A 
HETATM    2  N   UNL     1      39.778 -10.780  13.414  1.00  0.00    -0.177 NA
HETATM    3  N   UNL     1      38.990 -11.094  12.367  1.00  0.00    -0.256 N 
HETATM    4  H   UNL     1      38.258 -11.783  12.494  1.00  0.00     0.191 HD
HETATM    5  C   UNL     1      39.330 -10.425  11.238  1.00  0.00     0.176 A 
HETATM    6  C   UNL     1      40.378  -9.598  11.558  1.00  0.00     0.049 A 
HETATM    7  C   UNL     1      40.971  -8.734  10.498  1.00  0.00     0.144 A 
HETATM    8  C   UNL     1      42.507  -8.928  10.400  1.00  0.00     0.246 A 
HETATM    9  O   UNL     1      43.115  -9.934  10.068  1.00  0.00    -0.271 OA
HETATM   10  N   UNL     1      43.098  -7.719  10.751  1.00  0.00    -0.325 N 
HETATM   11  C   UNL     1      42.146  -6.763  11.078  1.00  0.00     0.043 A 
HETATM   12  C   UNL     1      40.851  -7.291  10.957  1.00  0.00     0.003 A 
HETATM   13  C   UNL     1      42.400  -5.467  11.474  1.00  0.00     0.030 A 
HETATM   14  C   UNL     1      41.302  -4.662  11.761  1.00  0.00     0.003 A 
HETATM   15  C   UNL     1      39.993  -5.162  11.640  1.00  0.00     0.007 A 
HETATM   16  C   UNL     1      39.744  -6.483  11.228  1.00  0.00    -0.051 A 
HETATM   17  C   UNL     1      38.329  -6.971  11.128  1.00  0.00     0.049 C 
HETATM   18  C   UNL     1      40.338  -9.022   9.141  1.00  0.00     0.081 A 
HETATM   19  C   UNL     1      40.966  -8.349   7.932  1.00  0.00     0.021 C 
HETATM   20  N   UNL     1      41.488  -7.790   6.929  1.00  0.00    -0.096 N 
HETATM   21  C   UNL     1      39.309  -9.894   8.973  1.00  0.00     0.140 A 
HETATM   22  O   UNL     1      38.744 -10.591  10.057  1.00  0.00    -0.279 OA
HETATM   23  H   UNL     1      44.098  -7.578  10.754  1.00  0.00     0.169 HD
ENDROOT
BRANCH  21  24
HETATM   24  N   UNL     1      38.713 -10.206   7.772  1.00  0.00    -0.282 NA
HETATM   25  H   UNL     1      39.333 -10.217   6.965  1.00  0.00     0.126 HD
HETATM   26  H   UNL     1      38.147 -11.049   7.838  1.00  0.00     0.126 HD
ENDBRANCH  21  24
BRANCH   1  27
HETATM   27  C   UNL     1      41.740  -9.364  13.801  1.00  0.00     0.062 C 
BRANCH  27  28
HETATM   28  C   UNL     1      41.223  -8.453  14.915  1.00  0.00     0.006 C 
BRANCH  28  29
HETATM   29  C   UNL     1      41.789  -7.040  14.775  1.00  0.00    -0.004 C 
HETATM   30  C   UNL     1      43.282  -7.062  14.490  1.00  0.00     0.005 C 
ENDBRANCH  28  29
ENDBRANCH  27  28
ENDBRANCH   1  27
TORSDOF 4
ENDMDL
MODEL 8
REMARK VINA RESULT:      -6.8      1.982      4.777
REMARK  4 active torsions:
REMARK  status: ('A' for Active; 'I' for Inactive)
REMARK    1  A    between atoms: C_2  and  C_3 
REMARK    2  A    between atoms: C_3  and  C_4 
REMARK    3  A    between atoms: C_4  and  C_5 
REMARK    4  A    between atoms: C_25  and  N_26 
ROOT
HETATM    1  C   UNL     1      39.832 -12.050   2.917  1.00  0.00     0.067 A 
HETATM    2  N   UNL     1      38.680 -11.373   3.060  1.00  0.00    -0.177 NA
HETATM    3  N   UNL     1      38.786 -10.777   4.264  1.00  0.00    -0.256 N 
HETATM    4  H   UNL     1      38.032 -10.181   4.584  1.00  0.00     0.191 HD
HETATM    5  C   UNL     1      39.959 -11.058   4.884  1.00  0.00     0.176 A 
HETATM    6  C   UNL     1      40.655 -11.913   4.065  1.00  0.00     0.049 A 
HETATM    7  C   UNL     1      41.999 -12.393   4.492  1.00  0.00     0.144 A 
HETATM    8  C   UNL     1      43.069 -12.134   3.398  1.00  0.00     0.246 A 
HETATM    9  O   UNL     1      43.469 -11.058   2.983  1.00  0.00    -0.271 OA
HETATM   10  N   UNL     1      43.523 -13.375   2.965  1.00  0.00    -0.325 N 
HETATM   11  C   UNL     1      42.880 -14.412   3.625  1.00  0.00     0.043 A 
HETATM   12  C   UNL     1      41.950 -13.911   4.550  1.00  0.00     0.003 A 
HETATM   13  C   UNL     1      43.094 -15.759   3.424  1.00  0.00     0.030 A 
HETATM   14  C   UNL     1      42.341 -16.645   4.189  1.00  0.00     0.003 A 
HETATM   15  C   UNL     1      41.410 -16.170   5.129  1.00  0.00     0.007 A 
HETATM   16  C   UNL     1      41.203 -14.795   5.333  1.00  0.00    -0.051 A 
HETATM   17  C   UNL     1      40.187 -14.341   6.339  1.00  0.00     0.049 C 
HETATM   18  C   UNL     1      42.431 -11.723   5.791  1.00  0.00     0.081 A 
HETATM   19  C   UNL     1      43.857 -11.976   6.254  1.00  0.00     0.021 C 
HETATM   20  N   UNL     1      45.040 -12.185   6.638  1.00  0.00    -0.096 N 
HETATM   21  C   UNL     1      41.633 -10.872   6.488  1.00  0.00     0.140 A 
HETATM   22  O   UNL     1      40.331 -10.557   6.056  1.00  0.00    -0.279 OA
HETATM   23  H   UNL     1      44.239 -13.481   2.260  1.00  0.00     0.169 HD
ENDROOT
BRANCH  21  24
HETATM   24  N   UNL     1      41.979 -10.224   7.653  1.00  0.00    -0.282 NA
HETATM   25  H   UNL     1      42.576  -9.409   7.541  1.00  0.00     0.126 HD
HETATM   26  H   UNL     1      41.166 -10.034   8.235  1.00  0.00     0.126 HD
ENDBRANCH  21  24
BRANCH   1  27
HETATM   27  C   UNL     1      40.096 -12.782   1.641  1.00  0.00     0.062 C 
BRANCH  27  28
HETATM   28  C   UNL     1      39.806 -14.279   1.742  1.00  0.00     0.006 C 
BRANCH  28  29
HETATM   29  C   UNL     1      40.176 -14.999   0.445  1.00  0.00    -0.004 C 
HETATM   30  C   UNL     1      39.949 -14.114  -0.769  1.00  0.00     0.005 C 
ENDBRANCH  28  29
ENDBRANCH  27  28
ENDBRANCH   1  27
TORSDOF 4
ENDMDL
MODEL 9
REMARK VINA RESULT:      -6.8      1.874      4.258
REMARK  4 active torsions:
REMARK  status: ('A' for Active; 'I' for Inactive)
REMARK    1  A    between atoms: C_2  and  C_3 
REMARK    2  A    between atoms: C_3  and  C_4 
REMARK    3  A    between atoms: C_4  and  C_5 
REMARK    4  A    between atoms: C_25  and  N_26 
ROOT
HETATM    1  C   UNL     1      41.728 -14.494   2.370  1.00  0.00     0.067 A 
HETATM    2  N   UNL     1      40.813 -14.829   1.444  1.00  0.00    -0.177 NA
HETATM    3  N   UNL     1      39.726 -14.101   1.765  1.00  0.00    -0.256 N 
HETATM    4  H   UNL     1      38.900 -14.169   1.182  1.00  0.00     0.191 HD
HETATM    5  C   UNL     1      39.922 -13.326   2.861  1.00  0.00     0.176 A 
HETATM    6  C   UNL     1      41.194 -13.576   3.311  1.00  0.00     0.049 A 
HETATM    7  C   UNL     1      41.693 -12.853   4.515  1.00  0.00     0.144 A 
HETATM    8  C   UNL     1      43.047 -12.148   4.234  1.00  0.00     0.246 A 
HETATM    9  O   UNL     1      43.265 -11.228   3.461  1.00  0.00    -0.271 OA
HETATM   10  N   UNL     1      44.000 -12.748   5.048  1.00  0.00    -0.325 N 
HETATM   11  C   UNL     1      43.448 -13.763   5.816  1.00  0.00     0.043 A 
HETATM   12  C   UNL     1      42.075 -13.894   5.554  1.00  0.00     0.003 A 
HETATM   13  C   UNL     1      44.123 -14.557   6.719  1.00  0.00     0.030 A 
HETATM   14  C   UNL     1      43.386 -15.527   7.392  1.00  0.00     0.003 A 
HETATM   15  C   UNL     1      42.007 -15.674   7.154  1.00  0.00     0.007 A 
HETATM   16  C   UNL     1      41.325 -14.854   6.238  1.00  0.00    -0.051 A 
HETATM   17  C   UNL     1      39.857 -15.061   6.011  1.00  0.00     0.049 C 
HETATM   18  C   UNL     1      40.676 -11.823   4.994  1.00  0.00     0.081 A 
HETATM   19  C   UNL     1      41.121 -10.882   6.102  1.00  0.00     0.021 C 
HETATM   20  N   UNL     1      41.489 -10.101   7.022  1.00  0.00    -0.096 N 
HETATM   21  C   UNL     1      39.450 -11.673   4.429  1.00  0.00     0.140 A 
HETATM   22  O   UNL     1      39.026 -12.478   3.355  1.00  0.00    -0.279 OA
HETATM   23  H   UNL     1      44.968 -12.458   5.065  1.00  0.00     0.169 HD
ENDROOT
BRANCH  21  24
HETATM   24  N   UNL     1      38.502 -10.749   4.807  1.00  0.00    -0.282 NA
HETATM   25  H   UNL     1      38.372  -9.968   4.168  1.00  0.00     0.126 HD
HETATM   26  H   UNL     1      37.623 -11.192   5.063  1.00  0.00     0.126 HD
ENDBRANCH  21  24
BRANCH   1  27
HETATM   27  C   UNL     1      43.106 -15.065   2.276  1.00  0.00     0.062 C 
BRANCH  27  28
HETATM   28  C   UNL     1      43.117 -16.594   2.261  1.00  0.00     0.006 C 
BRANCH  28  29
HETATM   29  C   UNL     1      42.715 -17.159   3.623  1.00  0.00    -0.004 C 
HETATM   30  C   UNL     1      43.932 -17.532   4.454  1.00  0.00     0.005 C 
ENDBRANCH  28  29
ENDBRANCH  27  28
ENDBRANCH   1  27
TORSDOF 4
ENDMDL
MODEL 10
REMARK VINA RESULT:      -6.8     16.220     18.408
REMARK  4 active torsions:
REMARK  status: ('A' for Active; 'I' for Inactive)
REMARK    1  A    between atoms: C_2  and  C_3 
REMARK    2  A    between atoms: C_3  and  C_4 
REMARK    3  A    between atoms: C_4  and  C_5 
REMARK    4  A    between atoms: C_25  and  N_26 
ROOT
HETATM    1  C   UNL     1      44.672 -28.902  -0.330  1.00  0.00     0.067 A 
HETATM    2  N   UNL     1      43.340 -29.072  -0.263  1.00  0.00    -0.177 NA
HETATM    3  N   UNL     1      43.157 -29.895   0.787  1.00  0.00    -0.256 N 
HETATM    4  H   UNL     1      42.213 -30.152   1.051  1.00  0.00     0.191 HD
HETATM    5  C   UNL     1      44.323 -30.254   1.378  1.00  0.00     0.176 A 
HETATM    6  C   UNL     1      45.337 -29.664   0.665  1.00  0.00     0.049 A 
HETATM    7  C   UNL     1      46.748 -29.882   1.093  1.00  0.00     0.144 A 
HETATM    8  C   UNL     1      47.498 -28.536   1.282  1.00  0.00     0.246 A 
HETATM    9  O   UNL     1      47.271 -27.662   2.104  1.00  0.00    -0.271 OA
HETATM   10  N   UNL     1      48.516 -28.496   0.336  1.00  0.00    -0.325 N 
HETATM   11  C   UNL     1      48.521 -29.636  -0.456  1.00  0.00     0.043 A 
HETATM   12  C   UNL     1      47.493 -30.512  -0.071  1.00  0.00     0.003 A 
HETATM   13  C   UNL     1      49.395 -29.905  -1.487  1.00  0.00     0.030 A 
HETATM   14  C   UNL     1      49.231 -31.110  -2.164  1.00  0.00     0.003 A 
HETATM   15  C   UNL     1      48.216 -32.009  -1.794  1.00  0.00     0.007 A 
HETATM   16  C   UNL     1      47.333 -31.730  -0.735  1.00  0.00    -0.051 A 
HETATM   17  C   UNL     1      46.258 -32.718  -0.390  1.00  0.00     0.049 C 
HETATM   18  C   UNL     1      46.808 -30.680   2.390  1.00  0.00     0.081 A 
HETATM   19  C   UNL     1      48.171 -30.823   3.047  1.00  0.00     0.021 C 
HETATM   20  N   UNL     1      49.303 -30.941   3.593  1.00  0.00    -0.096 N 
HETATM   21  C   UNL     1      45.705 -31.187   3.001  1.00  0.00     0.140 A 
HETATM   22  O   UNL     1      44.416 -31.017   2.462  1.00  0.00    -0.279 OA
HETATM   23  H   UNL     1      49.163 -27.724   0.258  1.00  0.00     0.169 HD
ENDROOT
BRANCH  21  24
HETATM   24  N   UNL     1      45.699 -31.897   4.181  1.00  0.00    -0.282 NA
HETATM   25  H   UNL     1      46.606 -32.234   4.494  1.00  0.00     0.126 HD
HETATM   26  H   UNL     1      45.191 -31.406   4.914  1.00  0.00     0.126 HD
ENDBRANCH  21  24
BRANCH   1  27
HETATM   27  C   UNL     1      45.239 -27.969  -1.350  1.00  0.00     0.062 C 
BRANCH  27  28
HETATM   28  C   UNL     1      45.780 -28.693  -2.584  1.00  0.00     0.006 C 
BRANCH  28  29
HETATM   29  C   UNL     1      44.888 -28.447  -3.800  1.00  0.00    -0.004 C 
HETATM   30  C   UNL     1      43.822 -29.521  -3.937  1.00  0.00     0.005 C 
ENDBRANCH  28  29
ENDBRANCH  27  28
ENDBRANCH   1  27
TORSDOF 4
ENDMDL
