MODEL 1
REMARK VINA RESULT:      -7.8      0.000      0.000
REMARK  6 active torsions:
REMARK  status: ('A' for Active; 'I' for Inactive)
REMARK    1  A    between atoms: C_7  and  S_8 
REMARK    2  A    between atoms: S_8  and  C_9 
REMARK    3  A    between atoms: C_9  and  C_10 
REMARK    4  A    between atoms: C_18  and  C_19 
REMARK    5  A    between atoms: C_26  and  C_27 
REMARK    6  A    between atoms: C_27  and  O_28 
ROOT
HETATM    1  C   UNL     1      43.699 -12.310   7.462  1.00  0.00     0.070 C 
HETATM    2  C   UNL     1      42.737 -12.747   6.384  1.00  0.00     0.037 A 
HETATM    3  N   UNL     1      41.940 -11.742   5.848  1.00  0.00    -0.192 N 
HETATM    4  C   UNL     1      41.012 -11.958   4.899  1.00  0.00     0.726 A 
HETATM    5  N   UNL     1      40.810 -13.227   4.432  1.00  0.00    -0.082 N 
HETATM    6  N   UNL     1      39.819 -13.261   3.517  1.00  0.00    -0.128 NA
HETATM    7  C   UNL     1      39.516 -11.959   3.426  1.00  0.00     0.226 A 
HETATM    8  N   UNL     1      40.215 -11.134   4.275  1.00  0.00    -0.035 NA
HETATM    9  C   UNL     1      41.582 -14.397   4.873  1.00  0.00     0.203 A 
HETATM   10  C   UNL     1      42.597 -14.022   5.945  1.00  0.00     0.070 A 
HETATM   11  H   UNL     1      42.082 -10.794   6.187  1.00  0.00     0.184 HD
ENDROOT
BRANCH   7  12
HETATM   12  S   UNL     1      38.375 -11.313   2.281  1.00  0.00    -0.083 SA
BRANCH  12  13
HETATM   13  C   UNL     1      39.399 -11.153   0.793  1.00  0.00     0.123 C 
BRANCH  13  14
HETATM   14  C   UNL     1      39.233 -12.348  -0.119  1.00  0.00    -0.027 A 
HETATM   15  C   UNL     1      38.305 -12.385  -1.172  1.00  0.00     0.041 A 
HETATM   16 CL   UNL     1      37.232 -11.069  -1.493  1.00  0.00    -0.084 Cl
HETATM   17  C   UNL     1      38.219 -13.506  -2.004  1.00  0.00     0.024 A 
HETATM   18  C   UNL     1      39.054 -14.603  -1.798  1.00  0.00     0.002 A 
HETATM   19  C   UNL     1      39.981 -14.581  -0.760  1.00  0.00     0.001 A 
HETATM   20  C   UNL     1      40.073 -13.463   0.069  1.00  0.00     0.009 A 
ENDBRANCH  13  14
ENDBRANCH  12  13
ENDBRANCH   7  12
BRANCH   9  21
HETATM   21  C   UNL     1      42.221 -15.087   3.669  1.00  0.00    -0.026 A 
HETATM   22  C   UNL     1      42.094 -16.479   3.514  1.00  0.00     0.033 A 
HETATM   23  C   UNL     1      42.687 -17.125   2.430  1.00  0.00     0.034 A 
HETATM   24 CL   UNL     1      42.528 -18.830   2.263  1.00  0.00    -0.084 Cl
HETATM   25  C   UNL     1      43.409 -16.401   1.484  1.00  0.00     0.024 A 
HETATM   26  C   UNL     1      43.544 -15.021   1.626  1.00  0.00     0.002 A 
HETATM   27  C   UNL     1      42.958 -14.367   2.712  1.00  0.00     0.010 A 
ENDBRANCH   9  21
BRANCH  10  28
HETATM   28  C   UNL     1      43.462 -15.109   6.445  1.00  0.00     0.293 C 
HETATM   29  O   UNL     1      44.656 -15.202   6.213  1.00  0.00    -0.259 OA
BRANCH  28  30
HETATM   30  O   UNL     1      42.721 -15.971   7.187  1.00  0.00    -0.323 OA
HETATM   31  C   UNL     1      43.116 -17.336   7.040  1.00  0.00     0.213 C 
ENDBRANCH  28  30
ENDBRANCH  10  28
TORSDOF 6
ENDMDL
MODEL 2
REMARK VINA RESULT:      -7.7      4.115      7.752
REMARK  6 active torsions:
REMARK  status: ('A' for Active; 'I' for Inactive)
REMARK    1  A    between atoms: C_7  and  S_8 
REMARK    2  A    between atoms: S_8  and  C_9 
REMARK    3  A    between atoms: C_9  and  C_10 
REMARK    4  A    between atoms: C_18  and  C_19 
REMARK    5  A    between atoms: C_26  and  C_27 
REMARK    6  A    between atoms: C_27  and  O_28 
ROOT
HETATM    1  C   UNL     1      39.088 -12.552   3.335  1.00  0.00     0.070 C 
HETATM    2  C   UNL     1      40.453 -12.771   3.941  1.00  0.00     0.037 A 
HETATM    3  N   UNL     1      40.865 -11.807   4.854  1.00  0.00    -0.192 N 
HETATM    4  C   UNL     1      42.060 -11.831   5.469  1.00  0.00     0.726 A 
HETATM    5  N   UNL     1      42.942 -12.836   5.186  1.00  0.00    -0.082 N 
HETATM    6  N   UNL     1      44.100 -12.677   5.861  1.00  0.00    -0.128 NA
HETATM    7  C   UNL     1      43.817 -11.592   6.594  1.00  0.00     0.226 A 
HETATM    8  N   UNL     1      42.582 -11.035   6.363  1.00  0.00    -0.035 NA
HETATM    9  C   UNL     1      42.657 -13.944   4.265  1.00  0.00     0.203 A 
HETATM   10  C   UNL     1      41.277 -13.803   3.635  1.00  0.00     0.070 A 
HETATM   11  H   UNL     1      40.216 -11.055   5.073  1.00  0.00     0.184 HD
ENDROOT
BRANCH   7  12
HETATM   12  S   UNL     1      44.884 -10.944   7.807  1.00  0.00    -0.083 SA
BRANCH  12  13
HETATM   13  C   UNL     1      44.085  -9.362   8.190  1.00  0.00     0.123 C 
BRANCH  13  14
HETATM   14  C   UNL     1      43.742  -9.261   9.661  1.00  0.00    -0.027 A 
HETATM   15  C   UNL     1      43.396  -8.053  10.286  1.00  0.00     0.041 A 
HETATM   16 CL   UNL     1      43.370  -6.553   9.429  1.00  0.00    -0.084 Cl
HETATM   17  C   UNL     1      43.057  -8.027  11.643  1.00  0.00     0.024 A 
HETATM   18  C   UNL     1      43.060  -9.203  12.393  1.00  0.00     0.002 A 
HETATM   19  C   UNL     1      43.399 -10.409  11.788  1.00  0.00     0.001 A 
HETATM   20  C   UNL     1      43.733 -10.439  10.433  1.00  0.00     0.009 A 
ENDBRANCH  13  14
ENDBRANCH  12  13
ENDBRANCH   7  12
BRANCH   9  21
HETATM   21  C   UNL     1      42.847 -15.281   4.979  1.00  0.00    -0.026 A 
HETATM   22  C   UNL     1      43.600 -16.298   4.366  1.00  0.00     0.033 A 
HETATM   23  C   UNL     1      43.767 -17.531   4.998  1.00  0.00     0.034 A 
HETATM   24 CL   UNL     1      44.684 -18.766   4.228  1.00  0.00    -0.084 Cl
HETATM   25  C   UNL     1      43.195 -17.769   6.246  1.00  0.00     0.024 A 
HETATM   26  C   UNL     1      42.445 -16.770   6.864  1.00  0.00     0.002 A 
HETATM   27  C   UNL     1      42.268 -15.535   6.234  1.00  0.00     0.010 A 
ENDBRANCH   9  21
BRANCH  10  28
HETATM   28  C   UNL     1      40.857 -14.879   2.715  1.00  0.00     0.293 C 
HETATM   29  O   UNL     1      40.140 -15.814   3.030  1.00  0.00    -0.259 OA
BRANCH  28  30
HETATM   30  O   UNL     1      41.394 -14.658   1.489  1.00  0.00    -0.323 OA
HETATM   31  C   UNL     1      40.423 -14.610   0.440  1.00  0.00     0.213 C 
ENDBRANCH  28  30
ENDBRANCH  10  28
TORSDOF 6
ENDMDL
MODEL 3
REMARK VINA RESULT:      -7.7      4.098      8.110
REMARK  6 active torsions:
REMARK  status: ('A' for Active; 'I' for Inactive)
REMARK    1  A    between atoms: C_7  and  S_8 
REMARK    2  A    between atoms: S_8  and  C_9 
REMARK    3  A    between atoms: C_9  and  C_10 
REMARK    4  A    between atoms: C_18  and  C_19 
REMARK    5  A    between atoms: C_26  and  C_27 
REMARK    6  A    between atoms: C_27  and  O_28 
ROOT
HETATM    1  C   UNL     1      40.246 -12.852  -2.611  1.00  0.00     0.070 C 
HETATM    2  C   UNL     1      40.097 -13.061  -1.123  1.00  0.00     0.037 A 
HETATM    3  N   UNL     1      40.780 -14.152  -0.600  1.00  0.00    -0.192 N 
HETATM    4  C   UNL     1      40.739 -14.501   0.698  1.00  0.00     0.726 A 
HETATM    5  N   UNL     1      39.976 -13.771   1.566  1.00  0.00    -0.082 N 
HETATM    6  N   UNL     1      40.021 -14.287   2.812  1.00  0.00    -0.128 NA
HETATM    7  C   UNL     1      40.893 -15.289   2.638  1.00  0.00     0.226 A 
HETATM    8  N   UNL     1      41.337 -15.462   1.349  1.00  0.00    -0.035 NA
HETATM    9  C   UNL     1      39.211 -12.576   1.184  1.00  0.00     0.203 A 
HETATM   10  C   UNL     1      39.341 -12.286  -0.307  1.00  0.00     0.070 A 
HETATM   11  H   UNL     1      41.352 -14.703  -1.236  1.00  0.00     0.184 HD
ENDROOT
BRANCH   7  12
HETATM   12  S   UNL     1      41.495 -16.279   3.937  1.00  0.00    -0.083 SA
BRANCH  12  13
HETATM   13  C   UNL     1      43.170 -16.664   3.359  1.00  0.00     0.123 C 
BRANCH  13  14
HETATM   14  C   UNL     1      43.462 -18.144   3.469  1.00  0.00    -0.027 A 
HETATM   15  C   UNL     1      43.873 -18.757   4.664  1.00  0.00     0.041 A 
HETATM   16 CL   UNL     1      44.122 -17.856   6.116  1.00  0.00    -0.084 Cl
HETATM   17  C   UNL     1      44.098 -20.137   4.713  1.00  0.00     0.024 A 
HETATM   18  C   UNL     1      43.917 -20.922   3.575  1.00  0.00     0.002 A 
HETATM   19  C   UNL     1      43.508 -20.331   2.384  1.00  0.00     0.001 A 
HETATM   20  C   UNL     1      43.279 -18.955   2.332  1.00  0.00     0.009 A 
ENDBRANCH  13  14
ENDBRANCH  12  13
ENDBRANCH   7  12
BRANCH   9  21
HETATM   21  C   UNL     1      39.623 -11.390   2.054  1.00  0.00    -0.026 A 
HETATM   22  C   UNL     1      38.674 -10.778   2.892  1.00  0.00     0.033 A 
HETATM   23  C   UNL     1      39.030  -9.682   3.679  1.00  0.00     0.034 A 
HETATM   24 CL   UNL     1      37.852  -8.941   4.691  1.00  0.00    -0.084 Cl
HETATM   25  C   UNL     1      40.330  -9.183   3.649  1.00  0.00     0.024 A 
HETATM   26  C   UNL     1      41.280  -9.779   2.821  1.00  0.00     0.002 A 
HETATM   27  C   UNL     1      40.930 -10.873   2.026  1.00  0.00     0.010 A 
ENDBRANCH   9  21
BRANCH  10  28
HETATM   28  C   UNL     1      38.645 -11.086  -0.810  1.00  0.00     0.293 C 
HETATM   29  O   UNL     1      39.159  -9.984  -0.912  1.00  0.00    -0.259 OA
BRANCH  28  30
HETATM   30  O   UNL     1      37.366 -11.406  -1.129  1.00  0.00    -0.323 OA
HETATM   31  C   UNL     1      36.952 -10.906  -2.402  1.00  0.00     0.213 C 
ENDBRANCH  28  30
ENDBRANCH  10  28
TORSDOF 6
ENDMDL
MODEL 4
REMARK VINA RESULT:      -7.7      4.088      8.388
REMARK  6 active torsions:
REMARK  status: ('A' for Active; 'I' for Inactive)
REMARK    1  A    between atoms: C_7  and  S_8 
REMARK    2  A    between atoms: S_8  and  C_9 
REMARK    3  A    between atoms: C_9  and  C_10 
REMARK    4  A    between atoms: C_18  and  C_19 
REMARK    5  A    between atoms: C_26  and  C_27 
REMARK    6  A    between atoms: C_27  and  O_28 
ROOT
HETATM    1  C   UNL     1      38.662 -14.459  -3.306  1.00  0.00     0.070 C 
HETATM    2  C   UNL     1      38.942 -13.913  -1.926  1.00  0.00     0.037 A 
HETATM    3  N   UNL     1      39.558 -14.796  -1.047  1.00  0.00    -0.192 N 
HETATM    4  C   UNL     1      39.857 -14.486   0.228  1.00  0.00     0.726 A 
HETATM    5  N   UNL     1      39.531 -13.250   0.713  1.00  0.00    -0.082 N 
HETATM    6  N   UNL     1      39.867 -13.131   2.014  1.00  0.00    -0.128 NA
HETATM    7  C   UNL     1      40.461 -14.311   2.230  1.00  0.00     0.226 A 
HETATM    8  N   UNL     1      40.454 -15.175   1.161  1.00  0.00    -0.035 NA
HETATM    9  C   UNL     1      38.900 -12.193  -0.088  1.00  0.00     0.203 A 
HETATM   10  C   UNL     1      38.614 -12.666  -1.508  1.00  0.00     0.070 A 
HETATM   11  H   UNL     1      39.806 -15.718  -1.397  1.00  0.00     0.184 HD
ENDROOT
BRANCH   7  12
HETATM   12  S   UNL     1      41.255 -14.732   3.721  1.00  0.00    -0.083 SA
BRANCH  12  13
HETATM   13  C   UNL     1      42.944 -15.071   3.155  1.00  0.00     0.123 C 
BRANCH  13  14
HETATM   14  C   UNL     1      43.308 -16.526   3.350  1.00  0.00    -0.027 A 
HETATM   15  C   UNL     1      43.834 -17.030   4.550  1.00  0.00     0.041 A 
HETATM   16 CL   UNL     1      44.154 -16.011   5.909  1.00  0.00    -0.084 Cl
HETATM   17  C   UNL     1      44.121 -18.393   4.683  1.00  0.00     0.024 A 
HETATM   18  C   UNL     1      43.888 -19.269   3.625  1.00  0.00     0.002 A 
HETATM   19  C   UNL     1      43.365 -18.786   2.429  1.00  0.00     0.001 A 
HETATM   20  C   UNL     1      43.073 -17.428   2.294  1.00  0.00     0.009 A 
ENDBRANCH  13  14
ENDBRANCH  12  13
ENDBRANCH   7  12
BRANCH   9  21
HETATM   21  C   UNL     1      39.752 -10.925  -0.048  1.00  0.00    -0.026 A 
HETATM   22  C   UNL     1      39.218  -9.743   0.496  1.00  0.00     0.033 A 
HETATM   23  C   UNL     1      39.978  -8.574   0.524  1.00  0.00     0.034 A 
HETATM   24 CL   UNL     1      39.304  -7.136   1.185  1.00  0.00    -0.084 Cl
HETATM   25  C   UNL     1      41.275  -8.561   0.017  1.00  0.00     0.024 A 
HETATM   26  C   UNL     1      41.816  -9.726  -0.527  1.00  0.00     0.002 A 
HETATM   27  C   UNL     1      41.060 -10.899  -0.563  1.00  0.00     0.010 A 
ENDBRANCH   9  21
BRANCH  10  28
HETATM   28  C   UNL     1      38.011 -11.678  -2.425  1.00  0.00     0.293 C 
HETATM   29  O   UNL     1      36.841 -11.335  -2.396  1.00  0.00    -0.259 OA
BRANCH  28  30
HETATM   30  O   UNL     1      38.957 -11.229  -3.289  1.00  0.00    -0.323 OA
HETATM   31  C   UNL     1      38.878  -9.825  -3.542  1.00  0.00     0.213 C 
ENDBRANCH  28  30
ENDBRANCH  10  28
TORSDOF 6
ENDMDL
MODEL 5
REMARK VINA RESULT:      -7.3      6.091      9.780
REMARK  6 active torsions:
REMARK  status: ('A' for Active; 'I' for Inactive)
REMARK    1  A    between atoms: C_7  and  S_8 
REMARK    2  A    between atoms: S_8  and  C_9 
REMARK    3  A    between atoms: C_9  and  C_10 
REMARK    4  A    between atoms: C_18  and  C_19 
REMARK    5  A    between atoms: C_26  and  C_27 
REMARK    6  A    between atoms: C_27  and  O_28 
ROOT
HETATM    1  C   UNL     1      40.455 -12.635   5.674  1.00  0.00     0.070 C 
HETATM    2  C   UNL     1      40.688 -11.396   6.505  1.00  0.00     0.037 A 
HETATM    3  N   UNL     1      39.606 -10.975   7.269  1.00  0.00    -0.192 N 
HETATM    4  C   UNL     1      39.629  -9.879   8.048  1.00  0.00     0.726 A 
HETATM    5  N   UNL     1      40.758  -9.110   8.092  1.00  0.00    -0.082 N 
HETATM    6  N   UNL     1      40.588  -8.034   8.888  1.00  0.00    -0.128 NA
HETATM    7  C   UNL     1      39.351  -8.258   9.352  1.00  0.00     0.226 A 
HETATM    8  N   UNL     1      38.726  -9.370   8.841  1.00  0.00    -0.035 NA
HETATM    9  C   UNL     1      41.996  -9.424   7.366  1.00  0.00     0.203 A 
HETATM   10  C   UNL     1      41.842 -10.685   6.524  1.00  0.00     0.070 A 
HETATM   11  H   UNL     1      38.760 -11.540   7.245  1.00  0.00     0.184 HD
ENDROOT
BRANCH   7  12
HETATM   12  S   UNL     1      38.584  -7.272  10.565  1.00  0.00    -0.083 SA
BRANCH  12  13
HETATM   13  C   UNL     1      39.974  -6.267  11.154  1.00  0.00     0.123 C 
BRANCH  13  14
HETATM   14  C   UNL     1      40.851  -7.048  12.108  1.00  0.00    -0.027 A 
HETATM   15  C   UNL     1      42.237  -7.186  11.935  1.00  0.00     0.041 A 
HETATM   16 CL   UNL     1      43.064  -6.503  10.581  1.00  0.00    -0.084 Cl
HETATM   17  C   UNL     1      43.002  -7.894  12.869  1.00  0.00     0.024 A 
HETATM   18  C   UNL     1      42.397  -8.472  13.984  1.00  0.00     0.002 A 
HETATM   19  C   UNL     1      41.024  -8.343  14.170  1.00  0.00     0.001 A 
HETATM   20  C   UNL     1      40.258  -7.634  13.243  1.00  0.00     0.009 A 
ENDBRANCH  13  14
ENDBRANCH  12  13
ENDBRANCH   7  12
BRANCH   9  21
HETATM   21  C   UNL     1      43.170  -9.503   8.340  1.00  0.00    -0.026 A 
HETATM   22  C   UNL     1      43.045 -10.254   9.522  1.00  0.00     0.033 A 
HETATM   23  C   UNL     1      44.102 -10.321  10.430  1.00  0.00     0.034 A 
HETATM   24 CL   UNL     1      43.927 -11.237  11.876  1.00  0.00    -0.084 Cl
HETATM   25  C   UNL     1      45.296  -9.649  10.177  1.00  0.00     0.024 A 
HETATM   26  C   UNL     1      45.433  -8.900   9.009  1.00  0.00     0.002 A 
HETATM   27  C   UNL     1      44.376  -8.823   8.098  1.00  0.00     0.010 A 
ENDBRANCH   9  21
BRANCH  10  28
HETATM   28  C   UNL     1      43.033 -11.128   5.773  1.00  0.00     0.293 C 
HETATM   29  O   UNL     1      43.444 -10.594   4.756  1.00  0.00    -0.259 OA
BRANCH  28  30
HETATM   30  O   UNL     1      43.580 -12.206   6.388  1.00  0.00    -0.323 OA
HETATM   31  C   UNL     1      44.978 -12.066   6.650  1.00  0.00     0.213 C 
ENDBRANCH  28  30
ENDBRANCH  10  28
TORSDOF 6
ENDMDL
MODEL 6
REMARK VINA RESULT:      -7.3      3.682      7.411
REMARK  6 active torsions:
REMARK  status: ('A' for Active; 'I' for Inactive)
REMARK    1  A    between atoms: C_7  and  S_8 
REMARK    2  A    between atoms: S_8  and  C_9 
REMARK    3  A    between atoms: C_9  and  C_10 
REMARK    4  A    between atoms: C_18  and  C_19 
REMARK    5  A    between atoms: C_26  and  C_27 
REMARK    6  A    between atoms: C_27  and  O_28 
ROOT
HETATM    1  C   UNL     1      38.452  -9.496   3.128  1.00  0.00     0.070 C 
HETATM    2  C   UNL     1      39.231 -10.623   2.492  1.00  0.00     0.037 A 
HETATM    3  N   UNL     1      39.180 -11.839   3.164  1.00  0.00    -0.192 N 
HETATM    4  C   UNL     1      39.834 -12.941   2.754  1.00  0.00     0.726 A 
HETATM    5  N   UNL     1      40.611 -12.882   1.631  1.00  0.00    -0.082 N 
HETATM    6  N   UNL     1      41.221 -14.063   1.394  1.00  0.00    -0.128 NA
HETATM    7  C   UNL     1      40.705 -14.813   2.377  1.00  0.00     0.226 A 
HETATM    8  N   UNL     1      39.867 -14.151   3.242  1.00  0.00    -0.035 NA
HETATM    9  C   UNL     1      40.756 -11.684   0.792  1.00  0.00     0.203 A 
HETATM   10  C   UNL     1      39.969 -10.509   1.361  1.00  0.00     0.070 A 
HETATM   11  H   UNL     1      38.605 -11.895   4.000  1.00  0.00     0.184 HD
ENDROOT
BRANCH   7  12
HETATM   12  S   UNL     1      41.000 -16.521   2.540  1.00  0.00    -0.083 SA
BRANCH  12  13
HETATM   13  C   UNL     1      42.811 -16.576   2.609  1.00  0.00     0.123 C 
BRANCH  13  14
HETATM   14  C   UNL     1      43.303 -17.939   3.046  1.00  0.00    -0.027 A 
HETATM   15  C   UNL     1      43.907 -18.171   4.291  1.00  0.00     0.041 A 
HETATM   16 CL   UNL     1      44.182 -16.900   5.428  1.00  0.00    -0.084 Cl
HETATM   17  C   UNL     1      44.313 -19.460   4.654  1.00  0.00     0.024 A 
HETATM   18  C   UNL     1      44.122 -20.531   3.782  1.00  0.00     0.002 A 
HETATM   19  C   UNL     1      43.522 -20.318   2.545  1.00  0.00     0.001 A 
HETATM   20  C   UNL     1      43.112 -19.034   2.181  1.00  0.00     0.009 A 
ENDBRANCH  13  14
ENDBRANCH  12  13
ENDBRANCH   7  12
BRANCH   9  21
HETATM   21  C   UNL     1      40.376 -12.007  -0.652  1.00  0.00    -0.026 A 
HETATM   22  C   UNL     1      39.086 -12.485  -0.944  1.00  0.00     0.033 A 
HETATM   23  C   UNL     1      38.731 -12.800  -2.255  1.00  0.00     0.034 A 
HETATM   24 CL   UNL     1      37.151 -13.393  -2.591  1.00  0.00    -0.084 Cl
HETATM   25  C   UNL     1      39.646 -12.642  -3.293  1.00  0.00     0.024 A 
HETATM   26  C   UNL     1      40.929 -12.170  -3.018  1.00  0.00     0.002 A 
HETATM   27  C   UNL     1      41.294 -11.858  -1.706  1.00  0.00     0.010 A 
ENDBRANCH   9  21
BRANCH  10  28
HETATM   28  C   UNL     1      40.004  -9.254   0.586  1.00  0.00     0.293 C 
HETATM   29  O   UNL     1      39.033  -8.749   0.045  1.00  0.00    -0.259 OA
BRANCH  28  30
HETATM   30  O   UNL     1      41.270  -8.767   0.573  1.00  0.00    -0.323 OA
HETATM   31  C   UNL     1      41.599  -8.061  -0.626  1.00  0.00     0.213 C 
ENDBRANCH  28  30
ENDBRANCH  10  28
TORSDOF 6
ENDMDL
MODEL 7
REMARK VINA RESULT:      -7.2      3.723      7.378
REMARK  6 active torsions:
REMARK  status: ('A' for Active; 'I' for Inactive)
REMARK    1  A    between atoms: C_7  and  S_8 
REMARK    2  A    between atoms: S_8  and  C_9 
REMARK    3  A    between atoms: C_9  and  C_10 
REMARK    4  A    between atoms: C_18  and  C_19 
REMARK    5  A    between atoms: C_26  and  C_27 
REMARK    6  A    between atoms: C_27  and  O_28 
ROOT
HETATM    1  C   UNL     1      38.603 -11.975   1.968  1.00  0.00     0.070 C 
HETATM    2  C   UNL     1      40.036 -12.260   2.349  1.00  0.00     0.037 A 
HETATM    3  N   UNL     1      40.540 -11.497   3.395  1.00  0.00    -0.192 N 
HETATM    4  C   UNL     1      41.803 -11.601   3.848  1.00  0.00     0.726 A 
HETATM    5  N   UNL     1      42.660 -12.483   3.251  1.00  0.00    -0.082 N 
HETATM    6  N   UNL     1      43.889 -12.423   3.806  1.00  0.00    -0.128 NA
HETATM    7  C   UNL     1      43.680 -11.534   4.785  1.00  0.00     0.226 A 
HETATM    8  N   UNL     1      42.417 -10.993   4.826  1.00  0.00    -0.035 NA
HETATM    9  C   UNL     1      42.282 -13.380   2.150  1.00  0.00     0.203 A 
HETATM   10  C   UNL     1      40.833 -13.166   1.731  1.00  0.00     0.070 A 
HETATM   11  H   UNL     1      39.912 -10.838   3.848  1.00  0.00     0.184 HD
ENDROOT
BRANCH   7  12
HETATM   12  S   UNL     1      44.877 -11.116   5.978  1.00  0.00    -0.083 SA
BRANCH  12  13
HETATM   13  C   UNL     1      44.088 -11.693   7.506  1.00  0.00     0.123 C 
BRANCH  13  14
HETATM   14  C   UNL     1      44.100 -10.617   8.570  1.00  0.00    -0.027 A 
HETATM   15  C   UNL     1      43.027  -9.736   8.781  1.00  0.00     0.041 A 
HETATM   16 CL   UNL     1      41.602  -9.779   7.806  1.00  0.00    -0.084 Cl
HETATM   17  C   UNL     1      43.082  -8.782   9.802  1.00  0.00     0.024 A 
HETATM   18  C   UNL     1      44.204  -8.693  10.625  1.00  0.00     0.002 A 
HETATM   19  C   UNL     1      45.275  -9.560  10.430  1.00  0.00     0.001 A 
HETATM   20  C   UNL     1      45.223 -10.516   9.415  1.00  0.00     0.009 A 
ENDBRANCH  13  14
ENDBRANCH  12  13
ENDBRANCH   7  12
BRANCH   9  21
HETATM   21  C   UNL     1      42.581 -14.829   2.529  1.00  0.00    -0.026 A 
HETATM   22  C   UNL     1      42.304 -15.280   3.832  1.00  0.00     0.033 A 
HETATM   23  C   UNL     1      42.588 -16.596   4.197  1.00  0.00     0.034 A 
HETATM   24 CL   UNL     1      42.251 -17.127   5.799  1.00  0.00    -0.084 Cl
HETATM   25  C   UNL     1      43.145 -17.482   3.277  1.00  0.00     0.024 A 
HETATM   26  C   UNL     1      43.425 -17.047   1.982  1.00  0.00     0.002 A 
HETATM   27  C   UNL     1      43.149 -15.729   1.611  1.00  0.00     0.010 A 
ENDBRANCH   9  21
BRANCH  10  28
HETATM   28  C   UNL     1      40.321 -14.037   0.655  1.00  0.00     0.293 C 
HETATM   29  O   UNL     1      39.778 -15.114   0.838  1.00  0.00    -0.259 OA
BRANCH  28  30
HETATM   30  O   UNL     1      40.554 -13.452  -0.547  1.00  0.00    -0.323 OA
HETATM   31  C   UNL     1      39.434 -13.503  -1.434  1.00  0.00     0.213 C 
ENDBRANCH  28  30
ENDBRANCH  10  28
TORSDOF 6
ENDMDL
MODEL 8
REMARK VINA RESULT:      -7.2      4.042      7.392
REMARK  6 active torsions:
REMARK  status: ('A' for Active; 'I' for Inactive)
REMARK    1  A    between atoms: C_7  and  S_8 
REMARK    2  A    between atoms: S_8  and  C_9 
REMARK    3  A    between atoms: C_9  and  C_10 
REMARK    4  A    between atoms: C_18  and  C_19 
REMARK    5  A    between atoms: C_26  and  C_27 
REMARK    6  A    between atoms: C_27  and  O_28 
ROOT
HETATM    1  C   UNL     1      35.611  -9.799   0.490  1.00  0.00     0.070 C 
HETATM    2  C   UNL     1      37.030 -10.293   0.632  1.00  0.00     0.037 A 
HETATM    3  N   UNL     1      37.342 -10.873   1.856  1.00  0.00    -0.192 N 
HETATM    4  C   UNL     1      38.565 -11.343   2.164  1.00  0.00     0.726 A 
HETATM    5  N   UNL     1      39.575 -11.239   1.250  1.00  0.00    -0.082 N 
HETATM    6  N   UNL     1      40.734 -11.722   1.743  1.00  0.00    -0.128 NA
HETATM    7  C   UNL     1      40.331 -12.172   2.939  1.00  0.00     0.226 A 
HETATM    8  N   UNL     1      39.010 -11.936   3.238  1.00  0.00    -0.035 NA
HETATM    9  C   UNL     1      39.410 -10.674  -0.097  1.00  0.00     0.203 A 
HETATM   10  C   UNL     1      37.986 -10.180  -0.322  1.00  0.00     0.070 A 
HETATM   11  H   UNL     1      36.598 -10.957   2.544  1.00  0.00     0.184 HD
ENDROOT
BRANCH   7  12
HETATM   12  S   UNL     1      41.358 -13.054   4.033  1.00  0.00    -0.083 SA
BRANCH  12  13
HETATM   13  C   UNL     1      40.620 -14.709   3.975  1.00  0.00     0.123 C 
BRANCH  13  14
HETATM   14  C   UNL     1      41.633 -15.748   3.548  1.00  0.00    -0.027 A 
HETATM   15  C   UNL     1      41.958 -15.994   2.205  1.00  0.00     0.041 A 
HETATM   16 CL   UNL     1      41.189 -15.151   0.908  1.00  0.00    -0.084 Cl
HETATM   17  C   UNL     1      42.928 -16.946   1.871  1.00  0.00     0.024 A 
HETATM   18  C   UNL     1      43.584 -17.663   2.870  1.00  0.00     0.002 A 
HETATM   19  C   UNL     1      43.276 -17.429   4.207  1.00  0.00     0.001 A 
HETATM   20  C   UNL     1      42.312 -16.478   4.544  1.00  0.00     0.009 A 
ENDBRANCH  13  14
ENDBRANCH  12  13
ENDBRANCH   7  12
BRANCH   9  21
HETATM   21  C   UNL     1      39.858 -11.688  -1.148  1.00  0.00    -0.026 A 
HETATM   22  C   UNL     1      39.200 -12.927  -1.246  1.00  0.00     0.033 A 
HETATM   23  C   UNL     1      39.609 -13.870  -2.189  1.00  0.00     0.034 A 
HETATM   24 CL   UNL     1      38.798 -15.384  -2.288  1.00  0.00    -0.084 Cl
HETATM   25  C   UNL     1      40.670 -13.596  -3.049  1.00  0.00     0.024 A 
HETATM   26  C   UNL     1      41.332 -12.372  -2.962  1.00  0.00     0.002 A 
HETATM   27  C   UNL     1      40.932 -11.425  -2.016  1.00  0.00     0.010 A 
ENDBRANCH   9  21
BRANCH  10  28
HETATM   28  C   UNL     1      37.684  -9.623  -1.655  1.00  0.00     0.293 C 
HETATM   29  O   UNL     1      38.022  -8.513  -2.031  1.00  0.00    -0.259 OA
BRANCH  28  30
HETATM   30  O   UNL     1      36.978 -10.532  -2.375  1.00  0.00    -0.323 OA
HETATM   31  C   UNL     1      36.009  -9.943  -3.245  1.00  0.00     0.213 C 
ENDBRANCH  28  30
ENDBRANCH  10  28
TORSDOF 6
ENDMDL
MODEL 9
REMARK VINA RESULT:      -7.0      6.165      9.967
REMARK  6 active torsions:
REMARK  status: ('A' for Active; 'I' for Inactive)
REMARK    1  A    between atoms: C_7  and  S_8 
REMARK    2  A    between atoms: S_8  and  C_9 
REMARK    3  A    between atoms: C_9  and  C_10 
REMARK    4  A    between atoms: C_18  and  C_19 
REMARK    5  A    between atoms: C_26  and  C_27 
REMARK    6  A    between atoms: C_27  and  O_28 
ROOT
HETATM    1  C   UNL     1      39.772 -12.421   6.023  1.00  0.00     0.070 C 
HETATM    2  C   UNL     1      40.189 -11.186   6.784  1.00  0.00     0.037 A 
HETATM    3  N   UNL     1      39.209 -10.619   7.590  1.00  0.00    -0.192 N 
HETATM    4  C   UNL     1      39.398  -9.504   8.317  1.00  0.00     0.726 A 
HETATM    5  N   UNL     1      40.605  -8.864   8.263  1.00  0.00    -0.082 N 
HETATM    6  N   UNL     1      40.601  -7.746   9.019  1.00  0.00    -0.128 NA
HETATM    7  C   UNL     1      39.379  -7.814   9.562  1.00  0.00     0.226 A 
HETATM    8  N   UNL     1      38.606  -8.868   9.137  1.00  0.00    -0.035 NA
HETATM    9  C   UNL     1      41.754  -9.340   7.481  1.00  0.00     0.203 A 
HETATM   10  C   UNL     1      41.413 -10.607   6.706  1.00  0.00     0.070 A 
HETATM   11  H   UNL     1      38.307 -11.087   7.639  1.00  0.00     0.184 HD
ENDROOT
BRANCH   7  12
HETATM   12  S   UNL     1      38.799  -6.705  10.772  1.00  0.00    -0.083 SA
BRANCH  12  13
HETATM   13  C   UNL     1      38.905  -7.714  12.276  1.00  0.00     0.123 C 
BRANCH  13  14
HETATM   14  C   UNL     1      40.337  -7.850  12.746  1.00  0.00    -0.027 A 
HETATM   15  C   UNL     1      40.892  -9.067  13.170  1.00  0.00     0.041 A 
HETATM   16 CL   UNL     1      39.965 -10.524  13.231  1.00  0.00    -0.084 Cl
HETATM   17  C   UNL     1      42.233  -9.138  13.564  1.00  0.00     0.024 A 
HETATM   18  C   UNL     1      43.036  -7.999  13.540  1.00  0.00     0.002 A 
HETATM   19  C   UNL     1      42.501  -6.784  13.120  1.00  0.00     0.001 A 
HETATM   20  C   UNL     1      41.165  -6.710  12.722  1.00  0.00     0.009 A 
ENDBRANCH  13  14
ENDBRANCH  12  13
ENDBRANCH   7  12
BRANCH   9  21
HETATM   21  C   UNL     1      42.970  -9.512   8.389  1.00  0.00    -0.026 A 
HETATM   22  C   UNL     1      44.263  -9.327   7.866  1.00  0.00     0.033 A 
HETATM   23  C   UNL     1      45.383  -9.498   8.679  1.00  0.00     0.034 A 
HETATM   24 CL   UNL     1      46.956  -9.275   8.019  1.00  0.00    -0.084 Cl
HETATM   25  C   UNL     1      45.238  -9.850  10.019  1.00  0.00     0.024 A 
HETATM   26  C   UNL     1      43.963 -10.039  10.549  1.00  0.00     0.002 A 
HETATM   27  C   UNL     1      42.836  -9.875   9.741  1.00  0.00     0.010 A 
ENDBRANCH   9  21
BRANCH  10  28
HETATM   28  C   UNL     1      42.500 -11.207   5.908  1.00  0.00     0.293 C 
HETATM   29  O   UNL     1      43.118 -12.209   6.228  1.00  0.00    -0.259 OA
BRANCH  28  30
HETATM   30  O   UNL     1      42.694 -10.471   4.785  1.00  0.00    -0.323 OA
HETATM   31  C   UNL     1      43.126 -11.244   3.663  1.00  0.00     0.213 C 
ENDBRANCH  28  30
ENDBRANCH  10  28
TORSDOF 6
ENDMDL
MODEL 10
REMARK VINA RESULT:      -6.9      3.376      6.811
REMARK  6 active torsions:
REMARK  status: ('A' for Active; 'I' for Inactive)
REMARK    1  A    between atoms: C_7  and  S_8 
REMARK    2  A    between atoms: S_8  and  C_9 
REMARK    3  A    between atoms: C_9  and  C_10 
REMARK    4  A    between atoms: C_18  and  C_19 
REMARK    5  A    between atoms: C_26  and  C_27 
REMARK    6  A    between atoms: C_27  and  O_28 
ROOT
HETATM    1  C   UNL     1      39.440  -9.308   7.389  1.00  0.00     0.070 C 
HETATM    2  C   UNL     1      39.984 -10.260   6.351  1.00  0.00     0.037 A 
HETATM    3  N   UNL     1      39.883 -11.610   6.665  1.00  0.00    -0.192 N 
HETATM    4  C   UNL     1      40.338 -12.593   5.868  1.00  0.00     0.726 A 
HETATM    5  N   UNL     1      40.955 -12.273   4.691  1.00  0.00    -0.082 N 
HETATM    6  N   UNL     1      41.382 -13.378   4.045  1.00  0.00    -0.128 NA
HETATM    7  C   UNL     1      40.921 -14.338   4.857  1.00  0.00     0.226 A 
HETATM    8  N   UNL     1      40.294 -13.891   5.996  1.00  0.00    -0.035 NA
HETATM    9  C   UNL     1      41.123 -10.899   4.198  1.00  0.00     0.203 A 
HETATM   10  C   UNL     1      40.567  -9.881   5.187  1.00  0.00     0.070 A 
HETATM   11  H   UNL     1      39.425 -11.861   7.538  1.00  0.00     0.184 HD
ENDROOT
BRANCH   7  12
HETATM   12  S   UNL     1      41.030 -16.038   4.498  1.00  0.00    -0.083 SA
BRANCH  12  13
HETATM   13  C   UNL     1      42.580 -16.116   3.560  1.00  0.00     0.123 C 
BRANCH  13  14
HETATM   14  C   UNL     1      43.086 -17.538   3.453  1.00  0.00    -0.027 A 
HETATM   15  C   UNL     1      43.790 -18.180   4.483  1.00  0.00     0.041 A 
HETATM   16 CL   UNL     1      44.180 -17.378   5.964  1.00  0.00    -0.084 Cl
HETATM   17  C   UNL     1      44.206 -19.508   4.340  1.00  0.00     0.024 A 
HETATM   18  C   UNL     1      43.926 -20.212   3.169  1.00  0.00     0.002 A 
HETATM   19  C   UNL     1      43.227 -19.590   2.139  1.00  0.00     0.001 A 
HETATM   20  C   UNL     1      42.807 -18.267   2.280  1.00  0.00     0.009 A 
ENDBRANCH  13  14
ENDBRANCH  12  13
ENDBRANCH   7  12
BRANCH   9  21
HETATM   21  C   UNL     1      40.513 -10.763   2.805  1.00  0.00    -0.026 A 
HETATM   22  C   UNL     1      39.144 -11.020   2.615  1.00  0.00     0.033 A 
HETATM   23  C   UNL     1      38.576 -10.918   1.345  1.00  0.00     0.034 A 
HETATM   24 CL   UNL     1      36.900 -11.246   1.132  1.00  0.00    -0.084 Cl
HETATM   25  C   UNL     1      39.356 -10.556   0.249  1.00  0.00     0.024 A 
HETATM   26  C   UNL     1      40.715 -10.299   0.423  1.00  0.00     0.002 A 
HETATM   27  C   UNL     1      41.292 -10.406   1.690  1.00  0.00     0.010 A 
ENDBRANCH   9  21
BRANCH  10  28
HETATM   28  C   UNL     1      40.644  -8.462   4.789  1.00  0.00     0.293 C 
HETATM   29  O   UNL     1      41.677  -7.814   4.745  1.00  0.00    -0.259 OA
BRANCH  28  30
HETATM   30  O   UNL     1      39.401  -8.009   4.489  1.00  0.00    -0.323 OA
HETATM   31  C   UNL     1      39.329  -7.322   3.238  1.00  0.00     0.213 C 
ENDBRANCH  28  30
ENDBRANCH  10  28
TORSDOF 6
ENDMDL
