MODEL 1
REMARK VINA RESULT:      -8.8      0.000      0.000
REMARK  4 active torsions:
REMARK  status: ('A' for Active; 'I' for Inactive)
REMARK    1  A    between atoms: C_2  and  C_3 
REMARK    2  A    between atoms: C_3  and  C_4 
REMARK       I    between atoms: C_4  and  N_5 
REMARK    3  A    between atoms: N_5  and  C_6 
REMARK    4  A    between atoms: C_13  and  C_14 
REMARK       I    between atoms: C_14  and  N_15 
ROOT
HETATM    1  C   UNL     1      40.233 -14.678   3.460  1.00  0.00     0.035 A 
HETATM    2  C   UNL     1      40.585 -13.432   2.941  1.00  0.00     0.046 A 
HETATM    3  C   UNL     1      40.683 -13.251   1.542  1.00  0.00     0.030 A 
HETATM    4  C   UNL     1      40.379 -14.313   0.704  1.00  0.00     0.063 A 
HETATM    5  N   UNL     1      40.577 -13.841  -0.564  1.00  0.00    -0.277 N 
HETATM    6  H   UNL     1      40.451 -14.346  -1.435  1.00  0.00     0.189 HD
HETATM    7  N   UNL     1      41.021 -12.574  -0.623  1.00  0.00    -0.168 NA
HETATM    8  C   UNL     1      41.091 -12.196   0.674  1.00  0.00     0.156 A 
HETATM    9  C   UNL     1      39.986 -15.564   1.179  1.00  0.00     0.034 A 
HETATM   10  C   UNL     1      39.942 -15.725   2.573  1.00  0.00     0.032 A 
ENDROOT
BRANCH   1  11
HETATM   11  N   UNL     1      40.265 -15.007   4.824  1.00  0.00    -0.326 N 
HETATM   12  C   UNL     1      41.152 -15.665   5.641  1.00  0.00     0.235 C 
HETATM   13  O   UNL     1      40.750 -16.032   6.748  1.00  0.00    -0.272 OA
HETATM   14  H   UNL     1      39.434 -14.765   5.352  1.00  0.00     0.169 HD
BRANCH  12  15
HETATM   15  C   UNL     1      42.626 -15.774   5.329  1.00  0.00     0.068 A 
HETATM   16  C   UNL     1      43.671 -15.061   6.180  1.00  0.00     0.026 A 
HETATM   17  C   UNL     1      43.300 -14.452   4.879  1.00  0.00     0.026 A 
BRANCH  15  18
HETATM   18  C   UNL     1      43.010 -16.975   4.453  1.00  0.00    -0.040 A 
HETATM   19  C   UNL     1      43.655 -18.092   5.024  1.00  0.00     0.010 A 
HETATM   20  C   UNL     1      44.026 -19.201   4.258  1.00  0.00     0.024 A 
HETATM   21  C   UNL     1      43.766 -19.207   2.894  1.00  0.00     0.034 A 
HETATM   22  C   UNL     1      43.138 -18.118   2.296  1.00  0.00     0.024 A 
HETATM   23 CL   UNL     1      44.223 -20.565   1.942  1.00  0.00    -0.084 Cl
HETATM   24  C   UNL     1      42.763 -17.013   3.070  1.00  0.00     0.010 A 
ENDBRANCH  15  18
ENDBRANCH  12  15
ENDBRANCH   1  11
BRANCH   8  25
HETATM   25  C   UNL     1      41.574 -10.863   1.062  1.00  0.00     0.270 C 
HETATM   26  N   UNL     1      41.045  -9.838   0.326  1.00  0.00    -0.365 N 
HETATM   27  H   UNL     1      40.397 -10.060  -0.422  1.00  0.00     0.159 HD
HETATM   28  H   UNL     1      41.351  -8.893   0.491  1.00  0.00     0.159 HD
HETATM   29  O   UNL     1      42.393 -10.656   1.951  1.00  0.00    -0.266 OA
ENDBRANCH   8  25
TORSDOF 4
ENDMDL
MODEL 2
REMARK VINA RESULT:      -8.7      3.429      4.935
REMARK  4 active torsions:
REMARK  status: ('A' for Active; 'I' for Inactive)
REMARK    1  A    between atoms: C_2  and  C_3 
REMARK    2  A    between atoms: C_3  and  C_4 
REMARK       I    between atoms: C_4  and  N_5 
REMARK    3  A    between atoms: N_5  and  C_6 
REMARK    4  A    between atoms: C_13  and  C_14 
REMARK       I    between atoms: C_14  and  N_15 
ROOT
HETATM    1  C   UNL     1      40.257 -14.288   1.009  1.00  0.00     0.035 A 
HETATM    2  C   UNL     1      39.740 -14.717  -0.213  1.00  0.00     0.046 A 
HETATM    3  C   UNL     1      39.824 -13.880  -1.350  1.00  0.00     0.030 A 
HETATM    4  C   UNL     1      40.466 -12.657  -1.237  1.00  0.00     0.063 A 
HETATM    5  N   UNL     1      40.374 -12.084  -2.476  1.00  0.00    -0.277 N 
HETATM    6  H   UNL     1      40.735 -11.182  -2.765  1.00  0.00     0.189 HD
HETATM    7  N   UNL     1      39.692 -12.814  -3.377  1.00  0.00    -0.168 NA
HETATM    8  C   UNL     1      39.346 -13.928  -2.693  1.00  0.00     0.156 A 
HETATM    9  C   UNL     1      41.031 -12.205  -0.046  1.00  0.00     0.034 A 
HETATM   10  C   UNL     1      40.892 -13.038   1.075  1.00  0.00     0.032 A 
ENDROOT
BRANCH   1  11
HETATM   11  N   UNL     1      40.083 -14.964   2.226  1.00  0.00    -0.326 N 
HETATM   12  C   UNL     1      40.907 -15.675   3.065  1.00  0.00     0.235 C 
HETATM   13  O   UNL     1      40.378 -16.383   3.925  1.00  0.00    -0.272 OA
HETATM   14  H   UNL     1      39.132 -15.003   2.573  1.00  0.00     0.169 HD
BRANCH  12  15
HETATM   15  C   UNL     1      42.403 -15.470   3.111  1.00  0.00     0.068 A 
HETATM   16  C   UNL     1      43.276 -15.740   1.890  1.00  0.00     0.026 A 
HETATM   17  C   UNL     1      43.245 -16.764   2.963  1.00  0.00     0.026 A 
BRANCH  15  18
HETATM   18  C   UNL     1      42.893 -14.557   4.244  1.00  0.00    -0.040 A 
HETATM   19  C   UNL     1      43.088 -13.180   4.010  1.00  0.00     0.010 A 
HETATM   20  C   UNL     1      43.539 -12.319   5.013  1.00  0.00     0.024 A 
HETATM   21  C   UNL     1      43.818 -12.826   6.276  1.00  0.00     0.034 A 
HETATM   22  C   UNL     1      43.645 -14.183   6.539  1.00  0.00     0.024 A 
HETATM   23 CL   UNL     1      44.378 -11.775   7.516  1.00  0.00    -0.084 Cl
HETATM   24  C   UNL     1      43.186 -15.039   5.530  1.00  0.00     0.010 A 
ENDBRANCH  15  18
ENDBRANCH  12  15
ENDBRANCH   1  11
BRANCH   8  25
HETATM   25  C   UNL     1      38.544 -14.993  -3.312  1.00  0.00     0.270 C 
HETATM   26  N   UNL     1      38.372 -16.098  -2.524  1.00  0.00    -0.365 N 
HETATM   27  H   UNL     1      38.811 -16.116  -1.610  1.00  0.00     0.159 HD
HETATM   28  H   UNL     1      37.874 -16.896  -2.882  1.00  0.00     0.159 HD
HETATM   29  O   UNL     1      38.070 -14.933  -4.443  1.00  0.00    -0.266 OA
ENDBRANCH   8  25
TORSDOF 4
ENDMDL
MODEL 3
REMARK VINA RESULT:      -8.2      4.764      6.304
REMARK  4 active torsions:
REMARK  status: ('A' for Active; 'I' for Inactive)
REMARK    1  A    between atoms: C_2  and  C_3 
REMARK    2  A    between atoms: C_3  and  C_4 
REMARK       I    between atoms: C_4  and  N_5 
REMARK    3  A    between atoms: N_5  and  C_6 
REMARK    4  A    between atoms: C_13  and  C_14 
REMARK       I    between atoms: C_14  and  N_15 
ROOT
HETATM    1  C   UNL     1      43.227 -11.873   6.700  1.00  0.00     0.035 A 
HETATM    2  C   UNL     1      43.102 -10.598   7.250  1.00  0.00     0.046 A 
HETATM    3  C   UNL     1      44.258  -9.856   7.586  1.00  0.00     0.030 A 
HETATM    4  C   UNL     1      45.506 -10.399   7.318  1.00  0.00     0.063 A 
HETATM    5  N   UNL     1      46.407  -9.469   7.759  1.00  0.00    -0.277 N 
HETATM    6  H   UNL     1      47.419  -9.529   7.725  1.00  0.00     0.189 HD
HETATM    7  N   UNL     1      45.853  -8.384   8.329  1.00  0.00    -0.168 NA
HETATM    8  C   UNL     1      44.524  -8.610   8.228  1.00  0.00     0.156 A 
HETATM    9  C   UNL     1      45.676 -11.653   6.734  1.00  0.00     0.034 A 
HETATM   10  C   UNL     1      44.511 -12.383   6.454  1.00  0.00     0.032 A 
ENDROOT
BRANCH   1  11
HETATM   11  N   UNL     1      42.155 -12.752   6.483  1.00  0.00    -0.326 N 
HETATM   12  C   UNL     1      41.555 -13.293   5.371  1.00  0.00     0.235 C 
HETATM   13  O   UNL     1      40.449 -13.818   5.513  1.00  0.00    -0.272 OA
HETATM   14  H   UNL     1      41.648 -13.037   7.313  1.00  0.00     0.169 HD
BRANCH  12  15
HETATM   15  C   UNL     1      42.270 -13.447   4.049  1.00  0.00     0.068 A 
HETATM   16  C   UNL     1      42.910 -12.252   3.351  1.00  0.00     0.026 A 
HETATM   17  C   UNL     1      41.595 -12.727   2.852  1.00  0.00     0.026 A 
BRANCH  15  18
HETATM   18  C   UNL     1      42.711 -14.881   3.720  1.00  0.00    -0.040 A 
HETATM   19  C   UNL     1      42.818 -15.299   2.378  1.00  0.00     0.010 A 
HETATM   20  C   UNL     1      43.210 -16.597   2.038  1.00  0.00     0.024 A 
HETATM   21  C   UNL     1      43.491 -17.511   3.045  1.00  0.00     0.034 A 
HETATM   22  C   UNL     1      43.387 -17.134   4.382  1.00  0.00     0.024 A 
HETATM   23 CL   UNL     1      43.969 -19.112   2.638  1.00  0.00    -0.084 Cl
HETATM   24  C   UNL     1      43.001 -15.830   4.714  1.00  0.00     0.010 A 
ENDBRANCH  15  18
ENDBRANCH  12  15
ENDBRANCH   1  11
BRANCH   8  25
HETATM   25  C   UNL     1      43.539  -7.664   8.770  1.00  0.00     0.270 C 
HETATM   26  N   UNL     1      43.172  -7.914  10.064  1.00  0.00    -0.365 N 
HETATM   27  H   UNL     1      43.573  -8.717  10.536  1.00  0.00     0.159 HD
HETATM   28  H   UNL     1      42.469  -7.343  10.505  1.00  0.00     0.159 HD
HETATM   29  O   UNL     1      43.056  -6.730   8.137  1.00  0.00    -0.266 OA
ENDBRANCH   8  25
TORSDOF 4
ENDMDL
MODEL 4
REMARK VINA RESULT:      -8.1      2.932      4.499
REMARK  4 active torsions:
REMARK  status: ('A' for Active; 'I' for Inactive)
REMARK    1  A    between atoms: C_2  and  C_3 
REMARK    2  A    between atoms: C_3  and  C_4 
REMARK       I    between atoms: C_4  and  N_5 
REMARK    3  A    between atoms: N_5  and  C_6 
REMARK    4  A    between atoms: C_13  and  C_14 
REMARK       I    between atoms: C_14  and  N_15 
ROOT
HETATM    1  C   UNL     1      40.450 -13.598   4.013  1.00  0.00     0.035 A 
HETATM    2  C   UNL     1      41.412 -13.463   5.014  1.00  0.00     0.046 A 
HETATM    3  C   UNL     1      41.742 -12.181   5.510  1.00  0.00     0.030 A 
HETATM    4  C   UNL     1      41.063 -11.076   5.020  1.00  0.00     0.063 A 
HETATM    5  N   UNL     1      41.604 -10.001   5.670  1.00  0.00    -0.277 N 
HETATM    6  H   UNL     1      41.351  -9.025   5.561  1.00  0.00     0.189 HD
HETATM    7  N   UNL     1      42.606 -10.307   6.513  1.00  0.00    -0.168 NA
HETATM    8  C   UNL     1      42.701 -11.653   6.425  1.00  0.00     0.156 A 
HETATM    9  C   UNL     1      40.068 -11.168   4.048  1.00  0.00     0.034 A 
HETATM   10  C   UNL     1      39.795 -12.449   3.544  1.00  0.00     0.032 A 
ENDROOT
BRANCH   1  11
HETATM   11  N   UNL     1      40.166 -14.796   3.341  1.00  0.00    -0.326 N 
HETATM   12  C   UNL     1      40.874 -15.635   2.515  1.00  0.00     0.235 C 
HETATM   13  O   UNL     1      40.240 -16.468   1.863  1.00  0.00    -0.272 OA
HETATM   14  H   UNL     1      39.210 -15.125   3.419  1.00  0.00     0.169 HD
BRANCH  12  15
HETATM   15  C   UNL     1      42.383 -15.711   2.524  1.00  0.00     0.068 A 
HETATM   16  C   UNL     1      43.240 -14.469   2.306  1.00  0.00     0.026 A 
HETATM   17  C   UNL     1      43.062 -15.401   1.165  1.00  0.00     0.026 A 
BRANCH  15  18
HETATM   18  C   UNL     1      42.959 -16.955   3.216  1.00  0.00    -0.040 A 
HETATM   19  C   UNL     1      43.202 -18.130   2.475  1.00  0.00     0.010 A 
HETATM   20  C   UNL     1      43.719 -19.283   3.070  1.00  0.00     0.024 A 
HETATM   21  C   UNL     1      43.993 -19.286   4.432  1.00  0.00     0.034 A 
HETATM   22  C   UNL     1      43.756 -18.146   5.196  1.00  0.00     0.024 A 
HETATM   23 CL   UNL     1      44.625 -20.703   5.175  1.00  0.00    -0.084 Cl
HETATM   24  C   UNL     1      43.245 -16.991   4.591  1.00  0.00     0.010 A 
ENDBRANCH  15  18
ENDBRANCH  12  15
ENDBRANCH   1  11
BRANCH   8  25
HETATM   25  C   UNL     1      43.716 -12.404   7.177  1.00  0.00     0.270 C 
HETATM   26  N   UNL     1      43.299 -13.631   7.613  1.00  0.00    -0.365 N 
HETATM   27  H   UNL     1      42.347 -13.921   7.414  1.00  0.00     0.159 HD
HETATM   28  H   UNL     1      43.912 -14.199   8.176  1.00  0.00     0.159 HD
HETATM   29  O   UNL     1      44.843 -11.986   7.425  1.00  0.00    -0.266 OA
ENDBRANCH   8  25
TORSDOF 4
ENDMDL
MODEL 5
REMARK VINA RESULT:      -8.1      2.927      4.658
REMARK  4 active torsions:
REMARK  status: ('A' for Active; 'I' for Inactive)
REMARK    1  A    between atoms: C_2  and  C_3 
REMARK    2  A    between atoms: C_3  and  C_4 
REMARK       I    between atoms: C_4  and  N_5 
REMARK    3  A    between atoms: N_5  and  C_6 
REMARK    4  A    between atoms: C_13  and  C_14 
REMARK       I    between atoms: C_14  and  N_15 
ROOT
HETATM    1  C   UNL     1      42.915 -16.212   5.343  1.00  0.00     0.035 A 
HETATM    2  C   UNL     1      43.010 -14.838   5.125  1.00  0.00     0.046 A 
HETATM    3  C   UNL     1      41.866 -14.019   5.265  1.00  0.00     0.030 A 
HETATM    4  C   UNL     1      40.671 -14.597   5.666  1.00  0.00     0.063 A 
HETATM    5  N   UNL     1      39.766 -13.572   5.697  1.00  0.00    -0.277 N 
HETATM    6  H   UNL     1      38.784 -13.626   5.948  1.00  0.00     0.189 HD
HETATM    7  N   UNL     1      40.260 -12.382   5.313  1.00  0.00    -0.168 NA
HETATM    8  C   UNL     1      41.559 -12.644   5.043  1.00  0.00     0.156 A 
HETATM    9  C   UNL     1      40.541 -15.960   5.932  1.00  0.00     0.034 A 
HETATM   10  C   UNL     1      41.683 -16.753   5.741  1.00  0.00     0.032 A 
ENDROOT
BRANCH   1  11
HETATM   11  N   UNL     1      43.941 -17.131   5.075  1.00  0.00    -0.326 N 
HETATM   12  C   UNL     1      44.083 -18.206   4.231  1.00  0.00     0.235 C 
HETATM   13  O   UNL     1      45.020 -18.980   4.440  1.00  0.00    -0.272 OA
HETATM   14  H   UNL     1      44.768 -17.046   5.656  1.00  0.00     0.169 HD
BRANCH  12  15
HETATM   15  C   UNL     1      43.277 -18.363   2.963  1.00  0.00     0.068 A 
HETATM   16  C   UNL     1      42.676 -19.708   2.569  1.00  0.00     0.026 A 
HETATM   17  C   UNL     1      43.921 -19.276   1.887  1.00  0.00     0.026 A 
BRANCH  15  18
HETATM   18  C   UNL     1      42.721 -17.053   2.388  1.00  0.00    -0.040 A 
HETATM   19  C   UNL     1      41.328 -16.841   2.324  1.00  0.00     0.010 A 
HETATM   20  C   UNL     1      40.784 -15.665   1.802  1.00  0.00     0.024 A 
HETATM   21  C   UNL     1      41.631 -14.675   1.319  1.00  0.00     0.034 A 
HETATM   22  C   UNL     1      43.012 -14.855   1.359  1.00  0.00     0.024 A 
HETATM   23 CL   UNL     1      40.971 -13.226   0.670  1.00  0.00    -0.084 Cl
HETATM   24  C   UNL     1      43.550 -16.034   1.890  1.00  0.00     0.010 A 
ENDBRANCH  15  18
ENDBRANCH  12  15
ENDBRANCH   1  11
BRANCH   8  25
HETATM   25  C   UNL     1      42.468 -11.600   4.550  1.00  0.00     0.270 C 
HETATM   26  N   UNL     1      42.738 -11.678   3.211  1.00  0.00    -0.365 N 
HETATM   27  H   UNL     1      42.326 -12.434   2.674  1.00  0.00     0.159 HD
HETATM   28  H   UNL     1      43.386 -11.031   2.792  1.00  0.00     0.159 HD
HETATM   29  O   UNL     1      42.971 -10.731   5.255  1.00  0.00    -0.266 OA
ENDBRANCH   8  25
TORSDOF 4
ENDMDL
MODEL 6
REMARK VINA RESULT:      -8.1      2.042      2.821
REMARK  4 active torsions:
REMARK  status: ('A' for Active; 'I' for Inactive)
REMARK    1  A    between atoms: C_2  and  C_3 
REMARK    2  A    between atoms: C_3  and  C_4 
REMARK       I    between atoms: C_4  and  N_5 
REMARK    3  A    between atoms: N_5  and  C_6 
REMARK    4  A    between atoms: C_13  and  C_14 
REMARK       I    between atoms: C_14  and  N_15 
ROOT
HETATM    1  C   UNL     1      41.829 -12.725   3.947  1.00  0.00     0.035 A 
HETATM    2  C   UNL     1      41.534 -13.071   2.629  1.00  0.00     0.046 A 
HETATM    3  C   UNL     1      40.356 -12.584   2.017  1.00  0.00     0.030 A 
HETATM    4  C   UNL     1      39.533 -11.726   2.731  1.00  0.00     0.063 A 
HETATM    5  N   UNL     1      38.489 -11.445   1.893  1.00  0.00    -0.277 N 
HETATM    6  H   UNL     1      37.692 -10.847   2.082  1.00  0.00     0.189 HD
HETATM    7  N   UNL     1      38.542 -12.077   0.707  1.00  0.00    -0.168 NA
HETATM    8  C   UNL     1      39.693 -12.785   0.770  1.00  0.00     0.156 A 
HETATM    9  C   UNL     1      39.809 -11.324   4.037  1.00  0.00     0.034 A 
HETATM   10  C   UNL     1      40.962 -11.860   4.632  1.00  0.00     0.032 A 
ENDROOT
BRANCH   1  11
HETATM   11  N   UNL     1      42.878 -13.279   4.698  1.00  0.00    -0.326 N 
HETATM   12  C   UNL     1      42.999 -14.351   5.549  1.00  0.00     0.235 C 
HETATM   13  O   UNL     1      43.999 -14.402   6.269  1.00  0.00    -0.272 OA
HETATM   14  H   UNL     1      43.752 -12.768   4.670  1.00  0.00     0.169 HD
BRANCH  12  15
HETATM   15  C   UNL     1      42.078 -15.547   5.496  1.00  0.00     0.068 A 
HETATM   16  C   UNL     1      40.624 -15.447   5.945  1.00  0.00     0.026 A 
HETATM   17  C   UNL     1      41.600 -16.066   6.877  1.00  0.00     0.026 A 
BRANCH  15  18
HETATM   18  C   UNL     1      42.537 -16.670   4.555  1.00  0.00    -0.040 A 
HETATM   19  C   UNL     1      43.509 -17.599   4.982  1.00  0.00     0.010 A 
HETATM   20  C   UNL     1      43.957 -18.630   4.153  1.00  0.00     0.024 A 
HETATM   21  C   UNL     1      43.445 -18.745   2.866  1.00  0.00     0.034 A 
HETATM   22  C   UNL     1      42.490 -17.840   2.410  1.00  0.00     0.024 A 
HETATM   23 CL   UNL     1      43.994 -20.008   1.837  1.00  0.00    -0.084 Cl
HETATM   24  C   UNL     1      42.041 -16.813   3.249  1.00  0.00     0.010 A 
ENDBRANCH  15  18
ENDBRANCH  12  15
ENDBRANCH   1  11
BRANCH   8  25
HETATM   25  C   UNL     1      40.119 -13.660  -0.331  1.00  0.00     0.270 C 
HETATM   26  N   UNL     1      41.074 -13.114  -1.145  1.00  0.00    -0.365 N 
HETATM   27  H   UNL     1      41.395 -12.171  -0.953  1.00  0.00     0.159 HD
HETATM   28  H   UNL     1      41.395 -13.623  -1.952  1.00  0.00     0.159 HD
HETATM   29  O   UNL     1      39.665 -14.780  -0.540  1.00  0.00    -0.266 OA
ENDBRANCH   8  25
TORSDOF 4
ENDMDL
MODEL 7
REMARK VINA RESULT:      -8.1      1.672      2.629
REMARK  4 active torsions:
REMARK  status: ('A' for Active; 'I' for Inactive)
REMARK    1  A    between atoms: C_2  and  C_3 
REMARK    2  A    between atoms: C_3  and  C_4 
REMARK       I    between atoms: C_4  and  N_5 
REMARK    3  A    between atoms: N_5  and  C_6 
REMARK    4  A    between atoms: C_13  and  C_14 
REMARK       I    between atoms: C_14  and  N_15 
ROOT
HETATM    1  C   UNL     1      40.645 -13.587   4.595  1.00  0.00     0.035 A 
HETATM    2  C   UNL     1      40.366 -13.838   3.251  1.00  0.00     0.046 A 
HETATM    3  C   UNL     1      40.732 -12.893   2.265  1.00  0.00     0.030 A 
HETATM    4  C   UNL     1      41.409 -11.747   2.651  1.00  0.00     0.063 A 
HETATM    5  N   UNL     1      41.608 -11.038   1.498  1.00  0.00    -0.277 N 
HETATM    6  H   UNL     1      42.074 -10.143   1.399  1.00  0.00     0.189 HD
HETATM    7  N   UNL     1      41.084 -11.608   0.398  1.00  0.00    -0.168 NA
HETATM    8  C   UNL     1      40.540 -12.757   0.858  1.00  0.00     0.156 A 
HETATM    9  C   UNL     1      41.742 -11.474   3.977  1.00  0.00     0.034 A 
HETATM   10  C   UNL     1      41.325 -12.409   4.937  1.00  0.00     0.032 A 
ENDROOT
BRANCH   1  11
HETATM   11  N   UNL     1      40.185 -14.374   5.661  1.00  0.00    -0.326 N 
HETATM   12  C   UNL     1      40.679 -15.455   6.352  1.00  0.00     0.235 C 
HETATM   13  O   UNL     1      39.894 -16.090   7.060  1.00  0.00    -0.272 OA
HETATM   14  H   UNL     1      39.252 -14.157   5.994  1.00  0.00     0.169 HD
BRANCH  12  15
HETATM   15  C   UNL     1      42.154 -15.768   6.436  1.00  0.00     0.068 A 
HETATM   16  C   UNL     1      42.942 -15.525   7.718  1.00  0.00     0.026 A 
HETATM   17  C   UNL     1      43.075 -14.534   6.622  1.00  0.00     0.026 A 
BRANCH  15  18
HETATM   18  C   UNL     1      42.665 -16.747   5.370  1.00  0.00    -0.040 A 
HETATM   19  C   UNL     1      42.271 -16.598   4.024  1.00  0.00     0.010 A 
HETATM   20  C   UNL     1      42.709 -17.473   3.026  1.00  0.00     0.024 A 
HETATM   21  C   UNL     1      43.547 -18.529   3.363  1.00  0.00     0.034 A 
HETATM   22  C   UNL     1      43.948 -18.711   4.684  1.00  0.00     0.024 A 
HETATM   23 CL   UNL     1      44.088 -19.614   2.143  1.00  0.00    -0.084 Cl
HETATM   24  C   UNL     1      43.510 -17.826   5.677  1.00  0.00     0.010 A 
ENDBRANCH  15  18
ENDBRANCH  12  15
ENDBRANCH   1  11
BRANCH   8  25
HETATM   25  C   UNL     1      39.821 -13.679  -0.033  1.00  0.00     0.270 C 
HETATM   26  N   UNL     1      38.739 -13.125  -0.660  1.00  0.00    -0.365 N 
HETATM   27  H   UNL     1      38.502 -12.159  -0.459  1.00  0.00     0.159 HD
HETATM   28  H   UNL     1      38.159 -13.693  -1.256  1.00  0.00     0.159 HD
HETATM   29  O   UNL     1      40.130 -14.853  -0.208  1.00  0.00    -0.266 OA
ENDBRANCH   8  25
TORSDOF 4
ENDMDL
MODEL 8
REMARK VINA RESULT:      -8.0      2.516      3.698
REMARK  4 active torsions:
REMARK  status: ('A' for Active; 'I' for Inactive)
REMARK    1  A    between atoms: C_2  and  C_3 
REMARK    2  A    between atoms: C_3  and  C_4 
REMARK       I    between atoms: C_4  and  N_5 
REMARK    3  A    between atoms: N_5  and  C_6 
REMARK    4  A    between atoms: C_13  and  C_14 
REMARK       I    between atoms: C_14  and  N_15 
ROOT
HETATM    1  C   UNL     1      40.001 -14.704   2.299  1.00  0.00     0.035 A 
HETATM    2  C   UNL     1      40.343 -13.379   2.028  1.00  0.00     0.046 A 
HETATM    3  C   UNL     1      40.528 -12.956   0.692  1.00  0.00     0.030 A 
HETATM    4  C   UNL     1      40.320 -13.863  -0.335  1.00  0.00     0.063 A 
HETATM    5  N   UNL     1      40.586 -13.173  -1.487  1.00  0.00    -0.277 N 
HETATM    6  H   UNL     1      40.536 -13.522  -2.438  1.00  0.00     0.189 HD
HETATM    7  N   UNL     1      40.987 -11.904  -1.294  1.00  0.00    -0.168 NA
HETATM    8  C   UNL     1      40.956 -11.756   0.050  1.00  0.00     0.156 A 
HETATM    9  C   UNL     1      39.940 -15.186  -0.113  1.00  0.00     0.034 A 
HETATM   10  C   UNL     1      39.808 -15.587   1.226  1.00  0.00     0.032 A 
ENDROOT
BRANCH   1  11
HETATM   11  N   UNL     1      39.953 -15.265   3.584  1.00  0.00    -0.326 N 
HETATM   12  C   UNL     1      40.857 -15.907   4.396  1.00  0.00     0.235 C 
HETATM   13  O   UNL     1      40.417 -16.528   5.366  1.00  0.00    -0.272 OA
HETATM   14  H   UNL     1      39.042 -15.259   4.030  1.00  0.00     0.169 HD
BRANCH  12  15
HETATM   15  C   UNL     1      42.350 -15.718   4.268  1.00  0.00     0.068 A 
HETATM   16  C   UNL     1      43.147 -16.427   3.177  1.00  0.00     0.026 A 
HETATM   17  C   UNL     1      43.196 -16.986   4.551  1.00  0.00     0.026 A 
BRANCH  15  18
HETATM   18  C   UNL     1      42.901 -14.460   4.954  1.00  0.00    -0.040 A 
HETATM   19  C   UNL     1      43.191 -14.475   6.334  1.00  0.00     0.010 A 
HETATM   20  C   UNL     1      43.686 -13.348   6.995  1.00  0.00     0.024 A 
HETATM   21  C   UNL     1      43.890 -12.172   6.284  1.00  0.00     0.034 A 
HETATM   22  C   UNL     1      43.606 -12.120   4.922  1.00  0.00     0.024 A 
HETATM   23 CL   UNL     1      44.496 -10.779   7.091  1.00  0.00    -0.084 Cl
HETATM   24  C   UNL     1      43.116 -13.255   4.264  1.00  0.00     0.010 A 
ENDBRANCH  15  18
ENDBRANCH  12  15
ENDBRANCH   1  11
BRANCH   8  25
HETATM   25  C   UNL     1      41.363 -10.500   0.695  1.00  0.00     0.270 C 
HETATM   26  N   UNL     1      40.677  -9.398   0.263  1.00  0.00    -0.365 N 
HETATM   27  H   UNL     1      39.975  -9.515  -0.460  1.00  0.00     0.159 HD
HETATM   28  H   UNL     1      40.918  -8.487   0.617  1.00  0.00     0.159 HD
HETATM   29  O   UNL     1      42.251 -10.411   1.537  1.00  0.00    -0.266 OA
ENDBRANCH   8  25
TORSDOF 4
ENDMDL
MODEL 9
REMARK VINA RESULT:      -8.0      2.950      6.571
REMARK  4 active torsions:
REMARK  status: ('A' for Active; 'I' for Inactive)
REMARK    1  A    between atoms: C_2  and  C_3 
REMARK    2  A    between atoms: C_3  and  C_4 
REMARK       I    between atoms: C_4  and  N_5 
REMARK    3  A    between atoms: N_5  and  C_6 
REMARK    4  A    between atoms: C_13  and  C_14 
REMARK       I    between atoms: C_14  and  N_15 
ROOT
HETATM    1  C   UNL     1      43.089 -13.792   2.923  1.00  0.00     0.035 A 
HETATM    2  C   UNL     1      43.043 -14.364   4.194  1.00  0.00     0.046 A 
HETATM    3  C   UNL     1      43.115 -15.768   4.340  1.00  0.00     0.030 A 
HETATM    4  C   UNL     1      43.280 -16.554   3.210  1.00  0.00     0.063 A 
HETATM    5  N   UNL     1      43.302 -17.843   3.665  1.00  0.00    -0.277 N 
HETATM    6  H   UNL     1      43.407 -18.689   3.115  1.00  0.00     0.189 HD
HETATM    7  N   UNL     1      43.125 -17.967   4.993  1.00  0.00    -0.168 NA
HETATM    8  C   UNL     1      43.009 -16.690   5.423  1.00  0.00     0.156 A 
HETATM    9  C   UNL     1      43.371 -16.022   1.924  1.00  0.00     0.034 A 
HETATM   10  C   UNL     1      43.250 -14.628   1.808  1.00  0.00     0.032 A 
ENDROOT
BRANCH   1  11
HETATM   11  N   UNL     1      42.864 -12.433   2.655  1.00  0.00    -0.326 N 
HETATM   12  C   UNL     1      41.824 -11.710   2.121  1.00  0.00     0.235 C 
HETATM   13  O   UNL     1      42.053 -10.553   1.763  1.00  0.00    -0.272 OA
HETATM   14  H   UNL     1      43.646 -11.815   2.837  1.00  0.00     0.169 HD
BRANCH  12  15
HETATM   15  C   UNL     1      40.393 -12.196   2.142  1.00  0.00     0.068 A 
HETATM   16  C   UNL     1      39.380 -11.631   3.130  1.00  0.00     0.026 A 
HETATM   17  C   UNL     1      39.979 -12.955   3.429  1.00  0.00     0.026 A 
BRANCH  15  18
HETATM   18  C   UNL     1      39.934 -12.896   0.854  1.00  0.00    -0.040 A 
HETATM   19  C   UNL     1      39.132 -12.206  -0.079  1.00  0.00     0.010 A 
HETATM   20  C   UNL     1      38.689 -12.810  -1.258  1.00  0.00     0.024 A 
HETATM   21  C   UNL     1      39.032 -14.130  -1.522  1.00  0.00     0.034 A 
HETATM   22  C   UNL     1      39.815 -14.843  -0.617  1.00  0.00     0.024 A 
HETATM   23 CL   UNL     1      38.487 -14.884  -2.968  1.00  0.00    -0.084 Cl
HETATM   24  C   UNL     1      40.261 -14.229   0.559  1.00  0.00     0.010 A 
ENDBRANCH  15  18
ENDBRANCH  12  15
ENDBRANCH   1  11
BRANCH   8  25
HETATM   25  C   UNL     1      42.766 -16.375   6.837  1.00  0.00     0.270 C 
HETATM   26  N   UNL     1      43.496 -17.129   7.715  1.00  0.00    -0.365 N 
HETATM   27  H   UNL     1      44.115 -17.842   7.345  1.00  0.00     0.159 HD
HETATM   28  H   UNL     1      43.363 -17.013   8.707  1.00  0.00     0.159 HD
HETATM   29  O   UNL     1      41.972 -15.526   7.230  1.00  0.00    -0.266 OA
ENDBRANCH   8  25
TORSDOF 4
ENDMDL
MODEL 10
REMARK VINA RESULT:      -7.9     14.928     16.850
REMARK  4 active torsions:
REMARK  status: ('A' for Active; 'I' for Inactive)
REMARK    1  A    between atoms: C_2  and  C_3 
REMARK    2  A    between atoms: C_3  and  C_4 
REMARK       I    between atoms: C_4  and  N_5 
REMARK    3  A    between atoms: N_5  and  C_6 
REMARK    4  A    between atoms: C_13  and  C_14 
REMARK       I    between atoms: C_14  and  N_15 
ROOT
HETATM    1  C   UNL     1      47.708 -28.634  -1.582  1.00  0.00     0.035 A 
HETATM    2  C   UNL     1      47.827 -28.658  -0.193  1.00  0.00     0.046 A 
HETATM    3  C   UNL     1      48.749 -29.534   0.423  1.00  0.00     0.030 A 
HETATM    4  C   UNL     1      49.559 -30.327  -0.376  1.00  0.00     0.063 A 
HETATM    5  N   UNL     1      50.319 -31.060   0.494  1.00  0.00    -0.277 N 
HETATM    6  H   UNL     1      51.026 -31.750   0.262  1.00  0.00     0.189 HD
HETATM    7  N   UNL     1      50.046 -30.840   1.792  1.00  0.00    -0.168 NA
HETATM    8  C   UNL     1      49.077 -29.898   1.763  1.00  0.00     0.156 A 
HETATM    9  C   UNL     1      49.501 -30.307  -1.769  1.00  0.00     0.034 A 
HETATM   10  C   UNL     1      48.544 -29.460  -2.349  1.00  0.00     0.032 A 
ENDROOT
BRANCH   1  11
HETATM   11  N   UNL     1      46.719 -27.927  -2.283  1.00  0.00    -0.326 N 
HETATM   12  C   UNL     1      45.666 -28.279  -3.093  1.00  0.00     0.235 C 
HETATM   13  O   UNL     1      45.151 -27.395  -3.781  1.00  0.00    -0.272 OA
HETATM   14  H   UNL     1      46.796 -26.917  -2.248  1.00  0.00     0.169 HD
BRANCH  12  15
HETATM   15  C   UNL     1      44.998 -29.632  -3.025  1.00  0.00     0.068 A 
HETATM   16  C   UNL     1      45.326 -30.728  -4.033  1.00  0.00     0.026 A 
HETATM   17  C   UNL     1      44.068 -29.963  -4.222  1.00  0.00     0.026 A 
BRANCH  15  18
HETATM   18  C   UNL     1      44.374 -29.973  -1.664  1.00  0.00    -0.040 A 
HETATM   19  C   UNL     1      44.279 -31.316  -1.246  1.00  0.00     0.010 A 
HETATM   20  C   UNL     1      43.712 -31.667  -0.017  1.00  0.00     0.024 A 
HETATM   21  C   UNL     1      43.216 -30.673   0.816  1.00  0.00     0.034 A 
HETATM   22  C   UNL     1      43.286 -29.337   0.430  1.00  0.00     0.024 A 
HETATM   23 CL   UNL     1      42.512 -31.095   2.327  1.00  0.00    -0.084 Cl
HETATM   24  C   UNL     1      43.862 -28.992  -0.800  1.00  0.00     0.010 A 
ENDBRANCH  15  18
ENDBRANCH  12  15
ENDBRANCH   1  11
BRANCH   8  25
HETATM   25  C   UNL     1      48.460 -29.390   2.996  1.00  0.00     0.270 C 
HETATM   26  N   UNL     1      48.878 -28.140   3.361  1.00  0.00    -0.365 N 
HETATM   27  H   UNL     1      49.575 -27.674   2.789  1.00  0.00     0.159 HD
HETATM   28  H   UNL     1      48.543 -27.728   4.217  1.00  0.00     0.159 HD
HETATM   29  O   UNL     1      47.650 -30.016   3.673  1.00  0.00    -0.266 OA
ENDBRANCH   8  25
TORSDOF 4
ENDMDL
