MODEL 1
REMARK VINA RESULT:      -7.8      0.000      0.000
REMARK  5 active torsions:
REMARK  status: ('A' for Active; 'I' for Inactive)
REMARK    1  A    between atoms: C_2  and  O_3 
REMARK    2  A    between atoms: C_4  and  C_5 
REMARK    3  A    between atoms: C_5  and  O_6 
REMARK    4  A    between atoms: C_9  and  C_10 
REMARK    5  A    between atoms: C_22  and  O_23 
ROOT
HETATM    1  C   UNL     1      41.140 -12.247   2.176  1.00  0.00     0.047 C 
HETATM    2  C   UNL     1      41.202 -13.534   3.016  1.00  0.00     0.073 C 
HETATM    3  C   UNL     1      42.673 -13.930   3.374  1.00  0.00     0.133 C 
HETATM    4  C   UNL     1      42.865 -15.065   4.424  1.00  0.00     0.074 C 
HETATM    5  C   UNL     1      41.712 -15.169   5.360  1.00  0.00     0.030 A 
HETATM    6  C   UNL     1      40.554 -14.429   5.251  1.00  0.00     0.042 A 
HETATM    7  N   UNL     1      39.763 -14.770   6.312  1.00  0.00    -0.279 N 
HETATM    8  H   UNL     1      38.846 -14.413   6.561  1.00  0.00     0.189 HD
HETATM    9  N   UNL     1      40.336 -15.691   7.115  1.00  0.00    -0.149 NA
HETATM   10  C   UNL     1      41.513 -15.891   6.538  1.00  0.00     0.190 A 
HETATM   11  C   UNL     1      40.247 -13.392   4.235  1.00  0.00     0.097 C 
ENDROOT
BRANCH   4  12
HETATM   12  C   UNL     1      43.102 -16.436   3.795  1.00  0.00    -0.048 A 
HETATM   13  C   UNL     1      44.050 -17.283   4.404  1.00  0.00     0.009 A 
HETATM   14  C   UNL     1      44.329 -18.550   3.886  1.00  0.00     0.024 A 
HETATM   15  C   UNL     1      43.673 -18.988   2.741  1.00  0.00     0.034 A 
HETATM   16 CL   UNL     1      44.013 -20.549   2.101  1.00  0.00    -0.084 Cl
HETATM   17  C   UNL     1      42.738 -18.171   2.114  1.00  0.00     0.024 A 
HETATM   18  C   UNL     1      42.454 -16.905   2.638  1.00  0.00     0.009 A 
ENDBRANCH   4  12
BRANCH   3  19
HETATM   19  C   UNL     1      43.424 -12.722   3.895  1.00  0.00     0.266 C 
HETATM   20  O   UNL     1      43.941 -11.863   3.195  1.00  0.00    -0.265 OA
BRANCH  19  21
HETATM   21  O   UNL     1      43.443 -12.732   5.258  1.00  0.00    -0.326 OA
HETATM   22  C   UNL     1      43.063 -11.494   5.861  1.00  0.00     0.213 C 
ENDBRANCH  19  21
ENDBRANCH   3  19
BRANCH   2  23
HETATM   23  O   UNL     1      40.671 -14.544   2.133  1.00  0.00    -0.389 OA
HETATM   24  H   UNL     1      41.408 -15.106   1.839  1.00  0.00     0.210 HD
ENDBRANCH   2  23
BRANCH  10  25
HETATM   25  O   UNL     1      42.321 -16.737   7.167  1.00  0.00    -0.343 OA
HETATM   26  H   UNL     1      41.762 -17.509   7.364  1.00  0.00     0.219 HD
ENDBRANCH  10  25
TORSDOF 5
ENDMDL
MODEL 2
REMARK VINA RESULT:      -7.5      1.494      2.017
REMARK  5 active torsions:
REMARK  status: ('A' for Active; 'I' for Inactive)
REMARK    1  A    between atoms: C_2  and  O_3 
REMARK    2  A    between atoms: C_4  and  C_5 
REMARK    3  A    between atoms: C_5  and  O_6 
REMARK    4  A    between atoms: C_9  and  C_10 
REMARK    5  A    between atoms: C_22  and  O_23 
ROOT
HETATM    1  C   UNL     1      39.548 -13.870   2.541  1.00  0.00     0.047 C 
HETATM    2  C   UNL     1      40.526 -14.624   3.460  1.00  0.00     0.073 C 
HETATM    3  C   UNL     1      41.952 -14.743   2.826  1.00  0.00     0.133 C 
HETATM    4  C   UNL     1      43.095 -15.259   3.750  1.00  0.00     0.074 C 
HETATM    5  C   UNL     1      42.832 -14.975   5.187  1.00  0.00     0.030 A 
HETATM    6  C   UNL     1      41.665 -14.421   5.668  1.00  0.00     0.042 A 
HETATM    7  N   UNL     1      41.822 -14.272   7.017  1.00  0.00    -0.279 N 
HETATM    8  H   UNL     1      41.173 -13.883   7.694  1.00  0.00     0.189 HD
HETATM    9  N   UNL     1      43.028 -14.695   7.451  1.00  0.00    -0.149 NA
HETATM   10  C   UNL     1      43.623 -15.083   6.333  1.00  0.00     0.190 A 
HETATM   11  C   UNL     1      40.490 -13.981   4.876  1.00  0.00     0.097 C 
ENDROOT
BRANCH   4  12
HETATM   12  C   UNL     1      43.368 -16.754   3.595  1.00  0.00    -0.048 A 
HETATM   13  C   UNL     1      42.923 -17.384   2.416  1.00  0.00     0.009 A 
HETATM   14  C   UNL     1      43.127 -18.750   2.201  1.00  0.00     0.024 A 
HETATM   15  C   UNL     1      43.771 -19.512   3.169  1.00  0.00     0.034 A 
HETATM   16 CL   UNL     1      44.026 -21.193   2.908  1.00  0.00    -0.084 Cl
HETATM   17  C   UNL     1      44.215 -18.919   4.347  1.00  0.00     0.024 A 
HETATM   18  C   UNL     1      44.016 -17.549   4.557  1.00  0.00     0.009 A 
ENDBRANCH   4  12
BRANCH   3  19
HETATM   19  C   UNL     1      42.397 -13.398   2.291  1.00  0.00     0.266 C 
HETATM   20  O   UNL     1      41.925 -12.845   1.308  1.00  0.00    -0.265 OA
BRANCH  19  21
HETATM   21  O   UNL     1      43.403 -12.895   3.060  1.00  0.00    -0.326 OA
HETATM   22  C   UNL     1      43.270 -11.506   3.368  1.00  0.00     0.213 C 
ENDBRANCH  19  21
ENDBRANCH   3  19
BRANCH   2  23
HETATM   23  O   UNL     1      39.962 -15.949   3.543  1.00  0.00    -0.389 OA
HETATM   24  H   UNL     1      39.506 -16.029   4.398  1.00  0.00     0.210 HD
ENDBRANCH   2  23
BRANCH  10  25
HETATM   25  O   UNL     1      44.874 -15.509   6.469  1.00  0.00    -0.343 OA
HETATM   26  H   UNL     1      44.788 -16.440   6.735  1.00  0.00     0.219 HD
ENDBRANCH  10  25
TORSDOF 5
ENDMDL
MODEL 3
REMARK VINA RESULT:      -7.4      3.966      6.316
REMARK  5 active torsions:
REMARK  status: ('A' for Active; 'I' for Inactive)
REMARK    1  A    between atoms: C_2  and  O_3 
REMARK    2  A    between atoms: C_4  and  C_5 
REMARK    3  A    between atoms: C_5  and  O_6 
REMARK    4  A    between atoms: C_9  and  C_10 
REMARK    5  A    between atoms: C_22  and  O_23 
ROOT
HETATM    1  C   UNL     1      40.160 -15.553   6.579  1.00  0.00     0.047 C 
HETATM    2  C   UNL     1      40.892 -14.316   6.031  1.00  0.00     0.073 C 
HETATM    3  C   UNL     1      42.424 -14.354   6.347  1.00  0.00     0.133 C 
HETATM    4  C   UNL     1      43.319 -13.294   5.638  1.00  0.00     0.074 C 
HETATM    5  C   UNL     1      42.735 -12.833   4.348  1.00  0.00     0.030 A 
HETATM    6  C   UNL     1      41.493 -13.208   3.880  1.00  0.00     0.042 A 
HETATM    7  N   UNL     1      41.337 -12.622   2.656  1.00  0.00    -0.279 N 
HETATM    8  H   UNL     1      40.552 -12.690   2.015  1.00  0.00     0.189 HD
HETATM    9  N   UNL     1      42.406 -11.884   2.290  1.00  0.00    -0.149 NA
HETATM   10  C   UNL     1      43.239 -12.050   3.308  1.00  0.00     0.190 A 
HETATM   11  C   UNL     1      40.537 -14.140   4.527  1.00  0.00     0.097 C 
ENDROOT
BRANCH   4  12
HETATM   12  C   UNL     1      43.606 -12.069   6.504  1.00  0.00    -0.048 A 
HETATM   13  C   UNL     1      44.888 -11.955   7.076  1.00  0.00     0.009 A 
HETATM   14  C   UNL     1      45.227 -10.869   7.887  1.00  0.00     0.024 A 
HETATM   15  C   UNL     1      44.284  -9.881   8.148  1.00  0.00     0.034 A 
HETATM   16 CL   UNL     1      44.699  -8.541   9.144  1.00  0.00    -0.084 Cl
HETATM   17  C   UNL     1      43.007  -9.970   7.603  1.00  0.00     0.024 A 
HETATM   18  C   UNL     1      42.671 -11.056   6.785  1.00  0.00     0.009 A 
ENDBRANCH   4  12
BRANCH   3  19
HETATM   19  C   UNL     1      42.994 -15.712   5.993  1.00  0.00     0.266 C 
HETATM   20  O   UNL     1      43.173 -16.121   4.855  1.00  0.00    -0.265 OA
BRANCH  19  21
HETATM   21  O   UNL     1      43.275 -16.414   7.127  1.00  0.00    -0.326 OA
HETATM   22  C   UNL     1      43.370 -17.827   6.936  1.00  0.00     0.213 C 
ENDBRANCH  19  21
ENDBRANCH   3  19
BRANCH   2  23
HETATM   23  O   UNL     1      40.311 -13.221   6.771  1.00  0.00    -0.389 OA
HETATM   24  H   UNL     1      39.347 -13.257   6.654  1.00  0.00     0.210 HD
ENDBRANCH   2  23
BRANCH  10  25
HETATM   25  O   UNL     1      44.420 -11.457   3.182  1.00  0.00    -0.343 OA
HETATM   26  H   UNL     1      44.557 -11.384   2.222  1.00  0.00     0.219 HD
ENDBRANCH  10  25
TORSDOF 5
ENDMDL
MODEL 4
REMARK VINA RESULT:      -7.4      2.995      4.930
REMARK  5 active torsions:
REMARK  status: ('A' for Active; 'I' for Inactive)
REMARK    1  A    between atoms: C_2  and  O_3 
REMARK    2  A    between atoms: C_4  and  C_5 
REMARK    3  A    between atoms: C_5  and  O_6 
REMARK    4  A    between atoms: C_9  and  C_10 
REMARK    5  A    between atoms: C_22  and  O_23 
ROOT
HETATM    1  C   UNL     1      42.835 -16.806   1.928  1.00  0.00     0.047 C 
HETATM    2  C   UNL     1      42.555 -16.067   3.249  1.00  0.00     0.073 C 
HETATM    3  C   UNL     1      42.380 -14.527   3.034  1.00  0.00     0.133 C 
HETATM    4  C   UNL     1      41.848 -13.700   4.242  1.00  0.00     0.074 C 
HETATM    5  C   UNL     1      41.021 -14.522   5.168  1.00  0.00     0.030 A 
HETATM    6  C   UNL     1      40.835 -15.882   5.044  1.00  0.00     0.042 A 
HETATM    7  N   UNL     1      39.985 -16.260   6.045  1.00  0.00    -0.279 N 
HETATM    8  H   UNL     1      39.615 -17.183   6.250  1.00  0.00     0.189 HD
HETATM    9  N   UNL     1      39.600 -15.225   6.820  1.00  0.00    -0.149 NA
HETATM   10  C   UNL     1      40.211 -14.193   6.257  1.00  0.00     0.190 A 
HETATM   11  C   UNL     1      41.373 -16.765   3.980  1.00  0.00     0.097 C 
ENDROOT
BRANCH   4  12
HETATM   12  C   UNL     1      42.957 -13.029   5.050  1.00  0.00    -0.048 A 
HETATM   13  C   UNL     1      43.559 -11.877   4.506  1.00  0.00     0.009 A 
HETATM   14  C   UNL     1      44.586 -11.209   5.179  1.00  0.00     0.024 A 
HETATM   15  C   UNL     1      45.035 -11.689   6.404  1.00  0.00     0.034 A 
HETATM   16 CL   UNL     1      46.297 -10.868   7.237  1.00  0.00    -0.084 Cl
HETATM   17  C   UNL     1      44.465 -12.828   6.962  1.00  0.00     0.024 A 
HETATM   18  C   UNL     1      43.432 -13.493   6.290  1.00  0.00     0.009 A 
ENDBRANCH   4  12
BRANCH   3  19
HETATM   19  C   UNL     1      41.436 -14.268   1.878  1.00  0.00     0.266 C 
HETATM   20  O   UNL     1      40.331 -14.777   1.749  1.00  0.00    -0.265 OA
BRANCH  19  21
HETATM   21  O   UNL     1      41.996 -13.389   1.000  1.00  0.00    -0.326 OA
HETATM   22  C   UNL     1      41.054 -12.581   0.294  1.00  0.00     0.213 C 
ENDBRANCH  19  21
ENDBRANCH   3  19
BRANCH   2  23
HETATM   23  O   UNL     1      43.758 -16.277   4.018  1.00  0.00    -0.389 OA
HETATM   24  H   UNL     1      44.401 -16.736   3.453  1.00  0.00     0.210 HD
ENDBRANCH   2  23
BRANCH  10  25
HETATM   25  O   UNL     1      39.958 -13.010   6.805  1.00  0.00    -0.343 OA
HETATM   26  H   UNL     1      39.146 -13.148   7.321  1.00  0.00     0.219 HD
ENDBRANCH  10  25
TORSDOF 5
ENDMDL
MODEL 5
REMARK VINA RESULT:      -7.3      2.801      3.873
REMARK  5 active torsions:
REMARK  status: ('A' for Active; 'I' for Inactive)
REMARK    1  A    between atoms: C_2  and  O_3 
REMARK    2  A    between atoms: C_4  and  C_5 
REMARK    3  A    between atoms: C_5  and  O_6 
REMARK    4  A    between atoms: C_9  and  C_10 
REMARK    5  A    between atoms: C_22  and  O_23 
ROOT
HETATM    1  C   UNL     1      42.537 -10.757   3.834  1.00  0.00     0.047 C 
HETATM    2  C   UNL     1      42.299 -12.087   3.096  1.00  0.00     0.073 C 
HETATM    3  C   UNL     1      41.467 -13.095   3.957  1.00  0.00     0.133 C 
HETATM    4  C   UNL     1      40.945 -14.375   3.239  1.00  0.00     0.074 C 
HETATM    5  C   UNL     1      40.767 -14.169   1.775  1.00  0.00     0.030 A 
HETATM    6  C   UNL     1      41.127 -13.020   1.104  1.00  0.00     0.042 A 
HETATM    7  N   UNL     1      40.766 -13.195  -0.203  1.00  0.00    -0.279 N 
HETATM    8  H   UNL     1      40.864 -12.549  -0.981  1.00  0.00     0.189 HD
HETATM    9  N   UNL     1      40.187 -14.392  -0.428  1.00  0.00    -0.149 NA
HETATM   10  C   UNL     1      40.174 -14.944   0.776  1.00  0.00     0.190 A 
HETATM   11  C   UNL     1      41.711 -11.788   1.687  1.00  0.00     0.097 C 
ENDROOT
BRANCH   4  12
HETATM   12  C   UNL     1      41.841 -15.594   3.451  1.00  0.00    -0.048 A 
HETATM   13  C   UNL     1      41.941 -16.116   4.756  1.00  0.00     0.009 A 
HETATM   14  C   UNL     1      42.745 -17.225   5.034  1.00  0.00     0.024 A 
HETATM   15  C   UNL     1      43.472 -17.824   4.012  1.00  0.00     0.034 A 
HETATM   16 CL   UNL     1      44.461 -19.190   4.350  1.00  0.00    -0.084 Cl
HETATM   17  C   UNL     1      43.399 -17.326   2.715  1.00  0.00     0.024 A 
HETATM   18  C   UNL     1      42.588 -16.220   2.436  1.00  0.00     0.009 A 
ENDBRANCH   4  12
BRANCH   3  19
HETATM   19  C   UNL     1      40.257 -12.400   4.545  1.00  0.00     0.266 C 
HETATM   20  O   UNL     1      39.302 -11.991   3.899  1.00  0.00    -0.265 OA
BRANCH  19  21
HETATM   21  O   UNL     1      40.387 -12.292   5.897  1.00  0.00    -0.326 OA
HETATM   22  C   UNL     1      39.744 -11.148   6.461  1.00  0.00     0.213 C 
ENDBRANCH  19  21
ENDBRANCH   3  19
BRANCH   2  23
HETATM   23  O   UNL     1      43.627 -12.628   2.933  1.00  0.00    -0.389 OA
HETATM   24  H   UNL     1      43.599 -13.282   2.215  1.00  0.00     0.210 HD
ENDBRANCH   2  23
BRANCH  10  25
HETATM   25  O   UNL     1      39.598 -16.138   0.853  1.00  0.00    -0.343 OA
HETATM   26  H   UNL     1      40.012 -16.655   0.140  1.00  0.00     0.219 HD
ENDBRANCH  10  25
TORSDOF 5
ENDMDL
MODEL 6
REMARK VINA RESULT:      -7.3      8.993     10.773
REMARK  5 active torsions:
REMARK  status: ('A' for Active; 'I' for Inactive)
REMARK    1  A    between atoms: C_2  and  O_3 
REMARK    2  A    between atoms: C_4  and  C_5 
REMARK    3  A    between atoms: C_5  and  O_6 
REMARK    4  A    between atoms: C_9  and  C_10 
REMARK    5  A    between atoms: C_22  and  O_23 
ROOT
HETATM    1  C   UNL     1      42.075  -6.273   8.017  1.00  0.00     0.047 C 
HETATM    2  C   UNL     1      42.656  -7.143   9.145  1.00  0.00     0.073 C 
HETATM    3  C   UNL     1      41.552  -7.988   9.861  1.00  0.00     0.133 C 
HETATM    4  C   UNL     1      42.035  -9.093  10.848  1.00  0.00     0.074 C 
HETATM    5  C   UNL     1      43.395  -9.595  10.512  1.00  0.00     0.030 A 
HETATM    6  C   UNL     1      44.190  -9.073   9.514  1.00  0.00     0.042 A 
HETATM    7  N   UNL     1      45.331  -9.825   9.482  1.00  0.00    -0.279 N 
HETATM    8  H   UNL     1      46.132  -9.738   8.863  1.00  0.00     0.189 HD
HETATM    9  N   UNL     1      45.331 -10.813  10.400  1.00  0.00    -0.149 NA
HETATM   10  C   UNL     1      44.149 -10.672  10.983  1.00  0.00     0.190 A 
HETATM   11  C   UNL     1      43.851  -7.967   8.585  1.00  0.00     0.097 C 
ENDROOT
BRANCH   4  12
HETATM   12  C   UNL     1      42.034  -8.641  12.308  1.00  0.00    -0.048 A 
HETATM   13  C   UNL     1      40.972  -9.073  13.127  1.00  0.00     0.009 A 
HETATM   14  C   UNL     1      40.894  -8.698  14.471  1.00  0.00     0.024 A 
HETATM   15  C   UNL     1      41.873  -7.874  15.016  1.00  0.00     0.034 A 
HETATM   16 CL   UNL     1      41.782  -7.412  16.671  1.00  0.00    -0.084 Cl
HETATM   17  C   UNL     1      42.928  -7.426  14.229  1.00  0.00     0.024 A 
HETATM   18  C   UNL     1      43.009  -7.809  12.884  1.00  0.00     0.009 A 
ENDBRANCH   4  12
BRANCH   3  19
HETATM   19  C   UNL     1      40.674  -8.674   8.835  1.00  0.00     0.266 C 
HETATM   20  O   UNL     1      41.015  -9.627   8.148  1.00  0.00    -0.265 OA
BRANCH  19  21
HETATM   21  O   UNL     1      39.452  -8.074   8.784  1.00  0.00    -0.326 OA
HETATM   22  C   UNL     1      38.738  -8.088  10.022  1.00  0.00     0.213 C 
ENDBRANCH  19  21
ENDBRANCH   3  19
BRANCH   2  23
HETATM   23  O   UNL     1      43.166  -6.180  10.091  1.00  0.00    -0.389 OA
HETATM   24  H   UNL     1      43.140  -6.584  10.975  1.00  0.00     0.210 HD
ENDBRANCH   2  23
BRANCH  10  25
HETATM   25  O   UNL     1      43.861 -11.571  11.917  1.00  0.00    -0.343 OA
HETATM   26  H   UNL     1      43.760 -11.053  12.734  1.00  0.00     0.219 HD
ENDBRANCH  10  25
TORSDOF 5
ENDMDL
MODEL 7
REMARK VINA RESULT:      -7.1      2.497      3.554
REMARK  5 active torsions:
REMARK  status: ('A' for Active; 'I' for Inactive)
REMARK    1  A    between atoms: C_2  and  O_3 
REMARK    2  A    between atoms: C_4  and  C_5 
REMARK    3  A    between atoms: C_5  and  O_6 
REMARK    4  A    between atoms: C_9  and  C_10 
REMARK    5  A    between atoms: C_22  and  O_23 
ROOT
HETATM    1  C   UNL     1      39.120 -12.329   3.207  1.00  0.00     0.047 C 
HETATM    2  C   UNL     1      40.191 -12.672   4.257  1.00  0.00     0.073 C 
HETATM    3  C   UNL     1      41.464 -13.312   3.609  1.00  0.00     0.133 C 
HETATM    4  C   UNL     1      42.716 -13.475   4.521  1.00  0.00     0.074 C 
HETATM    5  C   UNL     1      42.743 -12.479   5.627  1.00  0.00     0.030 A 
HETATM    6  C   UNL     1      41.728 -11.584   5.891  1.00  0.00     0.042 A 
HETATM    7  N   UNL     1      42.141 -10.814   6.942  1.00  0.00    -0.279 N 
HETATM    8  H   UNL     1      41.656 -10.044   7.394  1.00  0.00     0.189 HD
HETATM    9  N   UNL     1      43.371 -11.149   7.383  1.00  0.00    -0.149 NA
HETATM   10  C   UNL     1      43.720 -12.129   6.561  1.00  0.00     0.190 A 
HETATM   11  C   UNL     1      40.463 -11.416   5.134  1.00  0.00     0.097 C 
ENDROOT
BRANCH   4  12
HETATM   12  C   UNL     1      42.845 -14.872   5.126  1.00  0.00    -0.048 A 
HETATM   13  C   UNL     1      43.429 -15.879   4.333  1.00  0.00     0.009 A 
HETATM   14  C   UNL     1      43.577 -17.184   4.810  1.00  0.00     0.024 A 
HETATM   15  C   UNL     1      43.131 -17.507   6.087  1.00  0.00     0.034 A 
HETATM   16 CL   UNL     1      43.313 -19.113   6.679  1.00  0.00    -0.084 Cl
HETATM   17  C   UNL     1      42.543 -16.536   6.890  1.00  0.00     0.024 A 
HETATM   18  C   UNL     1      42.403 -15.227   6.414  1.00  0.00     0.009 A 
ENDBRANCH   4  12
BRANCH   3  19
HETATM   19  C   UNL     1      41.902 -12.497   2.410  1.00  0.00     0.266 C 
HETATM   20  O   UNL     1      42.518 -11.443   2.467  1.00  0.00    -0.265 OA
BRANCH  19  21
HETATM   21  O   UNL     1      41.505 -13.107   1.257  1.00  0.00    -0.326 OA
HETATM   22  C   UNL     1      41.592 -14.533   1.286  1.00  0.00     0.213 C 
ENDBRANCH  19  21
ENDBRANCH   3  19
BRANCH   2  23
HETATM   23  O   UNL     1      39.556 -13.675   5.078  1.00  0.00    -0.389 OA
HETATM   24  H   UNL     1      39.067 -13.220   5.785  1.00  0.00     0.210 HD
ENDBRANCH   2  23
BRANCH  10  25
HETATM   25  O   UNL     1      44.940 -12.621   6.745  1.00  0.00    -0.343 OA
HETATM   26  H   UNL     1      44.882 -13.113   7.582  1.00  0.00     0.219 HD
ENDBRANCH  10  25
TORSDOF 5
ENDMDL
MODEL 8
REMARK VINA RESULT:      -7.1      2.281      3.612
REMARK  5 active torsions:
REMARK  status: ('A' for Active; 'I' for Inactive)
REMARK    1  A    between atoms: C_2  and  O_3 
REMARK    2  A    between atoms: C_4  and  C_5 
REMARK    3  A    between atoms: C_5  and  O_6 
REMARK    4  A    between atoms: C_9  and  C_10 
REMARK    5  A    between atoms: C_22  and  O_23 
ROOT
HETATM    1  C   UNL     1      38.113 -11.602   1.564  1.00  0.00     0.047 C 
HETATM    2  C   UNL     1      39.173 -12.248   2.473  1.00  0.00     0.073 C 
HETATM    3  C   UNL     1      40.550 -12.408   1.746  1.00  0.00     0.133 C 
HETATM    4  C   UNL     1      41.771 -12.813   2.625  1.00  0.00     0.074 C 
HETATM    5  C   UNL     1      41.611 -12.393   4.044  1.00  0.00     0.030 A 
HETATM    6  C   UNL     1      40.471 -11.812   4.557  1.00  0.00     0.042 A 
HETATM    7  N   UNL     1      40.726 -11.530   5.870  1.00  0.00    -0.279 N 
HETATM    8  H   UNL     1      40.120 -11.086   6.554  1.00  0.00     0.189 HD
HETATM    9  N   UNL     1      41.970 -11.890   6.249  1.00  0.00    -0.149 NA
HETATM   10  C   UNL     1      42.487 -12.378   5.130  1.00  0.00     0.190 A 
HETATM   11  C   UNL     1      39.230 -11.470   3.819  1.00  0.00     0.097 C 
ENDROOT
BRANCH   4  12
HETATM   12  C   UNL     1      42.065 -14.312   2.595  1.00  0.00    -0.048 A 
HETATM   13  C   UNL     1      43.075 -14.765   1.724  1.00  0.00     0.009 A 
HETATM   14  C   UNL     1      43.400 -16.122   1.632  1.00  0.00     0.024 A 
HETATM   15  C   UNL     1      42.710 -17.050   2.403  1.00  0.00     0.034 A 
HETATM   16 CL   UNL     1      43.107 -18.721   2.295  1.00  0.00    -0.084 Cl
HETATM   17  C   UNL     1      41.701 -16.633   3.266  1.00  0.00     0.024 A 
HETATM   18  C   UNL     1      41.383 -15.273   3.363  1.00  0.00     0.009 A 
ENDBRANCH   4  12
BRANCH   3  19
HETATM   19  C   UNL     1      40.923 -11.115   1.051  1.00  0.00     0.266 C 
HETATM   20  O   UNL     1      41.332 -10.110   1.615  1.00  0.00    -0.265 OA
BRANCH  19  21
HETATM   21  O   UNL     1      40.734 -11.232  -0.293  1.00  0.00    -0.326 OA
HETATM   22  C   UNL     1      40.772 -12.576  -0.778  1.00  0.00     0.213 C 
ENDBRANCH  19  21
ENDBRANCH   3  19
BRANCH   2  23
HETATM   23  O   UNL     1      38.647 -13.567   2.728  1.00  0.00    -0.389 OA
HETATM   24  H   UNL     1      39.346 -14.094   3.151  1.00  0.00     0.210 HD
ENDBRANCH   2  23
BRANCH  10  25
HETATM   25  O   UNL     1      43.754 -12.769   5.210  1.00  0.00    -0.343 OA
HETATM   26  H   UNL     1      44.258 -12.056   4.782  1.00  0.00     0.219 HD
ENDBRANCH  10  25
TORSDOF 5
ENDMDL
MODEL 9
REMARK VINA RESULT:      -6.8     14.760     16.395
REMARK  5 active torsions:
REMARK  status: ('A' for Active; 'I' for Inactive)
REMARK    1  A    between atoms: C_2  and  O_3 
REMARK    2  A    between atoms: C_4  and  C_5 
REMARK    3  A    between atoms: C_5  and  O_6 
REMARK    4  A    between atoms: C_9  and  C_10 
REMARK    5  A    between atoms: C_22  and  O_23 
ROOT
HETATM    1  C   UNL     1      45.187 -27.728  -3.414  1.00  0.00     0.047 C 
HETATM    2  C   UNL     1      45.526 -28.294  -2.024  1.00  0.00     0.073 C 
HETATM    3  C   UNL     1      44.958 -29.738  -1.824  1.00  0.00     0.133 C 
HETATM    4  C   UNL     1      45.439 -30.520  -0.565  1.00  0.00     0.074 C 
HETATM    5  C   UNL     1      46.779 -30.069  -0.098  1.00  0.00     0.030 A 
HETATM    6  C   UNL     1      47.473 -29.008  -0.639  1.00  0.00     0.042 A 
HETATM    7  N   UNL     1      48.668 -28.938   0.020  1.00  0.00    -0.279 N 
HETATM    8  H   UNL     1      49.436 -28.290  -0.125  1.00  0.00     0.189 HD
HETATM    9  N   UNL     1      48.801 -29.895   0.961  1.00  0.00    -0.149 NA
HETATM   10  C   UNL     1      47.669 -30.575   0.851  1.00  0.00     0.190 A 
HETATM   11  C   UNL     1      47.055 -28.152  -1.777  1.00  0.00     0.097 C 
ENDROOT
BRANCH   4  12
HETATM   12  C   UNL     1      44.464 -30.435   0.608  1.00  0.00    -0.048 A 
HETATM   13  C   UNL     1      43.401 -31.359   0.645  1.00  0.00     0.009 A 
HETATM   14  C   UNL     1      42.462 -31.343   1.680  1.00  0.00     0.024 A 
HETATM   15  C   UNL     1      42.565 -30.394   2.691  1.00  0.00     0.034 A 
HETATM   16 CL   UNL     1      41.413 -30.373   3.968  1.00  0.00    -0.084 Cl
HETATM   17  C   UNL     1      43.600 -29.465   2.677  1.00  0.00     0.024 A 
HETATM   18  C   UNL     1      44.544 -29.487   1.643  1.00  0.00     0.009 A 
ENDBRANCH   4  12
BRANCH   3  19
HETATM   19  C   UNL     1      45.291 -30.598  -3.025  1.00  0.00     0.266 C 
HETATM   20  O   UNL     1      46.421 -30.924  -3.362  1.00  0.00    -0.265 OA
BRANCH  19  21
HETATM   21  O   UNL     1      44.150 -30.955  -3.680  1.00  0.00    -0.326 OA
HETATM   22  C   UNL     1      44.251 -30.910  -5.105  1.00  0.00     0.213 C 
ENDBRANCH  19  21
ENDBRANCH   3  19
BRANCH   2  23
HETATM   23  O   UNL     1      44.831 -27.412  -1.117  1.00  0.00    -0.389 OA
HETATM   24  H   UNL     1      44.125 -27.920  -0.684  1.00  0.00     0.210 HD
ENDBRANCH   2  23
BRANCH  10  25
HETATM   25  O   UNL     1      47.557 -31.631   1.649  1.00  0.00    -0.343 OA
HETATM   26  H   UNL     1      48.210 -32.266   1.309  1.00  0.00     0.219 HD
ENDBRANCH  10  25
TORSDOF 5
ENDMDL
MODEL 10
REMARK VINA RESULT:      -6.8      3.376      5.825
REMARK  5 active torsions:
REMARK  status: ('A' for Active; 'I' for Inactive)
REMARK    1  A    between atoms: C_2  and  O_3 
REMARK    2  A    between atoms: C_4  and  C_5 
REMARK    3  A    between atoms: C_5  and  O_6 
REMARK    4  A    between atoms: C_9  and  C_10 
REMARK    5  A    between atoms: C_22  and  O_23 
ROOT
HETATM    1  C   UNL     1      43.211 -17.605   6.774  1.00  0.00     0.047 C 
HETATM    2  C   UNL     1      42.782 -16.128   6.768  1.00  0.00     0.073 C 
HETATM    3  C   UNL     1      43.538 -15.302   5.674  1.00  0.00     0.133 C 
HETATM    4  C   UNL     1      43.021 -13.860   5.393  1.00  0.00     0.074 C 
HETATM    5  C   UNL     1      41.577 -13.703   5.719  1.00  0.00     0.030 A 
HETATM    6  C   UNL     1      40.804 -14.681   6.307  1.00  0.00     0.042 A 
HETATM    7  N   UNL     1      39.535 -14.183   6.399  1.00  0.00    -0.279 N 
HETATM    8  H   UNL     1      38.701 -14.632   6.765  1.00  0.00     0.189 HD
HETATM    9  N   UNL     1      39.429 -12.933   5.902  1.00  0.00    -0.149 NA
HETATM   10  C   UNL     1      40.658 -12.681   5.476  1.00  0.00     0.190 A 
HETATM   11  C   UNL     1      41.230 -16.050   6.690  1.00  0.00     0.097 C 
ENDROOT
BRANCH   4  12
HETATM   12  C   UNL     1      43.805 -12.781   6.140  1.00  0.00    -0.048 A 
HETATM   13  C   UNL     1      44.866 -12.152   5.460  1.00  0.00     0.009 A 
HETATM   14  C   UNL     1      45.636 -11.161   6.076  1.00  0.00     0.024 A 
HETATM   15  C   UNL     1      45.363 -10.791   7.387  1.00  0.00     0.034 A 
HETATM   16 CL   UNL     1      46.307  -9.569   8.148  1.00  0.00    -0.084 Cl
HETATM   17  C   UNL     1      44.326 -11.400   8.086  1.00  0.00     0.024 A 
HETATM   18  C   UNL     1      43.551 -12.387   7.466  1.00  0.00     0.009 A 
ENDBRANCH   4  12
BRANCH   3  19
HETATM   19  C   UNL     1      43.509 -16.041   4.352  1.00  0.00     0.266 C 
HETATM   20  O   UNL     1      43.799 -17.220   4.203  1.00  0.00    -0.265 OA
BRANCH  19  21
HETATM   21  O   UNL     1      43.115 -15.202   3.353  1.00  0.00    -0.326 OA
HETATM   22  C   UNL     1      43.264 -15.743   2.039  1.00  0.00     0.213 C 
ENDBRANCH  19  21
ENDBRANCH   3  19
BRANCH   2  23
HETATM   23  O   UNL     1      43.201 -15.645   8.061  1.00  0.00    -0.389 OA
HETATM   24  H   UNL     1      43.722 -16.345   8.489  1.00  0.00     0.210 HD
ENDBRANCH   2  23
BRANCH  10  25
HETATM   25  O   UNL     1      40.828 -11.505   4.882  1.00  0.00    -0.343 OA
HETATM   26  H   UNL     1      41.286 -10.960   5.544  1.00  0.00     0.219 HD
ENDBRANCH  10  25
TORSDOF 5
ENDMDL
