MODEL 1
REMARK VINA RESULT:      -8.8      0.000      0.000
REMARK  6 active torsions:
REMARK  status: ('A' for Active; 'I' for Inactive)
REMARK    1  A    between atoms: O_2  and  C_3 
REMARK    2  A    between atoms: C_6  and  C_7 
REMARK    3  A    between atoms: C_11  and  C_12 
REMARK       I    between atoms: C_12  and  N_13 
REMARK    4  A    between atoms: N_13  and  N_14 
REMARK       I    between atoms: N_14  and  C_15 
REMARK    5  A    between atoms: C_15  and  C_16 
REMARK    6  A    between atoms: C_16  and  C_17 
ROOT
HETATM    1  C   UNL     1      42.643 -11.546   5.763  1.00  0.00     0.288 C 
HETATM    2  N   UNL     1      42.639 -11.773   7.124  1.00  0.00    -0.262 N 
HETATM    3  O   UNL     1      42.547 -10.414   5.291  1.00  0.00    -0.264 OA
HETATM    4  H   UNL     1      42.878 -12.681   7.517  1.00  0.00     0.190 HD
ENDROOT
BRANCH   1   5
HETATM    5  C   UNL     1      42.786 -12.721   4.948  1.00  0.00     0.121 A 
HETATM    6  N   UNL     1      42.793 -12.666   3.583  1.00  0.00    -0.272 N 
HETATM    7  N   UNL     1      42.941 -13.857   2.984  1.00  0.00    -0.174 NA
HETATM    8  H   UNL     1      42.697 -11.836   3.005  1.00  0.00     0.189 HD
HETATM    9  C   UNL     1      43.070 -14.732   3.994  1.00  0.00     0.089 A 
HETATM   10  C   UNL     1      42.956 -14.059   5.243  1.00  0.00     0.071 A 
BRANCH   9  11
HETATM   11  C   UNL     1      43.295 -16.162   3.764  1.00  0.00    -0.005 A 
HETATM   12  C   UNL     1      42.919 -16.764   2.556  1.00  0.00     0.016 A 
HETATM   13  C   UNL     1      43.147 -18.128   2.343  1.00  0.00     0.037 A 
HETATM   14  C   UNL     1      43.754 -18.913   3.324  1.00  0.00     0.068 A 
HETATM   15  C   UNL     1      44.121 -18.325   4.533  1.00  0.00     0.037 A 
HETATM   16  C   UNL     1      43.891 -16.959   4.751  1.00  0.00     0.016 A 
BRANCH  14  17
HETATM   17  O   UNL     1      43.920 -20.226   2.980  1.00  0.00    -0.356 OA
HETATM   18  C   UNL     1      43.569 -20.590   1.652  1.00  0.00     0.210 C 
ENDBRANCH  14  17
ENDBRANCH   9  11
ENDBRANCH   1   5
BRANCH   2  19
HETATM   19  N   UNL     1      42.809 -10.684   7.992  1.00  0.00    -0.267 N 
HETATM   20  C   UNL     1      44.066 -10.521   8.541  1.00  0.00     0.240 C 
HETATM   21  O   UNL     1      44.941 -11.382   8.439  1.00  0.00    -0.272 OA
HETATM   22  H   UNL     1      42.143  -9.917   7.898  1.00  0.00     0.190 HD
BRANCH  20  23
HETATM   23  C   UNL     1      44.276  -9.218   9.285  1.00  0.00     0.143 C 
BRANCH  23  24
HETATM   24  C   UNL     1      43.605  -9.143  10.636  1.00  0.00    -0.049 A 
HETATM   25  C   UNL     1      43.431 -10.278  11.444  1.00  0.00     0.009 A 
HETATM   26  C   UNL     1      42.850 -10.167  12.711  1.00  0.00     0.024 A 
HETATM   27  C   UNL     1      42.459  -8.920  13.188  1.00  0.00     0.034 A 
HETATM   28 CL   UNL     1      41.754  -8.784  14.752  1.00  0.00    -0.084 Cl
HETATM   29  C   UNL     1      42.645  -7.781  12.410  1.00  0.00     0.024 A 
HETATM   30  C   UNL     1      43.219  -7.892  11.142  1.00  0.00     0.009 A 
ENDBRANCH  23  24
ENDBRANCH  20  23
ENDBRANCH   2  19
TORSDOF 6
ENDMDL
MODEL 2
REMARK VINA RESULT:      -8.2      3.946     10.795
REMARK  6 active torsions:
REMARK  status: ('A' for Active; 'I' for Inactive)
REMARK    1  A    between atoms: O_2  and  C_3 
REMARK    2  A    between atoms: C_6  and  C_7 
REMARK    3  A    between atoms: C_11  and  C_12 
REMARK       I    between atoms: C_12  and  N_13 
REMARK    4  A    between atoms: N_13  and  N_14 
REMARK       I    between atoms: N_14  and  C_15 
REMARK    5  A    between atoms: C_15  and  C_16 
REMARK    6  A    between atoms: C_16  and  C_17 
ROOT
HETATM    1  C   UNL     1      44.761 -11.351   7.298  1.00  0.00     0.288 C 
HETATM    2  N   UNL     1      44.062 -12.531   7.143  1.00  0.00    -0.262 N 
HETATM    3  O   UNL     1      45.442 -10.874   6.391  1.00  0.00    -0.264 OA
HETATM    4  H   UNL     1      43.376 -12.842   7.828  1.00  0.00     0.190 HD
ENDROOT
BRANCH   1   5
HETATM    5  C   UNL     1      44.616 -10.719   8.580  1.00  0.00     0.121 A 
HETATM    6  N   UNL     1      45.638 -10.036   9.177  1.00  0.00    -0.272 N 
HETATM    7  N   UNL     1      45.325  -9.506  10.369  1.00  0.00    -0.174 NA
HETATM    8  H   UNL     1      46.577  -9.902   8.813  1.00  0.00     0.189 HD
HETATM    9  C   UNL     1      44.034  -9.824  10.553  1.00  0.00     0.089 A 
HETATM   10  C   UNL     1      43.560 -10.604   9.461  1.00  0.00     0.071 A 
BRANCH   9  11
HETATM   11  C   UNL     1      43.286  -9.392  11.738  1.00  0.00    -0.005 A 
HETATM   12  C   UNL     1      43.636  -8.221  12.423  1.00  0.00     0.016 A 
HETATM   13  C   UNL     1      42.910  -7.813  13.547  1.00  0.00     0.037 A 
HETATM   14  C   UNL     1      41.822  -8.558  14.005  1.00  0.00     0.068 A 
HETATM   15  C   UNL     1      41.473  -9.730  13.335  1.00  0.00     0.037 A 
HETATM   16  C   UNL     1      42.201 -10.143  12.211  1.00  0.00     0.016 A 
BRANCH  14  17
HETATM   17  O   UNL     1      41.201  -8.040  15.107  1.00  0.00    -0.356 OA
HETATM   18  C   UNL     1      40.646  -6.738  14.977  1.00  0.00     0.210 C 
ENDBRANCH  14  17
ENDBRANCH   9  11
ENDBRANCH   1   5
BRANCH   2  19
HETATM   19  N   UNL     1      43.897 -13.055   5.852  1.00  0.00    -0.267 N 
HETATM   20  C   UNL     1      42.705 -13.706   5.596  1.00  0.00     0.240 C 
HETATM   21  O   UNL     1      41.909 -13.989   6.494  1.00  0.00    -0.272 OA
HETATM   22  H   UNL     1      44.471 -12.644   5.116  1.00  0.00     0.190 HD
BRANCH  20  23
HETATM   23  C   UNL     1      42.465 -14.055   4.143  1.00  0.00     0.143 C 
BRANCH  23  24
HETATM   24  C   UNL     1      42.875 -15.455   3.750  1.00  0.00    -0.049 A 
HETATM   25  C   UNL     1      43.476 -16.337   4.661  1.00  0.00     0.009 A 
HETATM   26  C   UNL     1      43.799 -17.643   4.279  1.00  0.00     0.024 A 
HETATM   27  C   UNL     1      43.505 -18.082   2.992  1.00  0.00     0.034 A 
HETATM   28 CL   UNL     1      43.894 -19.692   2.527  1.00  0.00    -0.084 Cl
HETATM   29  C   UNL     1      42.889 -17.228   2.082  1.00  0.00     0.024 A 
HETATM   30  C   UNL     1      42.572 -15.922   2.461  1.00  0.00     0.009 A 
ENDBRANCH  23  24
ENDBRANCH  20  23
ENDBRANCH   2  19
TORSDOF 6
ENDMDL
MODEL 3
REMARK VINA RESULT:      -8.2      1.582      2.472
REMARK  6 active torsions:
REMARK  status: ('A' for Active; 'I' for Inactive)
REMARK    1  A    between atoms: O_2  and  C_3 
REMARK    2  A    between atoms: C_6  and  C_7 
REMARK    3  A    between atoms: C_11  and  C_12 
REMARK       I    between atoms: C_12  and  N_13 
REMARK    4  A    between atoms: N_13  and  N_14 
REMARK       I    between atoms: N_14  and  C_15 
REMARK    5  A    between atoms: C_15  and  C_16 
REMARK    6  A    between atoms: C_16  and  C_17 
ROOT
HETATM    1  C   UNL     1      44.033 -11.437   7.513  1.00  0.00     0.288 C 
HETATM    2  N   UNL     1      43.506 -11.246   8.774  1.00  0.00    -0.262 N 
HETATM    3  O   UNL     1      44.850 -10.658   7.024  1.00  0.00    -0.264 OA
HETATM    4  H   UNL     1      42.960 -11.967   9.242  1.00  0.00     0.190 HD
ENDROOT
BRANCH   1   5
HETATM    5  C   UNL     1      43.573 -12.615   6.831  1.00  0.00     0.121 A 
HETATM    6  N   UNL     1      42.266 -12.787   6.473  1.00  0.00    -0.272 N 
HETATM    7  N   UNL     1      42.016 -13.942   5.839  1.00  0.00    -0.174 NA
HETATM    8  H   UNL     1      41.498 -12.144   6.640  1.00  0.00     0.189 HD
HETATM    9  C   UNL     1      43.211 -14.544   5.745  1.00  0.00     0.089 A 
HETATM   10  C   UNL     1      44.211 -13.751   6.375  1.00  0.00     0.071 A 
BRANCH   9  11
HETATM   11  C   UNL     1      43.384 -15.836   5.073  1.00  0.00    -0.005 A 
HETATM   12  C   UNL     1      44.147 -16.855   5.655  1.00  0.00     0.016 A 
HETATM   13  C   UNL     1      44.298 -18.087   5.010  1.00  0.00     0.037 A 
HETATM   14  C   UNL     1      43.688 -18.326   3.777  1.00  0.00     0.068 A 
HETATM   15  C   UNL     1      42.935 -17.315   3.185  1.00  0.00     0.037 A 
HETATM   16  C   UNL     1      42.786 -16.078   3.828  1.00  0.00     0.016 A 
BRANCH  14  17
HETATM   17  O   UNL     1      43.913 -19.574   3.264  1.00  0.00    -0.356 OA
HETATM   18  C   UNL     1      43.259 -19.891   2.042  1.00  0.00     0.210 C 
ENDBRANCH  14  17
ENDBRANCH   9  11
ENDBRANCH   1   5
BRANCH   2  19
HETATM   19  N   UNL     1      44.112 -10.310   9.626  1.00  0.00    -0.267 N 
HETATM   20  C   UNL     1      43.266  -9.469  10.323  1.00  0.00     0.240 C 
HETATM   21  O   UNL     1      42.060  -9.403  10.075  1.00  0.00    -0.272 OA
HETATM   22  H   UNL     1      45.060 -10.522   9.937  1.00  0.00     0.190 HD
BRANCH  20  23
HETATM   23  C   UNL     1      43.933  -8.634  11.395  1.00  0.00     0.143 C 
BRANCH  23  24
HETATM   24  C   UNL     1      43.014  -8.165  12.499  1.00  0.00    -0.049 A 
HETATM   25  C   UNL     1      42.472  -6.870  12.515  1.00  0.00     0.009 A 
HETATM   26  C   UNL     1      41.586  -6.482  13.524  1.00  0.00     0.024 A 
HETATM   27  C   UNL     1      41.219  -7.391  14.512  1.00  0.00     0.034 A 
HETATM   28 CL   UNL     1      40.120  -6.916  15.748  1.00  0.00    -0.084 Cl
HETATM   29  C   UNL     1      41.728  -8.686  14.499  1.00  0.00     0.024 A 
HETATM   30  C   UNL     1      42.619  -9.072  13.494  1.00  0.00     0.009 A 
ENDBRANCH  23  24
ENDBRANCH  20  23
ENDBRANCH   2  19
TORSDOF 6
ENDMDL
MODEL 4
REMARK VINA RESULT:      -7.9      8.077     10.837
REMARK  6 active torsions:
REMARK  status: ('A' for Active; 'I' for Inactive)
REMARK    1  A    between atoms: O_2  and  C_3 
REMARK    2  A    between atoms: C_6  and  C_7 
REMARK    3  A    between atoms: C_11  and  C_12 
REMARK       I    between atoms: C_12  and  N_13 
REMARK    4  A    between atoms: N_13  and  N_14 
REMARK       I    between atoms: N_14  and  C_15 
REMARK    5  A    between atoms: C_15  and  C_16 
REMARK    6  A    between atoms: C_16  and  C_17 
ROOT
HETATM    1  C   UNL     1      40.166 -13.037  -0.257  1.00  0.00     0.288 C 
HETATM    2  N   UNL     1      38.824 -12.813  -0.486  1.00  0.00    -0.262 N 
HETATM    3  O   UNL     1      41.042 -12.412  -0.854  1.00  0.00    -0.264 OA
HETATM    4  H   UNL     1      38.103 -13.209   0.114  1.00  0.00     0.190 HD
ENDROOT
BRANCH   1   5
HETATM    5  C   UNL     1      40.458 -14.033   0.737  1.00  0.00     0.121 A 
HETATM    6  N   UNL     1      39.489 -14.569   1.538  1.00  0.00    -0.272 N 
HETATM    7  N   UNL     1      39.939 -15.489   2.405  1.00  0.00    -0.174 NA
HETATM    8  H   UNL     1      38.500 -14.340   1.537  1.00  0.00     0.189 HD
HETATM    9  C   UNL     1      41.252 -15.589   2.144  1.00  0.00     0.089 A 
HETATM   10  C   UNL     1      41.619 -14.675   1.117  1.00  0.00     0.071 A 
BRANCH   9  11
HETATM   11  C   UNL     1      42.119 -16.531   2.859  1.00  0.00    -0.005 A 
HETATM   12  C   UNL     1      42.811 -17.537   2.172  1.00  0.00     0.016 A 
HETATM   13  C   UNL     1      43.643 -18.424   2.862  1.00  0.00     0.037 A 
HETATM   14  C   UNL     1      43.805 -18.324   4.244  1.00  0.00     0.068 A 
HETATM   15  C   UNL     1      43.113 -17.332   4.938  1.00  0.00     0.037 A 
HETATM   16  C   UNL     1      42.275 -16.444   4.249  1.00  0.00     0.016 A 
BRANCH  14  17
HETATM   17  O   UNL     1      44.651 -19.250   4.788  1.00  0.00    -0.356 OA
HETATM   18  C   UNL     1      44.111 -20.541   5.039  1.00  0.00     0.210 C 
ENDBRANCH  14  17
ENDBRANCH   9  11
ENDBRANCH   1   5
BRANCH   2  19
HETATM   19  N   UNL     1      38.441 -11.668  -1.202  1.00  0.00    -0.267 N 
HETATM   20  C   UNL     1      37.653 -11.870  -2.318  1.00  0.00     0.240 C 
HETATM   21  O   UNL     1      37.452 -12.994  -2.782  1.00  0.00    -0.272 OA
HETATM   22  H   UNL     1      38.464 -10.784  -0.694  1.00  0.00     0.190 HD
BRANCH  20  23
HETATM   23  C   UNL     1      37.074 -10.612  -2.929  1.00  0.00     0.143 C 
BRANCH  23  24
HETATM   24  C   UNL     1      35.564 -10.558  -2.960  1.00  0.00    -0.049 A 
HETATM   25  C   UNL     1      34.807 -11.387  -3.803  1.00  0.00     0.009 A 
HETATM   26  C   UNL     1      33.410 -11.347  -3.773  1.00  0.00     0.024 A 
HETATM   27  C   UNL     1      32.759 -10.494  -2.886  1.00  0.00     0.034 A 
HETATM   28 CL   UNL     1      31.040 -10.454  -2.843  1.00  0.00    -0.084 Cl
HETATM   29  C   UNL     1      33.493  -9.682  -2.027  1.00  0.00     0.024 A 
HETATM   30  C   UNL     1      34.889  -9.717  -2.061  1.00  0.00     0.009 A 
ENDBRANCH  23  24
ENDBRANCH  20  23
ENDBRANCH   2  19
TORSDOF 6
ENDMDL
MODEL 5
REMARK VINA RESULT:      -7.8      3.893     10.887
REMARK  6 active torsions:
REMARK  status: ('A' for Active; 'I' for Inactive)
REMARK    1  A    between atoms: O_2  and  C_3 
REMARK    2  A    between atoms: C_6  and  C_7 
REMARK    3  A    between atoms: C_11  and  C_12 
REMARK       I    between atoms: C_12  and  N_13 
REMARK    4  A    between atoms: N_13  and  N_14 
REMARK       I    between atoms: N_14  and  C_15 
REMARK    5  A    between atoms: C_15  and  C_16 
REMARK    6  A    between atoms: C_16  and  C_17 
ROOT
HETATM    1  C   UNL     1      44.561 -11.539   7.197  1.00  0.00     0.288 C 
HETATM    2  N   UNL     1      43.476 -12.391   7.209  1.00  0.00    -0.262 N 
HETATM    3  O   UNL     1      45.504 -11.697   6.423  1.00  0.00    -0.264 OA
HETATM    4  H   UNL     1      42.629 -12.173   7.730  1.00  0.00     0.190 HD
ENDROOT
BRANCH   1   5
HETATM    5  C   UNL     1      44.495 -10.452   8.135  1.00  0.00     0.121 A 
HETATM    6  N   UNL     1      45.370  -9.403   8.098  1.00  0.00    -0.272 N 
HETATM    7  N   UNL     1      45.158  -8.476   9.045  1.00  0.00    -0.174 NA
HETATM    8  H   UNL     1      46.137  -9.270   7.446  1.00  0.00     0.189 HD
HETATM    9  C   UNL     1      44.080  -8.914   9.714  1.00  0.00     0.089 A 
HETATM   10  C   UNL     1      43.648 -10.162   9.185  1.00  0.00     0.071 A 
BRANCH   9  11
HETATM   11  C   UNL     1      43.489  -8.156  10.821  1.00  0.00    -0.005 A 
HETATM   12  C   UNL     1      43.660  -8.569  12.149  1.00  0.00     0.016 A 
HETATM   13  C   UNL     1      43.100  -7.833  13.198  1.00  0.00     0.037 A 
HETATM   14  C   UNL     1      42.364  -6.675  12.946  1.00  0.00     0.068 A 
HETATM   15  C   UNL     1      42.180  -6.262  11.627  1.00  0.00     0.037 A 
HETATM   16  C   UNL     1      42.737  -6.999  10.573  1.00  0.00     0.016 A 
BRANCH  14  17
HETATM   17  O   UNL     1      41.880  -6.053  14.063  1.00  0.00    -0.356 OA
HETATM   18  C   UNL     1      41.253  -4.791  13.873  1.00  0.00     0.210 C 
ENDBRANCH  14  17
ENDBRANCH   9  11
ENDBRANCH   1   5
BRANCH   2  19
HETATM   19  N   UNL     1      43.306 -13.287   6.143  1.00  0.00    -0.267 N 
HETATM   20  C   UNL     1      42.807 -14.536   6.457  1.00  0.00     0.240 C 
HETATM   21  O   UNL     1      42.696 -14.921   7.623  1.00  0.00    -0.272 OA
HETATM   22  H   UNL     1      43.227 -12.878   5.212  1.00  0.00     0.190 HD
BRANCH  20  23
HETATM   23  C   UNL     1      42.424 -15.390   5.267  1.00  0.00     0.143 C 
BRANCH  23  24
HETATM   24  C   UNL     1      43.031 -16.774   5.257  1.00  0.00    -0.049 A 
HETATM   25  C   UNL     1      42.941 -17.633   6.364  1.00  0.00     0.009 A 
HETATM   26  C   UNL     1      43.471 -18.926   6.305  1.00  0.00     0.024 A 
HETATM   27  C   UNL     1      44.075 -19.376   5.135  1.00  0.00     0.034 A 
HETATM   28 CL   UNL     1      44.718 -20.970   5.061  1.00  0.00    -0.084 Cl
HETATM   29  C   UNL     1      44.153 -18.545   4.021  1.00  0.00     0.024 A 
HETATM   30  C   UNL     1      43.630 -17.251   4.081  1.00  0.00     0.009 A 
ENDBRANCH  23  24
ENDBRANCH  20  23
ENDBRANCH   2  19
TORSDOF 6
ENDMDL
MODEL 6
REMARK VINA RESULT:      -7.8      1.486      2.393
REMARK  6 active torsions:
REMARK  status: ('A' for Active; 'I' for Inactive)
REMARK    1  A    between atoms: O_2  and  C_3 
REMARK    2  A    between atoms: C_6  and  C_7 
REMARK    3  A    between atoms: C_11  and  C_12 
REMARK       I    between atoms: C_12  and  N_13 
REMARK    4  A    between atoms: N_13  and  N_14 
REMARK       I    between atoms: N_14  and  C_15 
REMARK    5  A    between atoms: C_15  and  C_16 
REMARK    6  A    between atoms: C_16  and  C_17 
ROOT
HETATM    1  C   UNL     1      42.216 -10.021   6.866  1.00  0.00     0.288 C 
HETATM    2  N   UNL     1      42.164 -10.421   8.186  1.00  0.00    -0.262 N 
HETATM    3  O   UNL     1      42.386  -8.846   6.548  1.00  0.00    -0.264 OA
HETATM    4  H   UNL     1      42.185 -11.403   8.451  1.00  0.00     0.190 HD
ENDROOT
BRANCH   1   5
HETATM    5  C   UNL     1      42.080 -11.079   5.903  1.00  0.00     0.121 A 
HETATM    6  N   UNL     1      41.156 -11.036   4.898  1.00  0.00    -0.272 N 
HETATM    7  N   UNL     1      41.172 -12.105   4.088  1.00  0.00    -0.174 NA
HETATM    8  H   UNL     1      40.483 -10.296   4.719  1.00  0.00     0.189 HD
HETATM    9  C   UNL     1      42.169 -12.872   4.557  1.00  0.00     0.089 A 
HETATM   10  C   UNL     1      42.749 -12.271   5.709  1.00  0.00     0.071 A 
BRANCH   9  11
HETATM   11  C   UNL     1      42.548 -14.135   3.918  1.00  0.00    -0.005 A 
HETATM   12  C   UNL     1      42.464 -15.348   4.613  1.00  0.00     0.016 A 
HETATM   13  C   UNL     1      42.819 -16.549   3.991  1.00  0.00     0.037 A 
HETATM   14  C   UNL     1      43.259 -16.565   2.667  1.00  0.00     0.068 A 
HETATM   15  C   UNL     1      43.355 -15.362   1.969  1.00  0.00     0.037 A 
HETATM   16  C   UNL     1      43.004 -14.157   2.592  1.00  0.00     0.016 A 
BRANCH  14  17
HETATM   17  O   UNL     1      43.566 -17.807   2.184  1.00  0.00    -0.356 OA
HETATM   18  C   UNL     1      44.028 -18.765   3.127  1.00  0.00     0.210 C 
ENDBRANCH  14  17
ENDBRANCH   9  11
ENDBRANCH   1   5
BRANCH   2  19
HETATM   19  N   UNL     1      42.585  -9.525   9.181  1.00  0.00    -0.267 N 
HETATM   20  C   UNL     1      43.535  -9.989  10.070  1.00  0.00     0.240 C 
HETATM   21  O   UNL     1      43.858 -11.177  10.120  1.00  0.00    -0.272 OA
HETATM   22  H   UNL     1      42.443  -8.532   8.991  1.00  0.00     0.190 HD
BRANCH  20  23
HETATM   23  C   UNL     1      44.130  -8.935  10.980  1.00  0.00     0.143 C 
BRANCH  23  24
HETATM   24  C   UNL     1      43.384  -8.721  12.276  1.00  0.00    -0.049 A 
HETATM   25  C   UNL     1      43.613  -7.599  13.089  1.00  0.00     0.009 A 
HETATM   26  C   UNL     1      42.871  -7.405  14.258  1.00  0.00     0.024 A 
HETATM   27  C   UNL     1      41.882  -8.318  14.613  1.00  0.00     0.034 A 
HETATM   28 CL   UNL     1      40.964  -8.072  16.046  1.00  0.00    -0.084 Cl
HETATM   29  C   UNL     1      41.627  -9.423  13.807  1.00  0.00     0.024 A 
HETATM   30  C   UNL     1      42.371  -9.621  12.642  1.00  0.00     0.009 A 
ENDBRANCH  23  24
ENDBRANCH  20  23
ENDBRANCH   2  19
TORSDOF 6
ENDMDL
MODEL 7
REMARK VINA RESULT:      -7.7     17.800     19.976
REMARK  6 active torsions:
REMARK  status: ('A' for Active; 'I' for Inactive)
REMARK    1  A    between atoms: O_2  and  C_3 
REMARK    2  A    between atoms: C_6  and  C_7 
REMARK    3  A    between atoms: C_11  and  C_12 
REMARK       I    between atoms: C_12  and  N_13 
REMARK    4  A    between atoms: N_13  and  N_14 
REMARK       I    between atoms: N_14  and  C_15 
REMARK    5  A    between atoms: C_15  and  C_16 
REMARK    6  A    between atoms: C_16  and  C_17 
ROOT
HETATM    1  C   UNL     1      42.062 -29.773   2.591  1.00  0.00     0.288 C 
HETATM    2  N   UNL     1      43.171 -29.526   3.375  1.00  0.00    -0.262 N 
HETATM    3  O   UNL     1      41.871 -29.183   1.529  1.00  0.00    -0.264 OA
HETATM    4  H   UNL     1      43.413 -30.121   4.165  1.00  0.00     0.190 HD
ENDROOT
BRANCH   1   5
HETATM    5  C   UNL     1      41.169 -30.779   3.097  1.00  0.00     0.121 A 
HETATM    6  N   UNL     1      40.768 -31.845   2.343  1.00  0.00    -0.272 N 
HETATM    7  N   UNL     1      39.938 -32.687   2.976  1.00  0.00    -0.174 NA
HETATM    8  H   UNL     1      41.030 -32.046   1.382  1.00  0.00     0.189 HD
HETATM    9  C   UNL     1      39.810 -32.175   4.210  1.00  0.00     0.089 A 
HETATM   10  C   UNL     1      40.551 -30.965   4.318  1.00  0.00     0.071 A 
BRANCH   9  11
HETATM   11  C   UNL     1      39.004 -32.827   5.246  1.00  0.00    -0.005 A 
HETATM   12  C   UNL     1      39.420 -32.836   6.584  1.00  0.00     0.016 A 
HETATM   13  C   UNL     1      38.639 -33.454   7.566  1.00  0.00     0.037 A 
HETATM   14  C   UNL     1      37.430 -34.069   7.236  1.00  0.00     0.068 A 
HETATM   15  C   UNL     1      37.013 -34.074   5.906  1.00  0.00     0.037 A 
HETATM   16  C   UNL     1      37.796 -33.459   4.919  1.00  0.00     0.016 A 
BRANCH  14  17
HETATM   17  O   UNL     1      36.767 -34.626   8.293  1.00  0.00    -0.356 OA
HETATM   18  C   UNL     1      35.371 -34.839   8.134  1.00  0.00     0.210 C 
ENDBRANCH  14  17
ENDBRANCH   9  11
ENDBRANCH   1   5
BRANCH   2  19
HETATM   19  N   UNL     1      44.238 -28.798   2.827  1.00  0.00    -0.267 N 
HETATM   20  C   UNL     1      45.372 -29.514   2.498  1.00  0.00     0.240 C 
HETATM   21  O   UNL     1      45.525 -30.689   2.839  1.00  0.00    -0.272 OA
HETATM   22  H   UNL     1      44.006 -27.902   2.399  1.00  0.00     0.190 HD
BRANCH  20  23
HETATM   23  C   UNL     1      46.408 -28.745   1.705  1.00  0.00     0.143 C 
BRANCH  23  24
HETATM   24  C   UNL     1      46.107 -28.609   0.231  1.00  0.00    -0.049 A 
HETATM   25  C   UNL     1      44.833 -28.876  -0.296  1.00  0.00     0.009 A 
HETATM   26  C   UNL     1      44.574 -28.693  -1.658  1.00  0.00     0.024 A 
HETATM   27  C   UNL     1      45.579 -28.222  -2.498  1.00  0.00     0.034 A 
HETATM   28 CL   UNL     1      45.255 -27.988  -4.171  1.00  0.00    -0.084 Cl
HETATM   29  C   UNL     1      46.840 -27.931  -1.989  1.00  0.00     0.024 A 
HETATM   30  C   UNL     1      47.102 -28.119  -0.630  1.00  0.00     0.009 A 
ENDBRANCH  23  24
ENDBRANCH  20  23
ENDBRANCH   2  19
TORSDOF 6
ENDMDL
MODEL 8
REMARK VINA RESULT:      -7.6      3.540      4.300
REMARK  6 active torsions:
REMARK  status: ('A' for Active; 'I' for Inactive)
REMARK    1  A    between atoms: O_2  and  C_3 
REMARK    2  A    between atoms: C_6  and  C_7 
REMARK    3  A    between atoms: C_11  and  C_12 
REMARK       I    between atoms: C_12  and  N_13 
REMARK    4  A    between atoms: N_13  and  N_14 
REMARK       I    between atoms: N_14  and  C_15 
REMARK    5  A    between atoms: C_15  and  C_16 
REMARK    6  A    between atoms: C_16  and  C_17 
ROOT
HETATM    1  C   UNL     1      42.167 -11.703   6.146  1.00  0.00     0.288 C 
HETATM    2  N   UNL     1      43.045 -12.374   6.973  1.00  0.00    -0.262 N 
HETATM    3  O   UNL     1      41.838 -10.536   6.355  1.00  0.00    -0.264 OA
HETATM    4  H   UNL     1      43.441 -13.275   6.717  1.00  0.00     0.190 HD
ENDROOT
BRANCH   1   5
HETATM    5  C   UNL     1      41.689 -12.459   5.021  1.00  0.00     0.121 A 
HETATM    6  N   UNL     1      41.106 -13.687   5.163  1.00  0.00    -0.272 N 
HETATM    7  N   UNL     1      40.714 -14.246   4.008  1.00  0.00    -0.174 NA
HETATM    8  H   UNL     1      40.952 -14.193   6.030  1.00  0.00     0.189 HD
HETATM    9  C   UNL     1      41.021 -13.339   3.069  1.00  0.00     0.089 A 
HETATM   10  C   UNL     1      41.654 -12.212   3.664  1.00  0.00     0.071 A 
BRANCH   9  11
HETATM   11  C   UNL     1      40.715 -13.550   1.651  1.00  0.00    -0.005 A 
HETATM   12  C   UNL     1      40.142 -14.749   1.208  1.00  0.00     0.016 A 
HETATM   13  C   UNL     1      39.845 -14.937  -0.145  1.00  0.00     0.037 A 
HETATM   14  C   UNL     1      40.109 -13.935  -1.080  1.00  0.00     0.068 A 
HETATM   15  C   UNL     1      40.688 -12.742  -0.651  1.00  0.00     0.037 A 
HETATM   16  C   UNL     1      40.990 -12.553   0.704  1.00  0.00     0.016 A 
BRANCH  14  17
HETATM   17  O   UNL     1      39.763 -14.250  -2.365  1.00  0.00    -0.356 OA
HETATM   18  C   UNL     1      38.625 -13.590  -2.902  1.00  0.00     0.210 C 
ENDBRANCH  14  17
ENDBRANCH   9  11
ENDBRANCH   1   5
BRANCH   2  19
HETATM   19  N   UNL     1      43.791 -11.638   7.907  1.00  0.00    -0.267 N 
HETATM   20  C   UNL     1      45.071 -11.280   7.533  1.00  0.00     0.240 C 
HETATM   21  O   UNL     1      45.609 -11.738   6.523  1.00  0.00    -0.272 OA
HETATM   22  H   UNL     1      43.261 -11.134   8.618  1.00  0.00     0.190 HD
BRANCH  20  23
HETATM   23  C   UNL     1      45.759 -10.301   8.460  1.00  0.00     0.143 C 
BRANCH  23  24
HETATM   24  C   UNL     1      44.827  -9.430   9.270  1.00  0.00    -0.049 A 
HETATM   25  C   UNL     1      44.561  -9.683  10.625  1.00  0.00     0.009 A 
HETATM   26  C   UNL     1      43.732  -8.830  11.359  1.00  0.00     0.024 A 
HETATM   27  C   UNL     1      43.179  -7.707  10.751  1.00  0.00     0.034 A 
HETATM   28 CL   UNL     1      42.167  -6.653  11.658  1.00  0.00    -0.084 Cl
HETATM   29  C   UNL     1      43.449  -7.429   9.414  1.00  0.00     0.024 A 
HETATM   30  C   UNL     1      44.273  -8.284   8.679  1.00  0.00     0.009 A 
ENDBRANCH  23  24
ENDBRANCH  20  23
ENDBRANCH   2  19
TORSDOF 6
ENDMDL
MODEL 9
REMARK VINA RESULT:      -7.5      7.638     10.333
REMARK  6 active torsions:
REMARK  status: ('A' for Active; 'I' for Inactive)
REMARK    1  A    between atoms: O_2  and  C_3 
REMARK    2  A    between atoms: C_6  and  C_7 
REMARK    3  A    between atoms: C_11  and  C_12 
REMARK       I    between atoms: C_12  and  N_13 
REMARK    4  A    between atoms: N_13  and  N_14 
REMARK       I    between atoms: N_14  and  C_15 
REMARK    5  A    between atoms: C_15  and  C_16 
REMARK    6  A    between atoms: C_16  and  C_17 
ROOT
HETATM    1  C   UNL     1      40.851 -12.732   0.347  1.00  0.00     0.288 C 
HETATM    2  N   UNL     1      40.166 -12.855  -0.845  1.00  0.00    -0.262 N 
HETATM    3  O   UNL     1      41.267 -11.647   0.750  1.00  0.00    -0.264 OA
HETATM    4  H   UNL     1      39.684 -13.714  -1.102  1.00  0.00     0.190 HD
ENDROOT
BRANCH   1   5
HETATM    5  C   UNL     1      41.019 -13.955   1.082  1.00  0.00     0.121 A 
HETATM    6  N   UNL     1      39.978 -14.803   1.337  1.00  0.00    -0.272 N 
HETATM    7  N   UNL     1      40.318 -15.900   2.030  1.00  0.00    -0.174 NA
HETATM    8  H   UNL     1      39.009 -14.679   1.060  1.00  0.00     0.189 HD
HETATM    9  C   UNL     1      41.643 -15.789   2.215  1.00  0.00     0.089 A 
HETATM   10  C   UNL     1      42.116 -14.570   1.652  1.00  0.00     0.071 A 
BRANCH   9  11
HETATM   11  C   UNL     1      42.423 -16.819   2.907  1.00  0.00    -0.005 A 
HETATM   12  C   UNL     1      42.860 -17.966   2.233  1.00  0.00     0.016 A 
HETATM   13  C   UNL     1      43.612 -18.939   2.900  1.00  0.00     0.037 A 
HETATM   14  C   UNL     1      43.944 -18.785   4.247  1.00  0.00     0.068 A 
HETATM   15  C   UNL     1      43.505 -17.651   4.929  1.00  0.00     0.037 A 
HETATM   16  C   UNL     1      42.748 -16.677   4.263  1.00  0.00     0.016 A 
BRANCH  14  17
HETATM   17  O   UNL     1      44.687 -19.807   4.771  1.00  0.00    -0.356 OA
HETATM   18  C   UNL     1      43.977 -20.965   5.187  1.00  0.00     0.210 C 
ENDBRANCH  14  17
ENDBRANCH   9  11
ENDBRANCH   1   5
BRANCH   2  19
HETATM   19  N   UNL     1      39.692 -11.694  -1.476  1.00  0.00    -0.267 N 
HETATM   20  C   UNL     1      39.915 -11.593  -2.835  1.00  0.00     0.240 C 
HETATM   21  O   UNL     1      40.655 -12.374  -3.436  1.00  0.00    -0.272 OA
HETATM   22  H   UNL     1      38.945 -11.188  -0.999  1.00  0.00     0.190 HD
BRANCH  20  23
HETATM   23  C   UNL     1      39.197 -10.448  -3.518  1.00  0.00     0.143 C 
BRANCH  23  24
HETATM   24  C   UNL     1      40.084  -9.295  -3.926  1.00  0.00    -0.049 A 
HETATM   25  C   UNL     1      41.180  -8.888  -3.148  1.00  0.00     0.009 A 
HETATM   26  C   UNL     1      42.010  -7.849  -3.577  1.00  0.00     0.024 A 
HETATM   27  C   UNL     1      41.764  -7.222  -4.795  1.00  0.00     0.034 A 
HETATM   28 CL   UNL     1      42.793  -5.950  -5.327  1.00  0.00    -0.084 Cl
HETATM   29  C   UNL     1      40.695  -7.626  -5.589  1.00  0.00     0.024 A 
HETATM   30  C   UNL     1      39.862  -8.661  -5.158  1.00  0.00     0.009 A 
ENDBRANCH  23  24
ENDBRANCH  20  23
ENDBRANCH   2  19
TORSDOF 6
ENDMDL
MODEL 10
REMARK VINA RESULT:      -7.4      4.452     11.312
REMARK  6 active torsions:
REMARK  status: ('A' for Active; 'I' for Inactive)
REMARK    1  A    between atoms: O_2  and  C_3 
REMARK    2  A    between atoms: C_6  and  C_7 
REMARK    3  A    between atoms: C_11  and  C_12 
REMARK       I    between atoms: C_12  and  N_13 
REMARK    4  A    between atoms: N_13  and  N_14 
REMARK       I    between atoms: N_14  and  C_15 
REMARK    5  A    between atoms: C_15  and  C_16 
REMARK    6  A    between atoms: C_16  and  C_17 
ROOT
HETATM    1  C   UNL     1      44.504 -10.874   8.327  1.00  0.00     0.288 C 
HETATM    2  N   UNL     1      43.633 -11.655   7.595  1.00  0.00    -0.262 N 
HETATM    3  O   UNL     1      45.673 -10.705   7.983  1.00  0.00    -0.264 OA
HETATM    4  H   UNL     1      42.633 -11.667   7.786  1.00  0.00     0.190 HD
ENDROOT
BRANCH   1   5
HETATM    5  C   UNL     1      43.939 -10.263   9.499  1.00  0.00     0.121 A 
HETATM    6  N   UNL     1      43.436 -10.999  10.534  1.00  0.00    -0.272 N 
HETATM    7  N   UNL     1      42.955 -10.265  11.549  1.00  0.00    -0.174 NA
HETATM    8  H   UNL     1      43.395 -12.012  10.600  1.00  0.00     0.189 HD
HETATM    9  C   UNL     1      43.177  -8.993  11.183  1.00  0.00     0.089 A 
HETATM   10  C   UNL     1      43.775  -8.951   9.892  1.00  0.00     0.071 A 
BRANCH   9  11
HETATM   11  C   UNL     1      42.827  -7.861  12.046  1.00  0.00    -0.005 A 
HETATM   12  C   UNL     1      42.192  -6.726  11.525  1.00  0.00     0.016 A 
HETATM   13  C   UNL     1      41.854  -5.656  12.359  1.00  0.00     0.037 A 
HETATM   14  C   UNL     1      42.137  -5.697  13.725  1.00  0.00     0.068 A 
HETATM   15  C   UNL     1      42.778  -6.817  14.251  1.00  0.00     0.037 A 
HETATM   16  C   UNL     1      43.122  -7.890  13.417  1.00  0.00     0.016 A 
BRANCH  14  17
HETATM   17  O   UNL     1      41.747  -4.587  14.421  1.00  0.00    -0.356 OA
HETATM   18  C   UNL     1      41.605  -3.383  13.679  1.00  0.00     0.210 C 
ENDBRANCH  14  17
ENDBRANCH   9  11
ENDBRANCH   1   5
BRANCH   2  19
HETATM   19  N   UNL     1      43.997 -12.039   6.295  1.00  0.00    -0.267 N 
HETATM   20  C   UNL     1      43.360 -11.388   5.257  1.00  0.00     0.240 C 
HETATM   21  O   UNL     1      42.389 -10.653   5.444  1.00  0.00    -0.272 OA
HETATM   22  H   UNL     1      44.905 -12.491   6.191  1.00  0.00     0.190 HD
BRANCH  20  23
HETATM   23  C   UNL     1      43.935 -11.660   3.883  1.00  0.00     0.143 C 
BRANCH  23  24
HETATM   24  C   UNL     1      43.007 -12.389   2.939  1.00  0.00    -0.049 A 
HETATM   25  C   UNL     1      42.012 -11.719   2.208  1.00  0.00     0.009 A 
HETATM   26  C   UNL     1      41.202 -12.414   1.306  1.00  0.00     0.024 A 
HETATM   27  C   UNL     1      41.392 -13.779   1.112  1.00  0.00     0.034 A 
HETATM   28 CL   UNL     1      40.401 -14.631  -0.006  1.00  0.00    -0.084 Cl
HETATM   29  C   UNL     1      42.388 -14.455   1.811  1.00  0.00     0.024 A 
HETATM   30  C   UNL     1      43.194 -13.762   2.717  1.00  0.00     0.009 A 
ENDBRANCH  23  24
ENDBRANCH  20  23
ENDBRANCH   2  19
TORSDOF 6
ENDMDL
