MODEL 1
REMARK VINA RESULT:      -6.8      0.000      0.000
REMARK  8 active torsions:
REMARK  status: ('A' for Active; 'I' for Inactive)
REMARK    1  A    between atoms: C_3  and  N_4 
REMARK       I    between atoms: N_4  and  C_5 
REMARK    2  A    between atoms: C_5  and  C_6 
REMARK    3  A    between atoms: C_6  and  C_7 
REMARK    4  A    between atoms: C_7  and  C_8 
REMARK    5  A    between atoms: C_8  and  O_9 
REMARK    6  A    between atoms: O_9  and  C_10 
REMARK    7  A    between atoms: C_18  and  C_19 
REMARK    8  A    between atoms: C_22  and  O_23 
ROOT
HETATM    1  N   UNL     1      42.008 -13.889   5.906  1.00  0.00    -0.327 N 
HETATM    2  C   UNL     1      42.509 -12.608   5.720  1.00  0.00     0.222 C 
HETATM    3  O   UNL     1      43.610 -12.317   5.272  1.00  0.00    -0.273 OA
HETATM    4  H   UNL     1      40.999 -13.957   5.904  1.00  0.00     0.169 HD
ENDROOT
BRANCH   1   5
HETATM    5  C   UNL     1      42.704 -15.101   5.684  1.00  0.00     0.041 A 
HETATM    6  C   UNL     1      43.284 -15.898   6.679  1.00  0.00    -0.033 A 
HETATM    7  C   UNL     1      43.130 -15.678   8.157  1.00  0.00     0.050 C 
HETATM    8  C   UNL     1      44.033 -17.019   6.282  1.00  0.00     0.046 A 
HETATM    9  C   UNL     1      44.147 -17.383   4.941  1.00  0.00     0.072 A 
HETATM   10  C   UNL     1      43.484 -16.671   3.934  1.00  0.00    -0.019 A 
HETATM   11  C   UNL     1      42.762 -15.530   4.339  1.00  0.00     0.040 A 
BRANCH   9  12
HETATM   12  O   UNL     1      44.928 -18.479   4.704  1.00  0.00    -0.360 OA
HETATM   13  H   UNL     1      45.130 -18.535   3.758  1.00  0.00     0.217 HD
ENDBRANCH   9  12
BRANCH  10  14
HETATM   14  C   UNL     1      43.532 -17.115   2.475  1.00  0.00     0.013 C 
HETATM   15  C   UNL     1      42.481 -18.199   2.202  1.00  0.00     0.015 C 
HETATM   16  C   UNL     1      43.369 -15.997   1.434  1.00  0.00     0.015 C 
ENDBRANCH  10  14
ENDBRANCH   1   5
BRANCH   2  17
HETATM   17  C   UNL     1      41.474 -11.547   6.064  1.00  0.00     0.105 C 
BRANCH  17  18
HETATM   18  C   UNL     1      40.040 -11.963   5.745  1.00  0.00     0.036 C 
BRANCH  18  19
HETATM   19  C   UNL     1      39.765 -12.111   4.248  1.00  0.00     0.176 C 
BRANCH  19  20
HETATM   20  O   UNL     1      39.781 -13.511   3.947  1.00  0.00    -0.350 OA
BRANCH  20  21
HETATM   21  C   UNL     1      39.866 -13.857   2.630  1.00  0.00     0.086 A 
HETATM   22  C   UNL     1      40.019 -13.004   1.543  1.00  0.00     0.152 A 
HETATM   23  N   UNL     1      40.110 -13.420   0.254  1.00  0.00    -0.270 NA
HETATM   24  C   UNL     1      40.033 -14.750   0.040  1.00  0.00     0.116 A 
HETATM   25  C   UNL     1      39.875 -15.683   1.051  1.00  0.00     0.022 A 
HETATM   26  C   UNL     1      39.793 -15.223   2.364  1.00  0.00     0.039 A 
ENDBRANCH  20  21
ENDBRANCH  19  20
ENDBRANCH  18  19
ENDBRANCH  17  18
ENDBRANCH   2  17
TORSDOF 8
ENDMDL
MODEL 2
REMARK VINA RESULT:      -6.8      2.275      5.470
REMARK  8 active torsions:
REMARK  status: ('A' for Active; 'I' for Inactive)
REMARK    1  A    between atoms: C_3  and  N_4 
REMARK       I    between atoms: N_4  and  C_5 
REMARK    2  A    between atoms: C_5  and  C_6 
REMARK    3  A    between atoms: C_6  and  C_7 
REMARK    4  A    between atoms: C_7  and  C_8 
REMARK    5  A    between atoms: C_8  and  O_9 
REMARK    6  A    between atoms: O_9  and  C_10 
REMARK    7  A    between atoms: C_18  and  C_19 
REMARK    8  A    between atoms: C_22  and  O_23 
ROOT
HETATM    1  N   UNL     1      42.262 -14.435   5.189  1.00  0.00    -0.327 N 
HETATM    2  C   UNL     1      41.292 -14.596   6.168  1.00  0.00     0.222 C 
HETATM    3  O   UNL     1      40.324 -13.870   6.358  1.00  0.00    -0.273 OA
HETATM    4  H   UNL     1      42.741 -15.284   4.919  1.00  0.00     0.169 HD
ENDROOT
BRANCH   1   5
HETATM    5  C   UNL     1      42.359 -13.358   4.275  1.00  0.00     0.041 A 
HETATM    6  C   UNL     1      43.080 -12.176   4.485  1.00  0.00    -0.033 A 
HETATM    7  C   UNL     1      43.995 -11.921   5.650  1.00  0.00     0.050 C 
HETATM    8  C   UNL     1      42.988 -11.159   3.520  1.00  0.00     0.046 A 
HETATM    9  C   UNL     1      42.259 -11.333   2.344  1.00  0.00     0.072 A 
HETATM   10  C   UNL     1      41.622 -12.545   2.054  1.00  0.00    -0.019 A 
HETATM   11  C   UNL     1      41.693 -13.547   3.043  1.00  0.00     0.040 A 
BRANCH   9  12
HETATM   12  O   UNL     1      42.237 -10.249   1.512  1.00  0.00    -0.360 OA
HETATM   13  H   UNL     1      41.321 -10.023   1.297  1.00  0.00     0.217 HD
ENDBRANCH   9  12
BRANCH  10  14
HETATM   14  C   UNL     1      40.897 -12.773   0.731  1.00  0.00     0.013 C 
HETATM   15  C   UNL     1      40.809 -14.271   0.410  1.00  0.00     0.015 C 
HETATM   16  C   UNL     1      39.490 -12.165   0.629  1.00  0.00     0.015 C 
ENDBRANCH  10  14
ENDBRANCH   1   5
BRANCH   2  17
HETATM   17  C   UNL     1      41.510 -15.871   6.968  1.00  0.00     0.105 C 
BRANCH  17  18
HETATM   18  C   UNL     1      42.941 -16.041   7.474  1.00  0.00     0.036 C 
BRANCH  18  19
HETATM   19  C   UNL     1      43.659 -17.254   6.882  1.00  0.00     0.176 C 
BRANCH  19  20
HETATM   20  O   UNL     1      44.159 -16.870   5.596  1.00  0.00    -0.350 OA
BRANCH  20  21
HETATM   21  C   UNL     1      43.922 -17.726   4.561  1.00  0.00     0.086 A 
HETATM   22  C   UNL     1      44.212 -19.085   4.509  1.00  0.00     0.152 A 
HETATM   23  N   UNL     1      43.937 -19.884   3.447  1.00  0.00    -0.270 NA
HETATM   24  C   UNL     1      43.353 -19.295   2.382  1.00  0.00     0.116 A 
HETATM   25  C   UNL     1      43.029 -17.950   2.330  1.00  0.00     0.022 A 
HETATM   26  C   UNL     1      43.319 -17.160   3.441  1.00  0.00     0.039 A 
ENDBRANCH  20  21
ENDBRANCH  19  20
ENDBRANCH  18  19
ENDBRANCH  17  18
ENDBRANCH   2  17
TORSDOF 8
ENDMDL
MODEL 3
REMARK VINA RESULT:      -6.7      2.603      5.153
REMARK  8 active torsions:
REMARK  status: ('A' for Active; 'I' for Inactive)
REMARK    1  A    between atoms: C_3  and  N_4 
REMARK       I    between atoms: N_4  and  C_5 
REMARK    2  A    between atoms: C_5  and  C_6 
REMARK    3  A    between atoms: C_6  and  C_7 
REMARK    4  A    between atoms: C_7  and  C_8 
REMARK    5  A    between atoms: C_8  and  O_9 
REMARK    6  A    between atoms: O_9  and  C_10 
REMARK    7  A    between atoms: C_18  and  C_19 
REMARK    8  A    between atoms: C_22  and  O_23 
ROOT
HETATM    1  N   UNL     1      41.819 -13.601   5.577  1.00  0.00    -0.327 N 
HETATM    2  C   UNL     1      40.525 -13.481   6.065  1.00  0.00     0.222 C 
HETATM    3  O   UNL     1      39.835 -14.382   6.523  1.00  0.00    -0.273 OA
HETATM    4  H   UNL     1      42.367 -12.752   5.606  1.00  0.00     0.169 HD
ENDROOT
BRANCH   1   5
HETATM    5  C   UNL     1      42.557 -14.802   5.447  1.00  0.00     0.041 A 
HETATM    6  C   UNL     1      43.165 -15.500   6.498  1.00  0.00    -0.033 A 
HETATM    7  C   UNL     1      43.002 -15.172   7.956  1.00  0.00     0.050 C 
HETATM    8  C   UNL     1      43.952 -16.621   6.188  1.00  0.00     0.046 A 
HETATM    9  C   UNL     1      44.079 -17.083   4.877  1.00  0.00     0.072 A 
HETATM   10  C   UNL     1      43.392 -16.474   3.821  1.00  0.00    -0.019 A 
HETATM   11  C   UNL     1      42.630 -15.331   4.139  1.00  0.00     0.040 A 
BRANCH   9  12
HETATM   12  O   UNL     1      44.897 -18.166   4.723  1.00  0.00    -0.360 OA
HETATM   13  H   UNL     1      44.476 -18.948   5.109  1.00  0.00     0.217 HD
ENDBRANCH   9  12
BRANCH  10  14
HETATM   14  C   UNL     1      43.455 -17.026   2.400  1.00  0.00     0.013 C 
HETATM   15  C   UNL     1      42.565 -18.269   2.259  1.00  0.00     0.015 C 
HETATM   16  C   UNL     1      43.095 -16.034   1.283  1.00  0.00     0.015 C 
ENDBRANCH  10  14
ENDBRANCH   1   5
BRANCH   2  17
HETATM   17  C   UNL     1      40.055 -12.034   6.052  1.00  0.00     0.105 C 
BRANCH  17  18
HETATM   18  C   UNL     1      41.144 -11.039   5.656  1.00  0.00     0.036 C 
BRANCH  18  19
HETATM   19  C   UNL     1      41.772 -10.315   6.847  1.00  0.00     0.176 C 
BRANCH  19  20
HETATM   20  O   UNL     1      42.904 -11.084   7.267  1.00  0.00    -0.350 OA
BRANCH  20  21
HETATM   21  C   UNL     1      44.047 -10.396   7.549  1.00  0.00     0.086 A 
HETATM   22  C   UNL     1      44.152  -9.078   7.980  1.00  0.00     0.152 A 
HETATM   23  N   UNL     1      45.327  -8.457   8.255  1.00  0.00    -0.270 NA
HETATM   24  C   UNL     1      46.452  -9.184   8.082  1.00  0.00     0.116 A 
HETATM   25  C   UNL     1      46.456 -10.500   7.652  1.00  0.00     0.022 A 
HETATM   26  C   UNL     1      45.232 -11.110   7.385  1.00  0.00     0.039 A 
ENDBRANCH  20  21
ENDBRANCH  19  20
ENDBRANCH  18  19
ENDBRANCH  17  18
ENDBRANCH   2  17
TORSDOF 8
ENDMDL
MODEL 4
REMARK VINA RESULT:      -6.7      3.871      7.188
REMARK  8 active torsions:
REMARK  status: ('A' for Active; 'I' for Inactive)
REMARK    1  A    between atoms: C_3  and  N_4 
REMARK       I    between atoms: N_4  and  C_5 
REMARK    2  A    between atoms: C_5  and  C_6 
REMARK    3  A    between atoms: C_6  and  C_7 
REMARK    4  A    between atoms: C_7  and  C_8 
REMARK    5  A    between atoms: C_8  and  O_9 
REMARK    6  A    between atoms: O_9  and  C_10 
REMARK    7  A    between atoms: C_18  and  C_19 
REMARK    8  A    between atoms: C_22  and  O_23 
ROOT
HETATM    1  N   UNL     1      43.484 -12.635   5.718  1.00  0.00    -0.327 N 
HETATM    2  C   UNL     1      44.405 -11.721   5.228  1.00  0.00     0.222 C 
HETATM    3  O   UNL     1      44.456 -11.282   4.086  1.00  0.00    -0.273 OA
HETATM    4  H   UNL     1      43.333 -12.595   6.718  1.00  0.00     0.169 HD
ENDROOT
BRANCH   1   5
HETATM    5  C   UNL     1      42.474 -13.290   4.972  1.00  0.00     0.041 A 
HETATM    6  C   UNL     1      41.143 -12.869   4.863  1.00  0.00    -0.033 A 
HETATM    7  C   UNL     1      40.605 -11.569   5.392  1.00  0.00     0.050 C 
HETATM    8  C   UNL     1      40.239 -13.690   4.168  1.00  0.00     0.046 A 
HETATM    9  C   UNL     1      40.654 -14.863   3.539  1.00  0.00     0.072 A 
HETATM   10  C   UNL     1      42.000 -15.251   3.535  1.00  0.00    -0.019 A 
HETATM   11  C   UNL     1      42.893 -14.437   4.261  1.00  0.00     0.040 A 
BRANCH   9  12
HETATM   12  O   UNL     1      39.661 -15.573   2.925  1.00  0.00    -0.360 OA
HETATM   13  H   UNL     1      38.819 -15.104   3.023  1.00  0.00     0.217 HD
ENDBRANCH   9  12
BRANCH  10  14
HETATM   14  C   UNL     1      42.476 -16.484   2.774  1.00  0.00     0.013 C 
HETATM   15  C   UNL     1      43.287 -16.080   1.535  1.00  0.00     0.015 C 
HETATM   16  C   UNL     1      43.295 -17.495   3.591  1.00  0.00     0.015 C 
ENDBRANCH  10  14
ENDBRANCH   1   5
BRANCH   2  17
HETATM   17  C   UNL     1      45.342 -11.229   6.321  1.00  0.00     0.105 C 
BRANCH  17  18
HETATM   18  C   UNL     1      44.710 -11.220   7.712  1.00  0.00     0.036 C 
BRANCH  18  19
HETATM   19  C   UNL     1      45.420 -10.293   8.699  1.00  0.00     0.176 C 
BRANCH  19  20
HETATM   20  O   UNL     1      45.332 -10.899   9.993  1.00  0.00    -0.350 OA
BRANCH  20  21
HETATM   21  C   UNL     1      44.427 -10.367  10.864  1.00  0.00     0.086 A 
HETATM   22  C   UNL     1      43.629 -11.053  11.772  1.00  0.00     0.152 A 
HETATM   23  N   UNL     1      42.754 -10.456  12.621  1.00  0.00    -0.270 NA
HETATM   24  C   UNL     1      42.664  -9.111  12.552  1.00  0.00     0.116 A 
HETATM   25  C   UNL     1      43.410  -8.336  11.680  1.00  0.00     0.022 A 
HETATM   26  C   UNL     1      44.304  -8.980  10.827  1.00  0.00     0.039 A 
ENDBRANCH  20  21
ENDBRANCH  19  20
ENDBRANCH  18  19
ENDBRANCH  17  18
ENDBRANCH   2  17
TORSDOF 8
ENDMDL
MODEL 5
REMARK VINA RESULT:      -6.4      3.039      6.734
REMARK  8 active torsions:
REMARK  status: ('A' for Active; 'I' for Inactive)
REMARK    1  A    between atoms: C_3  and  N_4 
REMARK       I    between atoms: N_4  and  C_5 
REMARK    2  A    between atoms: C_5  and  C_6 
REMARK    3  A    between atoms: C_6  and  C_7 
REMARK    4  A    between atoms: C_7  and  C_8 
REMARK    5  A    between atoms: C_8  and  O_9 
REMARK    6  A    between atoms: O_9  and  C_10 
REMARK    7  A    between atoms: C_18  and  C_19 
REMARK    8  A    between atoms: C_22  and  O_23 
ROOT
HETATM    1  N   UNL     1      41.323 -12.997   1.502  1.00  0.00    -0.327 N 
HETATM    2  C   UNL     1      40.713 -12.521   2.654  1.00  0.00     0.222 C 
HETATM    3  O   UNL     1      39.511 -12.371   2.831  1.00  0.00    -0.273 OA
HETATM    4  H   UNL     1      42.232 -13.419   1.643  1.00  0.00     0.169 HD
ENDROOT
BRANCH   1   5
HETATM    5  C   UNL     1      40.676 -13.328   0.286  1.00  0.00     0.041 A 
HETATM    6  C   UNL     1      40.089 -14.563  -0.011  1.00  0.00    -0.033 A 
HETATM    7  C   UNL     1      39.912 -15.690   0.967  1.00  0.00     0.050 C 
HETATM    8  C   UNL     1      39.580 -14.765  -1.305  1.00  0.00     0.046 A 
HETATM    9  C   UNL     1      39.588 -13.748  -2.259  1.00  0.00     0.072 A 
HETATM   10  C   UNL     1      40.065 -12.467  -1.955  1.00  0.00    -0.019 A 
HETATM   11  C   UNL     1      40.603 -12.285  -0.664  1.00  0.00     0.040 A 
BRANCH   9  12
HETATM   12  O   UNL     1      39.084 -14.097  -3.481  1.00  0.00    -0.360 OA
HETATM   13  H   UNL     1      38.778 -15.016  -3.455  1.00  0.00     0.217 HD
ENDBRANCH   9  12
BRANCH  10  14
HETATM   14  C   UNL     1      39.996 -11.326  -2.964  1.00  0.00     0.013 C 
HETATM   15  C   UNL     1      38.583 -10.729  -3.014  1.00  0.00     0.015 C 
HETATM   16  C   UNL     1      41.004 -10.187  -2.752  1.00  0.00     0.015 C 
ENDBRANCH  10  14
ENDBRANCH   1   5
BRANCH   2  17
HETATM   17  C   UNL     1      41.726 -12.271   3.761  1.00  0.00     0.105 C 
BRANCH  17  18
HETATM   18  C   UNL     1      42.980 -13.137   3.652  1.00  0.00     0.036 C 
BRANCH  18  19
HETATM   19  C   UNL     1      42.864 -14.475   4.383  1.00  0.00     0.176 C 
BRANCH  19  20
HETATM   20  O   UNL     1      42.438 -15.450   3.426  1.00  0.00    -0.350 OA
BRANCH  20  21
HETATM   21  C   UNL     1      43.010 -16.685   3.507  1.00  0.00     0.086 A 
HETATM   22  C   UNL     1      43.778 -17.190   4.550  1.00  0.00     0.152 A 
HETATM   23  N   UNL     1      44.310 -18.439   4.570  1.00  0.00    -0.270 NA
HETATM   24  C   UNL     1      44.072 -19.217   3.493  1.00  0.00     0.116 A 
HETATM   25  C   UNL     1      43.325 -18.807   2.401  1.00  0.00     0.022 A 
HETATM   26  C   UNL     1      42.788 -17.522   2.415  1.00  0.00     0.039 A 
ENDBRANCH  20  21
ENDBRANCH  19  20
ENDBRANCH  18  19
ENDBRANCH  17  18
ENDBRANCH   2  17
TORSDOF 8
ENDMDL
MODEL 6
REMARK VINA RESULT:      -6.3      3.180      8.069
REMARK  8 active torsions:
REMARK  status: ('A' for Active; 'I' for Inactive)
REMARK    1  A    between atoms: C_3  and  N_4 
REMARK       I    between atoms: N_4  and  C_5 
REMARK    2  A    between atoms: C_5  and  C_6 
REMARK    3  A    between atoms: C_6  and  C_7 
REMARK    4  A    between atoms: C_7  and  C_8 
REMARK    5  A    between atoms: C_8  and  O_9 
REMARK    6  A    between atoms: O_9  and  C_10 
REMARK    7  A    between atoms: C_18  and  C_19 
REMARK    8  A    between atoms: C_22  and  O_23 
ROOT
HETATM    1  N   UNL     1      40.818 -14.257   0.005  1.00  0.00    -0.327 N 
HETATM    2  C   UNL     1      40.782 -15.125   1.086  1.00  0.00     0.222 C 
HETATM    3  O   UNL     1      39.782 -15.493   1.689  1.00  0.00    -0.273 OA
HETATM    4  H   UNL     1      41.623 -14.361  -0.599  1.00  0.00     0.169 HD
ENDROOT
BRANCH   1   5
HETATM    5  C   UNL     1      39.714 -13.574  -0.559  1.00  0.00     0.041 A 
HETATM    6  C   UNL     1      38.938 -14.030  -1.633  1.00  0.00    -0.033 A 
HETATM    7  C   UNL     1      39.055 -15.390  -2.262  1.00  0.00     0.050 C 
HETATM    8  C   UNL     1      37.941 -13.182  -2.142  1.00  0.00     0.046 A 
HETATM    9  C   UNL     1      37.670 -11.943  -1.562  1.00  0.00     0.072 A 
HETATM   10  C   UNL     1      38.351 -11.510  -0.418  1.00  0.00    -0.019 A 
HETATM   11  C   UNL     1      39.372 -12.354   0.066  1.00  0.00     0.040 A 
BRANCH   9  12
HETATM   12  O   UNL     1      36.691 -11.217  -2.181  1.00  0.00    -0.360 OA
HETATM   13  H   UNL     1      37.090 -10.637  -2.846  1.00  0.00     0.217 HD
ENDBRANCH   9  12
BRANCH  10  14
HETATM   14  C   UNL     1      38.000 -10.197   0.275  1.00  0.00     0.013 C 
HETATM   15  C   UNL     1      37.789 -10.415   1.779  1.00  0.00     0.015 C 
HETATM   16  C   UNL     1      39.004  -9.051   0.079  1.00  0.00     0.015 C 
ENDBRANCH  10  14
ENDBRANCH   1   5
BRANCH   2  17
HETATM   17  C   UNL     1      42.164 -15.668   1.415  1.00  0.00     0.105 C 
BRANCH  17  18
HETATM   18  C   UNL     1      42.693 -15.216   2.776  1.00  0.00     0.036 C 
BRANCH  18  19
HETATM   19  C   UNL     1      42.555 -16.276   3.868  1.00  0.00     0.176 C 
BRANCH  19  20
HETATM   20  O   UNL     1      43.832 -16.906   4.016  1.00  0.00    -0.350 OA
BRANCH  20  21
HETATM   21  C   UNL     1      43.860 -18.268   3.942  1.00  0.00     0.086 A 
HETATM   22  C   UNL     1      44.140 -19.161   4.970  1.00  0.00     0.152 A 
HETATM   23  N   UNL     1      44.139 -20.511   4.829  1.00  0.00    -0.270 NA
HETATM   24  C   UNL     1      43.856 -20.991   3.600  1.00  0.00     0.116 A 
HETATM   25  C   UNL     1      43.569 -20.188   2.509  1.00  0.00     0.022 A 
HETATM   26  C   UNL     1      43.572 -18.806   2.690  1.00  0.00     0.039 A 
ENDBRANCH  20  21
ENDBRANCH  19  20
ENDBRANCH  18  19
ENDBRANCH  17  18
ENDBRANCH   2  17
TORSDOF 8
ENDMDL
MODEL 7
REMARK VINA RESULT:      -6.3      2.253      5.429
REMARK  8 active torsions:
REMARK  status: ('A' for Active; 'I' for Inactive)
REMARK    1  A    between atoms: C_3  and  N_4 
REMARK       I    between atoms: N_4  and  C_5 
REMARK    2  A    between atoms: C_5  and  C_6 
REMARK    3  A    between atoms: C_6  and  C_7 
REMARK    4  A    between atoms: C_7  and  C_8 
REMARK    5  A    between atoms: C_8  and  O_9 
REMARK    6  A    between atoms: O_9  and  C_10 
REMARK    7  A    between atoms: C_18  and  C_19 
REMARK    8  A    between atoms: C_22  and  O_23 
ROOT
HETATM    1  N   UNL     1      43.175 -15.049   5.841  1.00  0.00    -0.327 N 
HETATM    2  C   UNL     1      42.676 -16.097   6.602  1.00  0.00     0.222 C 
HETATM    3  O   UNL     1      41.799 -16.024   7.453  1.00  0.00    -0.273 OA
HETATM    4  H   UNL     1      43.583 -15.321   4.957  1.00  0.00     0.169 HD
ENDROOT
BRANCH   1   5
HETATM    5  C   UNL     1      42.817 -13.685   5.958  1.00  0.00     0.041 A 
HETATM    6  C   UNL     1      41.626 -13.115   5.493  1.00  0.00    -0.033 A 
HETATM    7  C   UNL     1      40.464 -13.886   4.933  1.00  0.00     0.050 C 
HETATM    8  C   UNL     1      41.469 -11.722   5.593  1.00  0.00     0.046 A 
HETATM    9  C   UNL     1      42.437 -10.921   6.200  1.00  0.00     0.072 A 
HETATM   10  C   UNL     1      43.586 -11.476   6.775  1.00  0.00    -0.019 A 
HETATM   11  C   UNL     1      43.748 -12.870   6.641  1.00  0.00     0.040 A 
BRANCH   9  12
HETATM   12  O   UNL     1      42.161  -9.582   6.201  1.00  0.00    -0.360 OA
HETATM   13  H   UNL     1      42.929  -9.093   5.872  1.00  0.00     0.217 HD
ENDBRANCH   9  12
BRANCH  10  14
HETATM   14  C   UNL     1      44.605 -10.617   7.518  1.00  0.00     0.013 C 
HETATM   15  C   UNL     1      44.343 -10.648   9.030  1.00  0.00     0.015 C 
HETATM   16  C   UNL     1      46.080 -10.966   7.267  1.00  0.00     0.015 C 
ENDBRANCH  10  14
ENDBRANCH   1   5
BRANCH   2  17
HETATM   17  C   UNL     1      43.295 -17.427   6.199  1.00  0.00     0.105 C 
BRANCH  17  18
HETATM   18  C   UNL     1      44.144 -17.348   4.931  1.00  0.00     0.036 C 
BRANCH  18  19
HETATM   19  C   UNL     1      43.326 -17.419   3.642  1.00  0.00     0.176 C 
BRANCH  19  20
HETATM   20  O   UNL     1      43.558 -16.204   2.920  1.00  0.00    -0.350 OA
BRANCH  20  21
HETATM   21  C   UNL     1      42.476 -15.620   2.331  1.00  0.00     0.086 A 
HETATM   22  C   UNL     1      42.408 -14.352   1.765  1.00  0.00     0.152 A 
HETATM   23  N   UNL     1      41.296 -13.836   1.182  1.00  0.00    -0.270 NA
HETATM   24  C   UNL     1      40.197 -14.619   1.172  1.00  0.00     0.116 A 
HETATM   25  C   UNL     1      40.159 -15.893   1.714  1.00  0.00     0.022 A 
HETATM   26  C   UNL     1      41.319 -16.396   2.298  1.00  0.00     0.039 A 
ENDBRANCH  20  21
ENDBRANCH  19  20
ENDBRANCH  18  19
ENDBRANCH  17  18
ENDBRANCH   2  17
TORSDOF 8
ENDMDL
MODEL 8
REMARK VINA RESULT:      -6.2      4.004      7.114
REMARK  8 active torsions:
REMARK  status: ('A' for Active; 'I' for Inactive)
REMARK    1  A    between atoms: C_3  and  N_4 
REMARK       I    between atoms: N_4  and  C_5 
REMARK    2  A    between atoms: C_5  and  C_6 
REMARK    3  A    between atoms: C_6  and  C_7 
REMARK    4  A    between atoms: C_7  and  C_8 
REMARK    5  A    between atoms: C_8  and  O_9 
REMARK    6  A    between atoms: O_9  and  C_10 
REMARK    7  A    between atoms: C_18  and  C_19 
REMARK    8  A    between atoms: C_22  and  O_23 
ROOT
HETATM    1  N   UNL     1      43.760 -12.574   6.712  1.00  0.00    -0.327 N 
HETATM    2  C   UNL     1      44.645 -11.653   6.169  1.00  0.00     0.222 C 
HETATM    3  O   UNL     1      44.703 -11.306   4.996  1.00  0.00    -0.273 OA
HETATM    4  H   UNL     1      43.579 -12.461   7.700  1.00  0.00     0.169 HD
ENDROOT
BRANCH   1   5
HETATM    5  C   UNL     1      42.808 -13.342   5.999  1.00  0.00     0.041 A 
HETATM    6  C   UNL     1      41.492 -12.952   5.723  1.00  0.00    -0.033 A 
HETATM    7  C   UNL     1      40.921 -11.591   6.004  1.00  0.00     0.050 C 
HETATM    8  C   UNL     1      40.640 -13.876   5.096  1.00  0.00     0.046 A 
HETATM    9  C   UNL     1      41.097 -15.130   4.688  1.00  0.00     0.072 A 
HETATM   10  C   UNL     1      42.437 -15.504   4.847  1.00  0.00    -0.019 A 
HETATM   11  C   UNL     1      43.275 -14.582   5.507  1.00  0.00     0.040 A 
BRANCH   9  12
HETATM   12  O   UNL     1      40.150 -15.932   4.115  1.00  0.00    -0.360 OA
HETATM   13  H   UNL     1      39.270 -15.652   4.406  1.00  0.00     0.217 HD
ENDBRANCH   9  12
BRANCH  10  14
HETATM   14  C   UNL     1      42.964 -16.836   4.324  1.00  0.00     0.013 C 
HETATM   15  C   UNL     1      43.214 -16.766   2.811  1.00  0.00     0.015 C 
HETATM   16  C   UNL     1      44.233 -17.365   5.009  1.00  0.00     0.015 C 
ENDBRANCH  10  14
ENDBRANCH   1   5
BRANCH   2  17
HETATM   17  C   UNL     1      45.523 -11.023   7.239  1.00  0.00     0.105 C 
BRANCH  17  18
HETATM   18  C   UNL     1      44.763 -10.106   8.194  1.00  0.00     0.036 C 
BRANCH  18  19
HETATM   19  C   UNL     1      45.161 -10.284   9.660  1.00  0.00     0.176 C 
BRANCH  19  20
HETATM   20  O   UNL     1      44.007 -10.757  10.363  1.00  0.00    -0.350 OA
BRANCH  20  21
HETATM   21  C   UNL     1      43.204  -9.815  10.934  1.00  0.00     0.086 A 
HETATM   22  C   UNL     1      41.839  -9.640  10.737  1.00  0.00     0.152 A 
HETATM   23  N   UNL     1      41.095  -8.685  11.351  1.00  0.00    -0.270 NA
HETATM   24  C   UNL     1      41.749  -7.858  12.194  1.00  0.00     0.116 A 
HETATM   25  C   UNL     1      43.106  -7.943  12.455  1.00  0.00     0.022 A 
HETATM   26  C   UNL     1      43.838  -8.940  11.814  1.00  0.00     0.039 A 
ENDBRANCH  20  21
ENDBRANCH  19  20
ENDBRANCH  18  19
ENDBRANCH  17  18
ENDBRANCH   2  17
TORSDOF 8
ENDMDL
MODEL 9
REMARK VINA RESULT:      -6.2      2.035      5.008
REMARK  8 active torsions:
REMARK  status: ('A' for Active; 'I' for Inactive)
REMARK    1  A    between atoms: C_3  and  N_4 
REMARK       I    between atoms: N_4  and  C_5 
REMARK    2  A    between atoms: C_5  and  C_6 
REMARK    3  A    between atoms: C_6  and  C_7 
REMARK    4  A    between atoms: C_7  and  C_8 
REMARK    5  A    between atoms: C_8  and  O_9 
REMARK    6  A    between atoms: O_9  and  C_10 
REMARK    7  A    between atoms: C_18  and  C_19 
REMARK    8  A    between atoms: C_22  and  O_23 
ROOT
HETATM    1  N   UNL     1      40.334 -14.495   4.061  1.00  0.00    -0.327 N 
HETATM    2  C   UNL     1      40.510 -13.133   3.864  1.00  0.00     0.222 C 
HETATM    3  O   UNL     1      41.405 -12.602   3.219  1.00  0.00    -0.273 OA
HETATM    4  H   UNL     1      39.384 -14.778   4.262  1.00  0.00     0.169 HD
ENDROOT
BRANCH   1   5
HETATM    5  C   UNL     1      41.199 -15.525   3.617  1.00  0.00     0.041 A 
HETATM    6  C   UNL     1      41.217 -16.070   2.327  1.00  0.00    -0.033 A 
HETATM    7  C   UNL     1      40.429 -15.547   1.160  1.00  0.00     0.050 C 
HETATM    8  C   UNL     1      42.066 -17.161   2.078  1.00  0.00     0.046 A 
HETATM    9  C   UNL     1      42.926 -17.657   3.058  1.00  0.00     0.072 A 
HETATM   10  C   UNL     1      43.012 -17.059   4.321  1.00  0.00    -0.019 A 
HETATM   11  C   UNL     1      42.133 -15.985   4.572  1.00  0.00     0.040 A 
BRANCH   9  12
HETATM   12  O   UNL     1      43.673 -18.737   2.680  1.00  0.00    -0.360 OA
HETATM   13  H   UNL     1      44.290 -18.476   1.981  1.00  0.00     0.217 HD
ENDBRANCH   9  12
BRANCH  10  14
HETATM   14  C   UNL     1      44.012 -17.538   5.368  1.00  0.00     0.013 C 
HETATM   15  C   UNL     1      44.475 -16.372   6.252  1.00  0.00     0.015 C 
HETATM   16  C   UNL     1      43.532 -18.682   6.274  1.00  0.00     0.015 C 
ENDBRANCH  10  14
ENDBRANCH   1   5
BRANCH   2  17
HETATM   17  C   UNL     1      39.380 -12.327   4.486  1.00  0.00     0.105 C 
BRANCH  17  18
HETATM   18  C   UNL     1      39.727 -11.738   5.853  1.00  0.00     0.036 C 
BRANCH  18  19
HETATM   19  C   UNL     1      41.015 -10.915   5.854  1.00  0.00     0.176 C 
BRANCH  19  20
HETATM   20  O   UNL     1      41.887 -11.485   6.836  1.00  0.00    -0.350 OA
BRANCH  20  21
HETATM   21  C   UNL     1      43.227 -11.379   6.607  1.00  0.00     0.086 A 
HETATM   22  C   UNL     1      43.872 -11.366   5.375  1.00  0.00     0.152 A 
HETATM   23  N   UNL     1      45.215 -11.246   5.219  1.00  0.00    -0.270 NA
HETATM   24  C   UNL     1      45.949 -11.143   6.347  1.00  0.00     0.116 A 
HETATM   25  C   UNL     1      45.406 -11.151   7.620  1.00  0.00     0.022 A 
HETATM   26  C   UNL     1      44.023 -11.269   7.745  1.00  0.00     0.039 A 
ENDBRANCH  20  21
ENDBRANCH  19  20
ENDBRANCH  18  19
ENDBRANCH  17  18
ENDBRANCH   2  17
TORSDOF 8
ENDMDL
MODEL 10
REMARK VINA RESULT:      -6.1      3.413      7.730
REMARK  8 active torsions:
REMARK  status: ('A' for Active; 'I' for Inactive)
REMARK    1  A    between atoms: C_3  and  N_4 
REMARK       I    between atoms: N_4  and  C_5 
REMARK    2  A    between atoms: C_5  and  C_6 
REMARK    3  A    between atoms: C_6  and  C_7 
REMARK    4  A    between atoms: C_7  and  C_8 
REMARK    5  A    between atoms: C_8  and  O_9 
REMARK    6  A    between atoms: O_9  and  C_10 
REMARK    7  A    between atoms: C_18  and  C_19 
REMARK    8  A    between atoms: C_22  and  O_23 
ROOT
HETATM    1  N   UNL     1      41.666 -12.948   0.497  1.00  0.00    -0.327 N 
HETATM    2  C   UNL     1      41.207 -13.410   1.723  1.00  0.00     0.222 C 
HETATM    3  O   UNL     1      40.041 -13.447   2.095  1.00  0.00    -0.273 OA
HETATM    4  H   UNL     1      42.553 -13.333   0.201  1.00  0.00     0.169 HD
ENDROOT
BRANCH   1   5
HETATM    5  C   UNL     1      40.880 -12.363  -0.525  1.00  0.00     0.041 A 
HETATM    6  C   UNL     1      40.834 -10.997  -0.832  1.00  0.00    -0.033 A 
HETATM    7  C   UNL     1      41.727  -9.949  -0.230  1.00  0.00     0.050 C 
HETATM    8  C   UNL     1      39.921 -10.564  -1.808  1.00  0.00     0.046 A 
HETATM    9  C   UNL     1      39.123 -11.465  -2.512  1.00  0.00     0.072 A 
HETATM   10  C   UNL     1      39.229 -12.846  -2.307  1.00  0.00    -0.019 A 
HETATM   11  C   UNL     1      40.125 -13.268  -1.303  1.00  0.00     0.040 A 
BRANCH   9  12
HETATM   12  O   UNL     1      38.264 -10.898  -3.411  1.00  0.00    -0.360 OA
HETATM   13  H   UNL     1      37.381 -10.836  -3.020  1.00  0.00     0.217 HD
ENDBRANCH   9  12
BRANCH  10  14
HETATM   14  C   UNL     1      38.425 -13.843  -3.135  1.00  0.00     0.013 C 
HETATM   15  C   UNL     1      38.772 -15.285  -2.738  1.00  0.00     0.015 C 
HETATM   16  C   UNL     1      36.899 -13.672  -3.086  1.00  0.00     0.015 C 
ENDBRANCH  10  14
ENDBRANCH   1   5
BRANCH   2  17
HETATM   17  C   UNL     1      42.340 -13.972   2.569  1.00  0.00     0.105 C 
BRANCH  17  18
HETATM   18  C   UNL     1      43.232 -14.961   1.821  1.00  0.00     0.036 C 
BRANCH  18  19
HETATM   19  C   UNL     1      42.828 -16.421   2.022  1.00  0.00     0.176 C 
BRANCH  19  20
HETATM   20  O   UNL     1      43.444 -16.873   3.233  1.00  0.00    -0.350 OA
BRANCH  20  21
HETATM   21  C   UNL     1      43.617 -18.218   3.373  1.00  0.00     0.086 A 
HETATM   22  C   UNL     1      44.101 -18.894   4.488  1.00  0.00     0.152 A 
HETATM   23  N   UNL     1      44.237 -20.242   4.563  1.00  0.00    -0.270 NA
HETATM   24  C   UNL     1      43.883 -20.949   3.469  1.00  0.00     0.116 A 
HETATM   25  C   UNL     1      43.397 -20.373   2.307  1.00  0.00     0.022 A 
HETATM   26  C   UNL     1      43.263 -18.987   2.266  1.00  0.00     0.039 A 
ENDBRANCH  20  21
ENDBRANCH  19  20
ENDBRANCH  18  19
ENDBRANCH  17  18
ENDBRANCH   2  17
TORSDOF 8
ENDMDL
