MODEL 1
REMARK VINA RESULT:      -8.3      0.000      0.000
REMARK  4 active torsions:
REMARK  status: ('A' for Active; 'I' for Inactive)
REMARK    1  A    between atoms: C_5  and  C_6 
REMARK    2  A    between atoms: C_6  and  N_7 
REMARK    3  A    between atoms: C_6  and  C_18 
REMARK    4  A    between atoms: N_7  and  C_8 
ROOT
HETATM    1  C   UNL     1      43.220 -16.248   3.893  1.00  0.00     0.290 C 
ENDROOT
BRANCH   1   2
HETATM    2  C   UNL     1      43.453 -17.746   3.752  1.00  0.00     0.021 A 
HETATM    3  C   UNL     1      43.208 -18.455   2.563  1.00  0.00     0.055 A 
HETATM    4  C   UNL     1      43.462 -19.824   2.488  1.00  0.00     0.117 A 
HETATM    5  C   UNL     1      43.960 -20.525   3.579  1.00  0.00     0.045 A 
HETATM    6  F   UNL     1      43.226 -20.467   1.338  1.00  0.00    -0.206 F 
HETATM    7  C   UNL     1      44.215 -19.841   4.765  1.00  0.00     0.046 A 
HETATM    8  C   UNL     1      43.968 -18.470   4.839  1.00  0.00     0.125 A 
HETATM    9  F   UNL     1      44.250 -17.838   5.987  1.00  0.00    -0.205 F 
ENDBRANCH   1   2
BRANCH   1  10
HETATM   10  N   UNL     1      43.185 -15.550   2.580  1.00  0.00     0.101 NA
HETATM   11  H   UNL     1      43.392 -16.264   1.877  1.00  0.00     0.317 HD
BRANCH  10  12
HETATM   12  C   UNL     1      41.993 -14.791   2.185  1.00  0.00     0.225 C 
HETATM   13  C   UNL     1      42.291 -13.353   1.706  1.00  0.00     0.069 C 
HETATM   14  C   UNL     1      41.021 -12.701   1.192  1.00  0.00     0.190 C 
HETATM   15  N   UNL     1      40.495 -13.521   0.047  1.00  0.00    -0.067 N 
HETATM   16  C   UNL     1      41.158 -11.339   0.545  1.00  0.00     0.035 C 
HETATM   17  H   UNL     1      41.260 -13.636  -0.635  1.00  0.00     0.280 HD
HETATM   18  C   UNL     1      40.077 -14.887   0.478  1.00  0.00     0.237 C 
HETATM   19  C   UNL     1      39.463 -12.657  -0.629  1.00  0.00     0.235 C 
HETATM   20  C   UNL     1      41.300 -15.597   1.056  1.00  0.00     0.063 C 
HETATM   21  C   UNL     1      39.874 -11.227  -0.275  1.00  0.00     0.030 C 
ENDBRANCH  10  12
ENDBRANCH   1  10
BRANCH   1  22
HETATM   22  C   UNL     1      42.149 -15.763   4.872  1.00  0.00    -0.018 A 
HETATM   23  C   UNL     1      41.010 -16.503   5.213  1.00  0.00     0.029 A 
HETATM   24  C   UNL     1      40.104 -15.972   6.121  1.00  0.00     0.116 A 
HETATM   25  N   UNL     1      40.258 -14.777   6.726  1.00  0.00    -0.273 NA
HETATM   26  C   UNL     1      41.390 -14.103   6.453  1.00  0.00     0.116 A 
HETATM   27  C   UNL     1      42.347 -14.550   5.556  1.00  0.00     0.029 A 
ENDBRANCH   1  22
TORSDOF 4
ENDMDL
MODEL 2
REMARK VINA RESULT:      -8.2      2.100      3.438
REMARK  4 active torsions:
REMARK  status: ('A' for Active; 'I' for Inactive)
REMARK    1  A    between atoms: C_5  and  C_6 
REMARK    2  A    between atoms: C_6  and  N_7 
REMARK    3  A    between atoms: C_6  and  C_18 
REMARK    4  A    between atoms: N_7  and  C_8 
ROOT
HETATM    1  C   UNL     1      42.369 -14.550   3.062  1.00  0.00     0.290 C 
ENDROOT
BRANCH   1   2
HETATM    2  C   UNL     1      42.922 -15.924   3.415  1.00  0.00     0.021 A 
HETATM    3  C   UNL     1      43.087 -16.372   4.737  1.00  0.00     0.055 A 
HETATM    4  C   UNL     1      43.578 -17.651   4.997  1.00  0.00     0.117 A 
HETATM    5  C   UNL     1      43.919 -18.515   3.964  1.00  0.00     0.045 A 
HETATM    6  F   UNL     1      43.716 -18.049   6.267  1.00  0.00    -0.206 F 
HETATM    7  C   UNL     1      43.758 -18.094   2.647  1.00  0.00     0.046 A 
HETATM    8  C   UNL     1      43.260 -16.817   2.385  1.00  0.00     0.125 A 
HETATM    9  F   UNL     1      43.092 -16.453   1.106  1.00  0.00    -0.205 F 
ENDBRANCH   1   2
BRANCH   1  10
HETATM   10  N   UNL     1      40.985 -14.613   2.521  1.00  0.00     0.101 NA
HETATM   11  H   UNL     1      40.379 -14.242   3.258  1.00  0.00     0.317 HD
BRANCH  10  12
HETATM   12  C   UNL     1      40.668 -13.969   1.242  1.00  0.00     0.225 C 
HETATM   13  C   UNL     1      40.164 -14.942   0.154  1.00  0.00     0.069 C 
HETATM   14  C   UNL     1      39.734 -14.169  -1.078  1.00  0.00     0.190 C 
HETATM   15  N   UNL     1      38.630 -13.226  -0.687  1.00  0.00    -0.067 N 
HETATM   16  C   UNL     1      39.074 -14.955  -2.192  1.00  0.00     0.035 C 
HETATM   17  H   UNL     1      37.899 -13.778  -0.213  1.00  0.00     0.280 HD
HETATM   18  C   UNL     1      39.093 -12.185   0.277  1.00  0.00     0.237 C 
HETATM   19  C   UNL     1      38.021 -12.756  -1.982  1.00  0.00     0.235 C 
HETATM   20  C   UNL     1      39.591 -12.892   1.535  1.00  0.00     0.063 C 
HETATM   21  C   UNL     1      38.341 -13.871  -2.979  1.00  0.00     0.030 C 
ENDBRANCH  10  12
ENDBRANCH   1  10
BRANCH   1  22
HETATM   22  C   UNL     1      42.588 -13.398   4.046  1.00  0.00    -0.018 A 
HETATM   23  C   UNL     1      43.575 -12.416   3.890  1.00  0.00     0.029 A 
HETATM   24  C   UNL     1      43.682 -11.407   4.838  1.00  0.00     0.116 A 
HETATM   25  N   UNL     1      42.872 -11.293   5.910  1.00  0.00    -0.273 NA
HETATM   26  C   UNL     1      41.879 -12.195   6.015  1.00  0.00     0.116 A 
HETATM   27  C   UNL     1      41.698 -13.239   5.123  1.00  0.00     0.029 A 
ENDBRANCH   1  22
TORSDOF 4
ENDMDL
MODEL 3
REMARK VINA RESULT:      -8.1      2.711      4.898
REMARK  4 active torsions:
REMARK  status: ('A' for Active; 'I' for Inactive)
REMARK    1  A    between atoms: C_5  and  C_6 
REMARK    2  A    between atoms: C_6  and  N_7 
REMARK    3  A    between atoms: C_6  and  C_18 
REMARK    4  A    between atoms: N_7  and  C_8 
ROOT
HETATM    1  C   UNL     1      41.331 -15.458   4.219  1.00  0.00     0.290 C 
ENDROOT
BRANCH   1   2
HETATM    2  C   UNL     1      41.918 -14.092   4.547  1.00  0.00     0.021 A 
HETATM    3  C   UNL     1      42.963 -13.506   3.812  1.00  0.00     0.055 A 
HETATM    4  C   UNL     1      43.445 -12.241   4.148  1.00  0.00     0.117 A 
HETATM    5  C   UNL     1      42.911 -11.527   5.213  1.00  0.00     0.045 A 
HETATM    6  F   UNL     1      44.435 -11.709   3.423  1.00  0.00    -0.206 F 
HETATM    7  C   UNL     1      41.871 -12.086   5.951  1.00  0.00     0.046 A 
HETATM    8  C   UNL     1      41.383 -13.348   5.611  1.00  0.00     0.125 A 
HETATM    9  F   UNL     1      40.363 -13.845   6.325  1.00  0.00    -0.205 F 
ENDBRANCH   1   2
BRANCH   1  10
HETATM   10  N   UNL     1      40.183 -15.374   3.276  1.00  0.00     0.101 NA
HETATM   11  H   UNL     1      39.367 -15.140   3.849  1.00  0.00     0.317 HD
BRANCH  10  12
HETATM   12  C   UNL     1      40.251 -14.481   2.115  1.00  0.00     0.225 C 
HETATM   13  C   UNL     1      39.894 -15.160   0.775  1.00  0.00     0.069 C 
HETATM   14  C   UNL     1      39.859 -14.130  -0.338  1.00  0.00     0.190 C 
HETATM   15  N   UNL     1      38.821 -13.097   0.002  1.00  0.00    -0.067 N 
HETATM   16  C   UNL     1      39.379 -14.598  -1.697  1.00  0.00     0.035 C 
HETATM   17  H   UNL     1      37.937 -13.592   0.197  1.00  0.00     0.280 HD
HETATM   18  C   UNL     1      39.176 -12.324   1.228  1.00  0.00     0.237 C 
HETATM   19  C   UNL     1      38.590 -12.322  -1.268  1.00  0.00     0.235 C 
HETATM   20  C   UNL     1      39.279 -13.306   2.394  1.00  0.00     0.063 C 
HETATM   21  C   UNL     1      38.989 -13.291  -2.383  1.00  0.00     0.030 C 
ENDBRANCH  10  12
ENDBRANCH   1  10
BRANCH   1  22
HETATM   22  C   UNL     1      42.288 -16.613   3.915  1.00  0.00    -0.018 A 
HETATM   23  C   UNL     1      42.398 -17.225   2.660  1.00  0.00     0.029 A 
HETATM   24  C   UNL     1      43.306 -18.261   2.489  1.00  0.00     0.116 A 
HETATM   25  N   UNL     1      44.123 -18.713   3.462  1.00  0.00    -0.273 NA
HETATM   26  C   UNL     1      44.067 -18.073   4.644  1.00  0.00     0.116 A 
HETATM   27  C   UNL     1      43.188 -17.035   4.909  1.00  0.00     0.029 A 
ENDBRANCH   1  22
TORSDOF 4
ENDMDL
MODEL 4
REMARK VINA RESULT:      -8.0      1.981      3.094
REMARK  4 active torsions:
REMARK  status: ('A' for Active; 'I' for Inactive)
REMARK    1  A    between atoms: C_5  and  C_6 
REMARK    2  A    between atoms: C_6  and  N_7 
REMARK    3  A    between atoms: C_6  and  C_18 
REMARK    4  A    between atoms: N_7  and  C_8 
ROOT
HETATM    1  C   UNL     1      42.208 -15.127   3.650  1.00  0.00     0.290 C 
ENDROOT
BRANCH   1   2
HETATM    2  C   UNL     1      42.855 -16.429   4.102  1.00  0.00     0.021 A 
HETATM    3  C   UNL     1      42.829 -16.881   5.433  1.00  0.00     0.055 A 
HETATM    4  C   UNL     1      43.421 -18.095   5.782  1.00  0.00     0.117 A 
HETATM    5  C   UNL     1      44.052 -18.887   4.832  1.00  0.00     0.045 A 
HETATM    6  F   UNL     1      43.370 -18.500   7.056  1.00  0.00    -0.206 F 
HETATM    7  C   UNL     1      44.085 -18.461   3.507  1.00  0.00     0.046 A 
HETATM    8  C   UNL     1      43.487 -17.251   3.155  1.00  0.00     0.125 A 
HETATM    9  F   UNL     1      43.513 -16.884   1.866  1.00  0.00    -0.205 F 
ENDBRANCH   1   2
BRANCH   1  10
HETATM   10  N   UNL     1      40.727 -15.147   3.789  1.00  0.00     0.101 NA
HETATM   11  H   UNL     1      40.515 -14.566   4.604  1.00  0.00     0.317 HD
BRANCH  10  12
HETATM   12  C   UNL     1      39.880 -14.752   2.659  1.00  0.00     0.225 C 
HETATM   13  C   UNL     1      39.600 -13.235   2.581  1.00  0.00     0.069 C 
HETATM   14  C   UNL     1      38.836 -12.911   1.311  1.00  0.00     0.190 C 
HETATM   15  N   UNL     1      39.668 -13.337   0.133  1.00  0.00    -0.067 N 
HETATM   16  C   UNL     1      38.605 -11.447   0.998  1.00  0.00     0.035 C 
HETATM   17  H   UNL     1      40.598 -12.903   0.233  1.00  0.00     0.280 HD
HETATM   18  C   UNL     1      39.870 -14.815   0.092  1.00  0.00     0.237 C 
HETATM   19  C   UNL     1      39.033 -12.687  -1.067  1.00  0.00     0.235 C 
HETATM   20  C   UNL     1      40.597 -15.230   1.370  1.00  0.00     0.063 C 
HETATM   21  C   UNL     1      38.305 -11.467  -0.499  1.00  0.00     0.030 C 
ENDBRANCH  10  12
ENDBRANCH   1  10
BRANCH   1  22
HETATM   22  C   UNL     1      42.845 -13.804   4.084  1.00  0.00    -0.018 A 
HETATM   23  C   UNL     1      43.094 -13.458   5.418  1.00  0.00     0.029 A 
HETATM   24  C   UNL     1      43.685 -12.235   5.701  1.00  0.00     0.116 A 
HETATM   25  N   UNL     1      44.063 -11.346   4.760  1.00  0.00    -0.273 NA
HETATM   26  C   UNL     1      43.889 -11.713   3.477  1.00  0.00     0.116 A 
HETATM   27  C   UNL     1      43.302 -12.911   3.099  1.00  0.00     0.029 A 
ENDBRANCH   1  22
TORSDOF 4
ENDMDL
MODEL 5
REMARK VINA RESULT:      -7.9     13.930     15.712
REMARK  4 active torsions:
REMARK  status: ('A' for Active; 'I' for Inactive)
REMARK    1  A    between atoms: C_5  and  C_6 
REMARK    2  A    between atoms: C_6  and  N_7 
REMARK    3  A    between atoms: C_6  and  C_18 
REMARK    4  A    between atoms: N_7  and  C_8 
ROOT
HETATM    1  C   UNL     1      45.240 -29.343  -0.031  1.00  0.00     0.290 C 
ENDROOT
BRANCH   1   2
HETATM    2  C   UNL     1      44.937 -29.251  -1.521  1.00  0.00     0.021 A 
HETATM    3  C   UNL     1      45.211 -28.109  -2.294  1.00  0.00     0.055 A 
HETATM    4  C   UNL     1      44.930 -28.093  -3.660  1.00  0.00     0.117 A 
HETATM    5  C   UNL     1      44.374 -29.197  -4.293  1.00  0.00     0.045 A 
HETATM    6  F   UNL     1      45.211 -26.993  -4.368  1.00  0.00    -0.206 F 
HETATM    7  C   UNL     1      44.099 -30.340  -3.548  1.00  0.00     0.046 A 
HETATM    8  C   UNL     1      44.386 -30.360  -2.183  1.00  0.00     0.125 A 
HETATM    9  F   UNL     1      44.134 -31.486  -1.500  1.00  0.00    -0.205 F 
ENDBRANCH   1   2
BRANCH   1  10
HETATM   10  N   UNL     1      46.040 -28.189   0.460  1.00  0.00     0.101 NA
HETATM   11  H   UNL     1      45.464 -27.732   1.172  1.00  0.00     0.317 HD
BRANCH  10  12
HETATM   12  C   UNL     1      47.396 -28.404   0.977  1.00  0.00     0.225 C 
HETATM   13  C   UNL     1      47.444 -28.854   2.454  1.00  0.00     0.069 C 
HETATM   14  C   UNL     1      48.870 -29.182   2.853  1.00  0.00     0.190 C 
HETATM   15  N   UNL     1      49.369 -30.289   1.967  1.00  0.00    -0.067 N 
HETATM   16  C   UNL     1      49.083 -29.781   4.227  1.00  0.00     0.035 C 
HETATM   17  H   UNL     1      48.689 -31.063   2.018  1.00  0.00     0.280 HD
HETATM   18  C   UNL     1      49.458 -29.870   0.537  1.00  0.00     0.237 C 
HETATM   19  C   UNL     1      50.626 -30.798   2.623  1.00  0.00     0.235 C 
HETATM   20  C   UNL     1      48.058 -29.475   0.072  1.00  0.00     0.063 C 
HETATM   21  C   UNL     1      50.457 -30.434   4.100  1.00  0.00     0.030 C 
ENDBRANCH  10  12
ENDBRANCH   1  10
BRANCH   1  22
HETATM   22  C   UNL     1      44.115 -29.756   0.921  1.00  0.00    -0.018 A 
HETATM   23  C   UNL     1      42.845 -29.167   0.931  1.00  0.00     0.029 A 
HETATM   24  C   UNL     1      41.893 -29.625   1.832  1.00  0.00     0.116 A 
HETATM   25  N   UNL     1      42.104 -30.632   2.702  1.00  0.00    -0.273 NA
HETATM   26  C   UNL     1      43.301 -31.245   2.638  1.00  0.00     0.116 A 
HETATM   27  C   UNL     1      44.314 -30.854   1.777  1.00  0.00     0.029 A 
ENDBRANCH   1  22
TORSDOF 4
ENDMDL
MODEL 6
REMARK VINA RESULT:      -7.9      2.861      6.580
REMARK  4 active torsions:
REMARK  status: ('A' for Active; 'I' for Inactive)
REMARK    1  A    between atoms: C_5  and  C_6 
REMARK    2  A    between atoms: C_6  and  N_7 
REMARK    3  A    between atoms: C_6  and  C_18 
REMARK    4  A    between atoms: N_7  and  C_8 
ROOT
HETATM    1  C   UNL     1      41.296 -14.239   2.872  1.00  0.00     0.290 C 
ENDROOT
BRANCH   1   2
HETATM    2  C   UNL     1      40.869 -13.938   1.442  1.00  0.00     0.021 A 
HETATM    3  C   UNL     1      41.171 -12.732   0.784  1.00  0.00     0.055 A 
HETATM    4  C   UNL     1      40.771 -12.524  -0.535  1.00  0.00     0.117 A 
HETATM    5  C   UNL     1      40.063 -13.493  -1.234  1.00  0.00     0.045 A 
HETATM    6  F   UNL     1      41.082 -11.368  -1.134  1.00  0.00    -0.206 F 
HETATM    7  C   UNL     1      39.758 -14.697  -0.605  1.00  0.00     0.046 A 
HETATM    8  C   UNL     1      40.165 -14.910   0.713  1.00  0.00     0.125 A 
HETATM    9  F   UNL     1      39.878 -16.090   1.280  1.00  0.00    -0.205 F 
ENDBRANCH   1   2
BRANCH   1  10
HETATM   10  N   UNL     1      42.552 -15.033   2.937  1.00  0.00     0.101 NA
HETATM   11  H   UNL     1      43.206 -14.477   3.493  1.00  0.00     0.317 HD
BRANCH  10  12
HETATM   12  C   UNL     1      42.522 -16.414   3.432  1.00  0.00     0.225 C 
HETATM   13  C   UNL     1      42.956 -17.467   2.389  1.00  0.00     0.069 C 
HETATM   14  C   UNL     1      43.023 -18.839   3.033  1.00  0.00     0.190 C 
HETATM   15  N   UNL     1      44.023 -18.790   4.154  1.00  0.00    -0.067 N 
HETATM   16  C   UNL     1      43.576 -19.971   2.190  1.00  0.00     0.035 C 
HETATM   17  H   UNL     1      44.906 -18.419   3.772  1.00  0.00     0.280 HD
HETATM   18  C   UNL     1      43.595 -17.874   5.251  1.00  0.00     0.237 C 
HETATM   19  C   UNL     1      44.299 -20.227   4.514  1.00  0.00     0.235 C 
HETATM   20  C   UNL     1      43.456 -16.469   4.668  1.00  0.00     0.063 C 
HETATM   21  C   UNL     1      43.973 -21.007   3.239  1.00  0.00     0.030 C 
ENDBRANCH  10  12
ENDBRANCH   1  10
BRANCH   1  22
HETATM   22  C   UNL     1      41.231 -13.114   3.908  1.00  0.00    -0.018 A 
HETATM   23  C   UNL     1      42.339 -12.357   4.309  1.00  0.00     0.029 A 
HETATM   24  C   UNL     1      42.167 -11.352   5.251  1.00  0.00     0.116 A 
HETATM   25  N   UNL     1      40.979 -11.033   5.803  1.00  0.00    -0.273 NA
HETATM   26  C   UNL     1      39.905 -11.713   5.360  1.00  0.00     0.116 A 
HETATM   27  C   UNL     1      39.981 -12.736   4.428  1.00  0.00     0.029 A 
ENDBRANCH   1  22
TORSDOF 4
ENDMDL
MODEL 7
REMARK VINA RESULT:      -7.8      3.031      5.586
REMARK  4 active torsions:
REMARK  status: ('A' for Active; 'I' for Inactive)
REMARK    1  A    between atoms: C_5  and  C_6 
REMARK    2  A    between atoms: C_6  and  N_7 
REMARK    3  A    between atoms: C_6  and  C_18 
REMARK    4  A    between atoms: N_7  and  C_8 
ROOT
HETATM    1  C   UNL     1      42.154 -14.717   4.380  1.00  0.00     0.290 C 
ENDROOT
BRANCH   1   2
HETATM    2  C   UNL     1      42.731 -16.039   4.868  1.00  0.00     0.021 A 
HETATM    3  C   UNL     1      43.573 -16.848   4.085  1.00  0.00     0.055 A 
HETATM    4  C   UNL     1      44.089 -18.038   4.596  1.00  0.00     0.117 A 
HETATM    5  C   UNL     1      43.788 -18.459   5.885  1.00  0.00     0.045 A 
HETATM    6  F   UNL     1      44.894 -18.781   3.827  1.00  0.00    -0.206 F 
HETATM    7  C   UNL     1      42.961 -17.670   6.680  1.00  0.00     0.046 A 
HETATM    8  C   UNL     1      42.449 -16.475   6.173  1.00  0.00     0.125 A 
HETATM    9  F   UNL     1      41.678 -15.727   6.974  1.00  0.00    -0.205 F 
ENDBRANCH   1   2
BRANCH   1  10
HETATM   10  N   UNL     1      43.087 -13.576   4.585  1.00  0.00     0.101 NA
HETATM   11  H   UNL     1      42.961 -12.964   3.774  1.00  0.00     0.317 HD
BRANCH  10  12
HETATM   12  C   UNL     1      43.022 -12.789   5.821  1.00  0.00     0.225 C 
HETATM   13  C   UNL     1      44.402 -12.358   6.366  1.00  0.00     0.069 C 
HETATM   14  C   UNL     1      44.226 -11.439   7.560  1.00  0.00     0.190 C 
HETATM   15  N   UNL     1      43.452 -10.228   7.118  1.00  0.00    -0.067 N 
HETATM   16  C   UNL     1      45.475 -10.802   8.131  1.00  0.00     0.035 C 
HETATM   17  H   UNL     1      43.934  -9.829   6.299  1.00  0.00     0.280 HD
HETATM   18  C   UNL     1      42.064 -10.572   6.692  1.00  0.00     0.237 C 
HETATM   19  C   UNL     1      43.611  -9.220   8.226  1.00  0.00     0.235 C 
HETATM   20  C   UNL     1      42.156 -11.540   5.514  1.00  0.00     0.063 C 
HETATM   21  C   UNL     1      44.919  -9.615   8.914  1.00  0.00     0.030 C 
ENDBRANCH  10  12
ENDBRANCH   1  10
BRANCH   1  22
HETATM   22  C   UNL     1      41.437 -14.685   3.028  1.00  0.00    -0.018 A 
HETATM   23  C   UNL     1      41.717 -13.757   2.018  1.00  0.00     0.029 A 
HETATM   24  C   UNL     1      41.013 -13.822   0.824  1.00  0.00     0.116 A 
HETATM   25  N   UNL     1      40.074 -14.751   0.554  1.00  0.00    -0.273 NA
HETATM   26  C   UNL     1      39.861 -15.687   1.498  1.00  0.00     0.116 A 
HETATM   27  C   UNL     1      40.510 -15.698   2.722  1.00  0.00     0.029 A 
ENDBRANCH   1  22
TORSDOF 4
ENDMDL
MODEL 8
REMARK VINA RESULT:      -7.5      3.192      6.892
REMARK  4 active torsions:
REMARK  status: ('A' for Active; 'I' for Inactive)
REMARK    1  A    between atoms: C_5  and  C_6 
REMARK    2  A    between atoms: C_6  and  N_7 
REMARK    3  A    between atoms: C_6  and  C_18 
REMARK    4  A    between atoms: N_7  and  C_8 
ROOT
HETATM    1  C   UNL     1      40.336 -13.556   1.317  1.00  0.00     0.290 C 
ENDROOT
BRANCH   1   2
HETATM    2  C   UNL     1      40.244 -13.557  -0.203  1.00  0.00     0.021 A 
HETATM    3  C   UNL     1      39.564 -14.547  -0.933  1.00  0.00     0.055 A 
HETATM    4  C   UNL     1      39.496 -14.481  -2.324  1.00  0.00     0.117 A 
HETATM    5  C   UNL     1      40.096 -13.444  -3.026  1.00  0.00     0.045 A 
HETATM    6  F   UNL     1      38.833 -15.435  -2.988  1.00  0.00    -0.206 F 
HETATM    7  C   UNL     1      40.771 -12.450  -2.322  1.00  0.00     0.046 A 
HETATM    8  C   UNL     1      40.833 -12.510  -0.930  1.00  0.00     0.125 A 
HETATM    9  F   UNL     1      41.467 -11.523  -0.282  1.00  0.00    -0.205 F 
ENDBRANCH   1   2
BRANCH   1  10
HETATM   10  N   UNL     1      41.691 -13.928   1.807  1.00  0.00     0.101 NA
HETATM   11  H   UNL     1      42.058 -13.094   2.274  1.00  0.00     0.317 HD
BRANCH  10  12
HETATM   12  C   UNL     1      41.863 -15.100   2.672  1.00  0.00     0.225 C 
HETATM   13  C   UNL     1      42.508 -16.314   1.967  1.00  0.00     0.069 C 
HETATM   14  C   UNL     1      42.768 -17.421   2.971  1.00  0.00     0.190 C 
HETATM   15  N   UNL     1      43.696 -16.894   4.031  1.00  0.00    -0.067 N 
HETATM   16  C   UNL     1      43.534 -18.632   2.481  1.00  0.00     0.035 C 
HETATM   17  H   UNL     1      44.523 -16.501   3.556  1.00  0.00     0.280 HD
HETATM   18  C   UNL     1      43.076 -15.794   4.826  1.00  0.00     0.237 C 
HETATM   19  C   UNL     1      44.184 -18.106   4.780  1.00  0.00     0.235 C 
HETATM   20  C   UNL     1      42.738 -14.651   3.871  1.00  0.00     0.063 C 
HETATM   21  C   UNL     1      44.046 -19.254   3.778  1.00  0.00     0.030 C 
ENDBRANCH  10  12
ENDBRANCH   1  10
BRANCH   1  22
HETATM   22  C   UNL     1      39.704 -12.396   2.089  1.00  0.00    -0.018 A 
HETATM   23  C   UNL     1      40.230 -11.870   3.276  1.00  0.00     0.029 A 
HETATM   24  C   UNL     1      39.582 -10.808   3.892  1.00  0.00     0.116 A 
HETATM   25  N   UNL     1      38.469 -10.222   3.405  1.00  0.00    -0.273 NA
HETATM   26  C   UNL     1      38.010 -10.681   2.226  1.00  0.00     0.116 A 
HETATM   27  C   UNL     1      38.587 -11.740   1.543  1.00  0.00     0.029 A 
ENDBRANCH   1  22
TORSDOF 4
ENDMDL
MODEL 9
REMARK VINA RESULT:      -7.5      3.020      5.974
REMARK  4 active torsions:
REMARK  status: ('A' for Active; 'I' for Inactive)
REMARK    1  A    between atoms: C_5  and  C_6 
REMARK    2  A    between atoms: C_6  and  N_7 
REMARK    3  A    between atoms: C_6  and  C_18 
REMARK    4  A    between atoms: N_7  and  C_8 
ROOT
HETATM    1  C   UNL     1      42.291 -15.356   3.945  1.00  0.00     0.290 C 
ENDROOT
BRANCH   1   2
HETATM    2  C   UNL     1      41.588 -14.907   2.670  1.00  0.00     0.021 A 
HETATM    3  C   UNL     1      41.972 -13.769   1.940  1.00  0.00     0.055 A 
HETATM    4  C   UNL     1      41.303 -13.420   0.767  1.00  0.00     0.117 A 
HETATM    5  C   UNL     1      40.243 -14.181   0.289  1.00  0.00     0.045 A 
HETATM    6  F   UNL     1      41.698 -12.335   0.091  1.00  0.00    -0.206 F 
HETATM    7  C   UNL     1      39.851 -15.315   0.994  1.00  0.00     0.046 A 
HETATM    8  C   UNL     1      40.524 -15.669   2.164  1.00  0.00     0.125 A 
HETATM    9  F   UNL     1      40.138 -16.782   2.803  1.00  0.00    -0.205 F 
ENDBRANCH   1   2
BRANCH   1  10
HETATM   10  N   UNL     1      41.482 -15.094   5.165  1.00  0.00     0.101 NA
HETATM   11  H   UNL     1      41.463 -15.977   5.683  1.00  0.00     0.317 HD
BRANCH  10  12
HETATM   12  C   UNL     1      41.845 -13.994   6.064  1.00  0.00     0.225 C 
HETATM   13  C   UNL     1      43.357 -13.678   6.094  1.00  0.00     0.069 C 
HETATM   14  C   UNL     1      43.614 -12.445   6.940  1.00  0.00     0.190 C 
HETATM   15  N   UNL     1      42.863 -11.290   6.339  1.00  0.00    -0.067 N 
HETATM   16  C   UNL     1      45.029 -11.904   6.959  1.00  0.00     0.035 C 
HETATM   17  H   UNL     1      43.128 -11.227   5.344  1.00  0.00     0.280 HD
HETATM   18  C   UNL     1      41.386 -11.490   6.393  1.00  0.00     0.237 C 
HETATM   19  C   UNL     1      43.425 -10.057   6.996  1.00  0.00     0.235 C 
HETATM   20  C   UNL     1      41.048 -12.749   5.598  1.00  0.00     0.063 C 
HETATM   21  C   UNL     1      44.832 -10.466   7.436  1.00  0.00     0.030 C 
ENDBRANCH  10  12
ENDBRANCH   1  10
BRANCH   1  22
HETATM   22  C   UNL     1      42.989 -16.718   3.955  1.00  0.00    -0.018 A 
HETATM   23  C   UNL     1      43.425 -17.380   2.801  1.00  0.00     0.029 A 
HETATM   24  C   UNL     1      44.057 -18.610   2.924  1.00  0.00     0.116 A 
HETATM   25  N   UNL     1      44.304 -19.214   4.103  1.00  0.00    -0.273 NA
HETATM   26  C   UNL     1      43.951 -18.541   5.213  1.00  0.00     0.116 A 
HETATM   27  C   UNL     1      43.310 -17.312   5.189  1.00  0.00     0.029 A 
ENDBRANCH   1  22
TORSDOF 4
ENDMDL
MODEL 10
REMARK VINA RESULT:      -7.3      4.008      5.977
REMARK  4 active torsions:
REMARK  status: ('A' for Active; 'I' for Inactive)
REMARK    1  A    between atoms: C_5  and  C_6 
REMARK    2  A    between atoms: C_6  and  N_7 
REMARK    3  A    between atoms: C_6  and  C_18 
REMARK    4  A    between atoms: N_7  and  C_8 
ROOT
HETATM    1  C   UNL     1      43.122 -12.356   5.535  1.00  0.00     0.290 C 
ENDROOT
BRANCH   1   2
HETATM    2  C   UNL     1      43.915 -11.470   6.486  1.00  0.00     0.021 A 
HETATM    3  C   UNL     1      45.317 -11.508   6.586  1.00  0.00     0.055 A 
HETATM    4  C   UNL     1      45.989 -10.655   7.461  1.00  0.00     0.117 A 
HETATM    5  C   UNL     1      45.299  -9.751   8.257  1.00  0.00     0.045 A 
HETATM    6  F   UNL     1      47.325 -10.711   7.526  1.00  0.00    -0.206 F 
HETATM    7  C   UNL     1      43.910  -9.693   8.171  1.00  0.00     0.046 A 
HETATM    8  C   UNL     1      43.237 -10.540   7.290  1.00  0.00     0.125 A 
HETATM    9  F   UNL     1      41.903 -10.439   7.211  1.00  0.00    -0.205 F 
ENDBRANCH   1   2
BRANCH   1  10
HETATM   10  N   UNL     1      43.844 -12.613   4.260  1.00  0.00     0.101 NA
HETATM   11  H   UNL     1      44.275 -13.536   4.363  1.00  0.00     0.317 HD
BRANCH  10  12
HETATM   12  C   UNL     1      43.127 -12.537   2.983  1.00  0.00     0.225 C 
HETATM   13  C   UNL     1      42.554 -13.887   2.499  1.00  0.00     0.069 C 
HETATM   14  C   UNL     1      41.717 -13.681   1.251  1.00  0.00     0.190 C 
HETATM   15  N   UNL     1      40.593 -12.740   1.581  1.00  0.00    -0.067 N 
HETATM   16  C   UNL     1      40.957 -14.880   0.724  1.00  0.00     0.035 C 
HETATM   17  H   UNL     1      40.101 -13.116   2.406  1.00  0.00     0.280 HD
HETATM   18  C   UNL     1      41.086 -11.378   1.941  1.00  0.00     0.237 C 
HETATM   19  C   UNL     1      39.623 -12.850   0.434  1.00  0.00     0.235 C 
HETATM   20  C   UNL     1      41.982 -11.508   3.171  1.00  0.00     0.063 C 
HETATM   21  C   UNL     1      39.883 -14.238  -0.153  1.00  0.00     0.030 C 
ENDBRANCH  10  12
ENDBRANCH   1  10
BRANCH   1  22
HETATM   22  C   UNL     1      42.420 -13.593   6.099  1.00  0.00    -0.018 A 
HETATM   23  C   UNL     1      41.071 -13.895   5.875  1.00  0.00     0.029 A 
HETATM   24  C   UNL     1      40.535 -15.050   6.428  1.00  0.00     0.116 A 
HETATM   25  N   UNL     1      41.242 -15.931   7.163  1.00  0.00    -0.273 NA
HETATM   26  C   UNL     1      42.555 -15.676   7.313  1.00  0.00     0.116 A 
HETATM   27  C   UNL     1      43.176 -14.546   6.805  1.00  0.00     0.029 A 
ENDBRANCH   1  22
TORSDOF 4
ENDMDL
