MODEL 1
REMARK VINA RESULT:      -9.4      0.000      0.000
REMARK  3 active torsions:
REMARK  status: ('A' for Active; 'I' for Inactive)
REMARK    1  A    between atoms: C_8  and  C_9 
REMARK       I    between atoms: C_9  and  N_10 
REMARK    2  A    between atoms: N_10  and  N_11 
REMARK    3  A    between atoms: N_11  and  C_12 
ROOT
HETATM    1  C   UNL     1      42.848 -14.561   4.182  1.00  0.00     0.276 C 
HETATM    2  N   UNL     1      42.223 -13.976   5.257  1.00  0.00    -0.264 N 
HETATM    3  O   UNL     1      43.092 -13.927   3.153  1.00  0.00    -0.266 OA
HETATM    4  H   UNL     1      41.964 -14.461   6.123  1.00  0.00     0.190 HD
ENDROOT
BRANCH   2   5
HETATM    5  N   UNL     1      41.882 -12.624   5.149  1.00  0.00    -0.275 N 
HETATM    6  H   UNL     1      40.922 -12.473   4.828  1.00  0.00     0.189 HD
BRANCH   5   7
HETATM    7  C   UNL     1      42.464 -11.678   5.921  1.00  0.00     0.187 A 
HETATM    8  S   UNL     1      41.574 -10.284   6.391  1.00  0.00    -0.048 SA
HETATM    9  C   UNL     1      42.943  -9.684   7.241  1.00  0.00     0.043 A 
HETATM   10  C   UNL     1      43.994 -10.594   7.110  1.00  0.00     0.115 A 
HETATM   11  C   UNL     1      43.075  -8.489   7.969  1.00  0.00     0.063 A 
HETATM   12  N   UNL     1      43.699 -11.726   6.363  1.00  0.00    -0.219 NA
HETATM   13  C   UNL     1      45.222 -10.279   7.735  1.00  0.00     0.149 A 
HETATM   14  C   UNL     1      45.375  -9.098   8.459  1.00  0.00     0.087 A 
HETATM   15  F   UNL     1      46.267 -11.114   7.641  1.00  0.00    -0.203 F 
HETATM   16  C   UNL     1      44.306  -8.225   8.567  1.00  0.00     0.120 A 
HETATM   17  F   UNL     1      44.457  -7.092   9.264  1.00  0.00    -0.206 F 
ENDBRANCH   5   7
ENDBRANCH   2   5
BRANCH   1  18
HETATM   18  C   UNL     1      43.217 -16.001   4.327  1.00  0.00     0.110 A 
HETATM   19  C   UNL     1      43.792 -16.560   5.570  1.00  0.00     0.304 A 
HETATM   20  O   UNL     1      44.095 -17.919   5.582  1.00  0.00    -0.274 OA
HETATM   21  O   UNL     1      43.998 -15.863   6.559  1.00  0.00    -0.259 OA
HETATM   22  C   UNL     1      43.878 -18.731   4.455  1.00  0.00     0.089 A 
HETATM   23  C   UNL     1      43.342 -18.197   3.290  1.00  0.00    -0.001 A 
HETATM   24  C   UNL     1      44.221 -20.078   4.553  1.00  0.00     0.038 A 
HETATM   25  C   UNL     1      43.145 -19.035   2.190  1.00  0.00     0.014 A 
HETATM   26  C   UNL     1      43.008 -16.785   3.256  1.00  0.00     0.037 A 
HETATM   27  C   UNL     1      43.486 -20.389   2.273  1.00  0.00     0.001 A 
HETATM   28  C   UNL     1      44.023 -20.909   3.453  1.00  0.00     0.003 A 
ENDBRANCH   1  18
TORSDOF 3
ENDMDL
MODEL 2
REMARK VINA RESULT:      -9.4      5.559      7.198
REMARK  3 active torsions:
REMARK  status: ('A' for Active; 'I' for Inactive)
REMARK    1  A    between atoms: C_8  and  C_9 
REMARK       I    between atoms: C_9  and  N_10 
REMARK    2  A    between atoms: N_10  and  N_11 
REMARK    3  A    between atoms: N_11  and  C_12 
ROOT
HETATM    1  C   UNL     1      43.004 -14.794   2.574  1.00  0.00     0.276 C 
HETATM    2  N   UNL     1      41.850 -14.109   2.874  1.00  0.00    -0.264 N 
HETATM    3  O   UNL     1      43.793 -14.386   1.720  1.00  0.00    -0.266 OA
HETATM    4  H   UNL     1      41.141 -14.418   3.548  1.00  0.00     0.190 HD
ENDROOT
BRANCH   2   5
HETATM    5  N   UNL     1      41.608 -12.918   2.183  1.00  0.00    -0.275 N 
HETATM    6  H   UNL     1      42.396 -12.266   2.212  1.00  0.00     0.189 HD
BRANCH   5   7
HETATM    7  C   UNL     1      40.758 -12.863   1.132  1.00  0.00     0.187 A 
HETATM    8  S   UNL     1      39.252 -12.050   1.286  1.00  0.00    -0.048 SA
HETATM    9  C   UNL     1      38.858 -12.450  -0.339  1.00  0.00     0.043 A 
HETATM   10  C   UNL     1      39.911 -13.182  -0.895  1.00  0.00     0.115 A 
HETATM   11  C   UNL     1      37.697 -12.141  -1.069  1.00  0.00     0.063 A 
HETATM   12  N   UNL     1      40.986 -13.398  -0.044  1.00  0.00    -0.219 NA
HETATM   13  C   UNL     1      39.779 -13.616  -2.233  1.00  0.00     0.149 A 
HETATM   14  C   UNL     1      38.634 -13.323  -2.973  1.00  0.00     0.087 A 
HETATM   15  F   UNL     1      40.756 -14.324  -2.818  1.00  0.00    -0.203 F 
HETATM   16  C   UNL     1      37.616 -12.593  -2.384  1.00  0.00     0.120 A 
HETATM   17  F   UNL     1      36.519 -12.312  -3.099  1.00  0.00    -0.206 F 
ENDBRANCH   5   7
ENDBRANCH   2   5
BRANCH   1  18
HETATM   18  C   UNL     1      43.249 -16.055   3.336  1.00  0.00     0.110 A 
HETATM   19  C   UNL     1      43.435 -16.082   4.803  1.00  0.00     0.304 A 
HETATM   20  O   UNL     1      43.658 -17.320   5.399  1.00  0.00    -0.274 OA
HETATM   21  O   UNL     1      43.397 -15.058   5.479  1.00  0.00    -0.259 OA
HETATM   22  C   UNL     1      43.717 -18.502   4.640  1.00  0.00     0.089 A 
HETATM   23  C   UNL     1      43.546 -18.468   3.261  1.00  0.00    -0.001 A 
HETATM   24  C   UNL     1      43.955 -19.695   5.318  1.00  0.00     0.038 A 
HETATM   25  C   UNL     1      43.616 -19.662   2.541  1.00  0.00     0.014 A 
HETATM   26  C   UNL     1      43.302 -17.189   2.617  1.00  0.00     0.037 A 
HETATM   27  C   UNL     1      43.856 -20.868   3.208  1.00  0.00     0.001 A 
HETATM   28  C   UNL     1      44.025 -20.883   4.595  1.00  0.00     0.003 A 
ENDBRANCH   1  18
TORSDOF 3
ENDMDL
MODEL 3
REMARK VINA RESULT:      -8.9      1.598      2.137
REMARK  3 active torsions:
REMARK  status: ('A' for Active; 'I' for Inactive)
REMARK    1  A    between atoms: C_8  and  C_9 
REMARK       I    between atoms: C_9  and  N_10 
REMARK    2  A    between atoms: N_10  and  N_11 
REMARK    3  A    between atoms: N_11  and  C_12 
ROOT
HETATM    1  C   UNL     1      42.465 -14.075   4.118  1.00  0.00     0.276 C 
HETATM    2  N   UNL     1      43.367 -13.098   3.773  1.00  0.00    -0.264 N 
HETATM    3  O   UNL     1      41.444 -13.815   4.759  1.00  0.00    -0.266 OA
HETATM    4  H   UNL     1      44.248 -13.260   3.272  1.00  0.00     0.190 HD
ENDROOT
BRANCH   2   5
HETATM    5  N   UNL     1      43.081 -11.786   4.164  1.00  0.00    -0.275 N 
HETATM    6  H   UNL     1      42.238 -11.408   3.723  1.00  0.00     0.189 HD
BRANCH   5   7
HETATM    7  C   UNL     1      43.454 -11.305   5.371  1.00  0.00     0.187 A 
HETATM    8  S   UNL     1      42.276 -10.648   6.437  1.00  0.00    -0.048 SA
HETATM    9  C   UNL     1      43.500 -10.300   7.593  1.00  0.00     0.043 A 
HETATM   10  C   UNL     1      44.735 -10.713   7.086  1.00  0.00     0.115 A 
HETATM   11  C   UNL     1      43.375  -9.701   8.858  1.00  0.00     0.063 A 
HETATM   12  N   UNL     1      44.686 -11.290   5.824  1.00  0.00    -0.219 NA
HETATM   13  C   UNL     1      45.880 -10.506   7.887  1.00  0.00     0.149 A 
HETATM   14  C   UNL     1      45.778  -9.911   9.144  1.00  0.00     0.087 A 
HETATM   15  F   UNL     1      47.092 -10.880   7.451  1.00  0.00    -0.203 F 
HETATM   16  C   UNL     1      44.534  -9.519   9.609  1.00  0.00     0.120 A 
HETATM   17  F   UNL     1      44.441  -8.949  10.817  1.00  0.00    -0.206 F 
ENDBRANCH   5   7
ENDBRANCH   2   5
BRANCH   1  18
HETATM   18  C   UNL     1      42.785 -15.465   3.675  1.00  0.00     0.110 A 
HETATM   19  C   UNL     1      42.701 -15.896   2.263  1.00  0.00     0.304 A 
HETATM   20  O   UNL     1      43.023 -17.220   1.976  1.00  0.00    -0.274 OA
HETATM   21  O   UNL     1      42.361 -15.126   1.370  1.00  0.00    -0.259 OA
HETATM   22  C   UNL     1      43.403 -18.121   2.986  1.00  0.00     0.089 A 
HETATM   23  C   UNL     1      43.475 -17.709   4.311  1.00  0.00    -0.001 A 
HETATM   24  C   UNL     1      43.698 -19.429   2.608  1.00  0.00     0.038 A 
HETATM   25  C   UNL     1      43.852 -18.634   5.287  1.00  0.00     0.014 A 
HETATM   26  C   UNL     1      43.153 -16.331   4.635  1.00  0.00     0.037 A 
HETATM   27  C   UNL     1      44.149 -19.952   4.924  1.00  0.00     0.001 A 
HETATM   28  C   UNL     1      44.073 -20.348   3.586  1.00  0.00     0.003 A 
ENDBRANCH   1  18
TORSDOF 3
ENDMDL
MODEL 4
REMARK VINA RESULT:      -8.7      1.790      2.584
REMARK  3 active torsions:
REMARK  status: ('A' for Active; 'I' for Inactive)
REMARK    1  A    between atoms: C_8  and  C_9 
REMARK       I    between atoms: C_9  and  N_10 
REMARK    2  A    between atoms: N_10  and  N_11 
REMARK    3  A    between atoms: N_11  and  C_12 
ROOT
HETATM    1  C   UNL     1      42.507 -14.244   4.696  1.00  0.00     0.276 C 
HETATM    2  N   UNL     1      43.204 -13.190   4.155  1.00  0.00    -0.264 N 
HETATM    3  O   UNL     1      41.616 -14.069   5.530  1.00  0.00    -0.266 OA
HETATM    4  H   UNL     1      43.977 -13.276   3.486  1.00  0.00     0.190 HD
ENDROOT
BRANCH   2   5
HETATM    5  N   UNL     1      42.857 -11.902   4.574  1.00  0.00    -0.275 N 
HETATM    6  H   UNL     1      41.940 -11.599   4.233  1.00  0.00     0.189 HD
BRANCH   5   7
HETATM    7  C   UNL     1      43.324 -11.377   5.730  1.00  0.00     0.187 A 
HETATM    8  S   UNL     1      44.971 -11.600   6.171  1.00  0.00    -0.048 SA
HETATM    9  C   UNL     1      44.711 -10.719   7.625  1.00  0.00     0.043 A 
HETATM   10  C   UNL     1      43.376 -10.309   7.676  1.00  0.00     0.115 A 
HETATM   11  C   UNL     1      45.625 -10.415   8.648  1.00  0.00     0.063 A 
HETATM   12  N   UNL     1      42.606 -10.687   6.585  1.00  0.00    -0.219 NA
HETATM   13  C   UNL     1      42.955  -9.572   8.805  1.00  0.00     0.149 A 
HETATM   14  C   UNL     1      43.846  -9.263   9.833  1.00  0.00     0.087 A 
HETATM   15  F   UNL     1      41.685  -9.155   8.910  1.00  0.00    -0.203 F 
HETATM   16  C   UNL     1      45.161  -9.685   9.740  1.00  0.00     0.120 A 
HETATM   17  F   UNL     1      46.013  -9.385  10.728  1.00  0.00    -0.206 F 
ENDBRANCH   5   7
ENDBRANCH   2   5
BRANCH   1  18
HETATM   18  C   UNL     1      42.886 -15.608   4.221  1.00  0.00     0.110 A 
HETATM   19  C   UNL     1      43.028 -15.947   2.788  1.00  0.00     0.304 A 
HETATM   20  O   UNL     1      43.384 -17.255   2.471  1.00  0.00    -0.274 OA
HETATM   21  O   UNL     1      42.841 -15.116   1.904  1.00  0.00    -0.259 OA
HETATM   22  C   UNL     1      43.590 -18.224   3.468  1.00  0.00     0.089 A 
HETATM   23  C   UNL     1      43.450 -17.899   4.812  1.00  0.00    -0.001 A 
HETATM   24  C   UNL     1      43.934 -19.510   3.059  1.00  0.00     0.038 A 
HETATM   25  C   UNL     1      43.659 -18.890   5.773  1.00  0.00     0.014 A 
HETATM   26  C   UNL     1      43.089 -16.538   5.169  1.00  0.00     0.037 A 
HETATM   27  C   UNL     1      44.003 -20.186   5.377  1.00  0.00     0.001 A 
HETATM   28  C   UNL     1      44.140 -20.495   4.022  1.00  0.00     0.003 A 
ENDBRANCH   1  18
TORSDOF 3
ENDMDL
MODEL 5
REMARK VINA RESULT:      -8.7      3.590      8.974
REMARK  3 active torsions:
REMARK  status: ('A' for Active; 'I' for Inactive)
REMARK    1  A    between atoms: C_8  and  C_9 
REMARK       I    between atoms: C_9  and  N_10 
REMARK    2  A    between atoms: N_10  and  N_11 
REMARK    3  A    between atoms: N_11  and  C_12 
ROOT
HETATM    1  C   UNL     1      43.618 -11.617   5.430  1.00  0.00     0.276 C 
HETATM    2  N   UNL     1      42.890 -12.782   5.476  1.00  0.00    -0.264 N 
HETATM    3  O   UNL     1      43.919 -11.085   4.359  1.00  0.00    -0.266 OA
HETATM    4  H   UNL     1      42.641 -13.287   6.334  1.00  0.00     0.190 HD
ENDROOT
BRANCH   2   5
HETATM    5  N   UNL     1      42.486 -13.340   4.259  1.00  0.00    -0.275 N 
HETATM    6  H   UNL     1      42.408 -12.653   3.505  1.00  0.00     0.189 HD
BRANCH   5   7
HETATM    7  C   UNL     1      42.757 -14.627   3.940  1.00  0.00     0.187 A 
HETATM    8  S   UNL     1      42.422 -15.209   2.358  1.00  0.00    -0.048 SA
HETATM    9  C   UNL     1      42.994 -16.769   2.800  1.00  0.00     0.043 A 
HETATM   10  C   UNL     1      43.407 -16.741   4.134  1.00  0.00     0.115 A 
HETATM   11  C   UNL     1      43.069 -17.935   2.019  1.00  0.00     0.063 A 
HETATM   12  N   UNL     1      43.272 -15.510   4.763  1.00  0.00    -0.219 NA
HETATM   13  C   UNL     1      43.908 -17.937   4.695  1.00  0.00     0.149 A 
HETATM   14  C   UNL     1      43.988 -19.105   3.939  1.00  0.00     0.087 A 
HETATM   15  F   UNL     1      44.317 -17.970   5.972  1.00  0.00    -0.203 F 
HETATM   16  C   UNL     1      43.570 -19.088   2.619  1.00  0.00     0.120 A 
HETATM   17  F   UNL     1      43.649 -20.213   1.897  1.00  0.00    -0.206 F 
ENDBRANCH   5   7
ENDBRANCH   2   5
BRANCH   1  18
HETATM   18  C   UNL     1      44.025 -11.032   6.742  1.00  0.00     0.110 A 
HETATM   19  C   UNL     1      45.427 -11.011   7.212  1.00  0.00     0.304 A 
HETATM   20  O   UNL     1      45.679 -10.437   8.455  1.00  0.00    -0.274 OA
HETATM   21  O   UNL     1      46.341 -11.479   6.539  1.00  0.00    -0.259 OA
HETATM   22  C   UNL     1      44.644  -9.908   9.245  1.00  0.00     0.089 A 
HETATM   23  C   UNL     1      43.328  -9.935   8.799  1.00  0.00    -0.001 A 
HETATM   24  C   UNL     1      44.987  -9.363  10.480  1.00  0.00     0.038 A 
HETATM   25  C   UNL     1      42.326  -9.403   9.613  1.00  0.00     0.014 A 
HETATM   26  C   UNL     1      43.040 -10.519   7.500  1.00  0.00     0.037 A 
HETATM   27  C   UNL     1      42.655  -8.854  10.857  1.00  0.00     0.001 A 
HETATM   28  C   UNL     1      43.983  -8.834  11.289  1.00  0.00     0.003 A 
ENDBRANCH   1  18
TORSDOF 3
ENDMDL
MODEL 6
REMARK VINA RESULT:      -8.6      3.636      8.996
REMARK  3 active torsions:
REMARK  status: ('A' for Active; 'I' for Inactive)
REMARK    1  A    between atoms: C_8  and  C_9 
REMARK       I    between atoms: C_9  and  N_10 
REMARK    2  A    between atoms: N_10  and  N_11 
REMARK    3  A    between atoms: N_11  and  C_12 
ROOT
HETATM    1  C   UNL     1      43.324 -12.059   5.032  1.00  0.00     0.276 C 
HETATM    2  N   UNL     1      42.621 -13.238   4.968  1.00  0.00    -0.264 N 
HETATM    3  O   UNL     1      44.045 -11.686   4.104  1.00  0.00    -0.266 OA
HETATM    4  H   UNL     1      42.035 -13.615   5.721  1.00  0.00     0.190 HD
ENDROOT
BRANCH   2   5
HETATM    5  N   UNL     1      42.739 -13.999   3.801  1.00  0.00    -0.275 N 
HETATM    6  H   UNL     1      43.047 -13.454   2.992  1.00  0.00     0.189 HD
BRANCH   5   7
HETATM    7  C   UNL     1      43.022 -15.321   3.838  1.00  0.00     0.187 A 
HETATM    8  S   UNL     1      43.124 -16.220   2.377  1.00  0.00    -0.048 SA
HETATM    9  C   UNL     1      43.463 -17.651   3.268  1.00  0.00     0.043 A 
HETATM   10  C   UNL     1      43.477 -17.345   4.631  1.00  0.00     0.115 A 
HETATM   11  C   UNL     1      43.697 -18.953   2.792  1.00  0.00     0.063 A 
HETATM   12  N   UNL     1      43.233 -16.013   4.934  1.00  0.00    -0.219 NA
HETATM   13  C   UNL     1      43.732 -18.396   5.541  1.00  0.00     0.149 A 
HETATM   14  C   UNL     1      43.963 -19.694   5.089  1.00  0.00     0.087 A 
HETATM   15  F   UNL     1      43.756 -18.161   6.861  1.00  0.00    -0.203 F 
HETATM   16  C   UNL     1      43.943 -19.953   3.730  1.00  0.00     0.120 A 
HETATM   17  F   UNL     1      44.167 -21.202   3.301  1.00  0.00    -0.206 F 
ENDBRANCH   5   7
ENDBRANCH   2   5
BRANCH   1  18
HETATM   18  C   UNL     1      43.169 -11.256   6.281  1.00  0.00     0.110 A 
HETATM   19  C   UNL     1      41.927 -10.526   6.616  1.00  0.00     0.304 A 
HETATM   20  O   UNL     1      41.906  -9.811   7.811  1.00  0.00    -0.274 OA
HETATM   21  O   UNL     1      40.947 -10.544   5.878  1.00  0.00    -0.259 OA
HETATM   22  C   UNL     1      43.022  -9.769   8.664  1.00  0.00     0.089 A 
HETATM   23  C   UNL     1      44.187 -10.453   8.339  1.00  0.00    -0.001 A 
HETATM   24  C   UNL     1      42.915  -9.020   9.833  1.00  0.00     0.038 A 
HETATM   25  C   UNL     1      45.277 -10.384   9.210  1.00  0.00     0.014 A 
HETATM   26  C   UNL     1      44.231 -11.215   7.104  1.00  0.00     0.037 A 
HETATM   27  C   UNL     1      45.185  -9.634  10.387  1.00  0.00     0.001 A 
HETATM   28  C   UNL     1      44.005  -8.954  10.697  1.00  0.00     0.003 A 
ENDBRANCH   1  18
TORSDOF 3
ENDMDL
MODEL 7
REMARK VINA RESULT:      -8.6      2.210      3.002
REMARK  3 active torsions:
REMARK  status: ('A' for Active; 'I' for Inactive)
REMARK    1  A    between atoms: C_8  and  C_9 
REMARK       I    between atoms: C_9  and  N_10 
REMARK    2  A    between atoms: N_10  and  N_11 
REMARK    3  A    between atoms: N_11  and  C_12 
ROOT
HETATM    1  C   UNL     1      42.499 -13.096   5.640  1.00  0.00     0.276 C 
HETATM    2  N   UNL     1      43.482 -12.268   6.128  1.00  0.00    -0.264 N 
HETATM    3  O   UNL     1      41.373 -12.673   5.372  1.00  0.00    -0.266 OA
HETATM    4  H   UNL     1      44.424 -12.570   6.401  1.00  0.00     0.190 HD
ENDROOT
BRANCH   2   5
HETATM    5  N   UNL     1      43.163 -10.917   6.299  1.00  0.00    -0.275 N 
HETATM    6  H   UNL     1      42.523 -10.559   5.586  1.00  0.00     0.189 HD
BRANCH   5   7
HETATM    7  C   UNL     1      43.169 -10.332   7.519  1.00  0.00     0.187 A 
HETATM    8  S   UNL     1      44.550 -10.470   8.533  1.00  0.00    -0.048 SA
HETATM    9  C   UNL     1      43.761  -9.548   9.750  1.00  0.00     0.043 A 
HETATM   10  C   UNL     1      42.488  -9.191   9.298  1.00  0.00     0.115 A 
HETATM   11  C   UNL     1      44.237  -9.169  11.018  1.00  0.00     0.063 A 
HETATM   12  N   UNL     1      42.174  -9.640   8.023  1.00  0.00    -0.219 NA
HETATM   13  C   UNL     1      41.670  -8.430  10.162  1.00  0.00     0.149 A 
HETATM   14  C   UNL     1      42.121  -8.047  11.425  1.00  0.00     0.087 A 
HETATM   15  F   UNL     1      40.438  -8.061   9.782  1.00  0.00    -0.203 F 
HETATM   16  C   UNL     1      43.391  -8.419  11.832  1.00  0.00     0.120 A 
HETATM   17  F   UNL     1      43.821  -8.048  13.045  1.00  0.00    -0.206 F 
ENDBRANCH   5   7
ENDBRANCH   2   5
BRANCH   1  18
HETATM   18  C   UNL     1      42.868 -14.530   5.451  1.00  0.00     0.110 A 
HETATM   19  C   UNL     1      43.237 -15.418   6.575  1.00  0.00     0.304 A 
HETATM   20  O   UNL     1      43.563 -16.737   6.270  1.00  0.00    -0.274 OA
HETATM   21  O   UNL     1      43.259 -15.019   7.735  1.00  0.00    -0.259 OA
HETATM   22  C   UNL     1      43.555 -17.210   4.946  1.00  0.00     0.089 A 
HETATM   23  C   UNL     1      43.212 -16.368   3.895  1.00  0.00    -0.001 A 
HETATM   24  C   UNL     1      43.905 -18.542   4.734  1.00  0.00     0.038 A 
HETATM   25  C   UNL     1      43.220 -16.874   2.594  1.00  0.00     0.014 A 
HETATM   26  C   UNL     1      42.858 -14.991   4.188  1.00  0.00     0.037 A 
HETATM   27  C   UNL     1      43.571 -18.208   2.364  1.00  0.00     0.001 A 
HETATM   28  C   UNL     1      43.912 -19.040   3.433  1.00  0.00     0.003 A 
ENDBRANCH   1  18
TORSDOF 3
ENDMDL
MODEL 8
REMARK VINA RESULT:      -8.2      6.429      7.496
REMARK  3 active torsions:
REMARK  status: ('A' for Active; 'I' for Inactive)
REMARK    1  A    between atoms: C_8  and  C_9 
REMARK       I    between atoms: C_9  and  N_10 
REMARK    2  A    between atoms: N_10  and  N_11 
REMARK    3  A    between atoms: N_11  and  C_12 
ROOT
HETATM    1  C   UNL     1      40.802 -14.927   0.812  1.00  0.00     0.276 C 
HETATM    2  N   UNL     1      41.236 -13.808   0.142  1.00  0.00    -0.264 N 
HETATM    3  O   UNL     1      39.783 -15.530   0.469  1.00  0.00    -0.266 OA
HETATM    4  H   UNL     1      42.054 -13.247   0.402  1.00  0.00     0.190 HD
ENDROOT
BRANCH   2   5
HETATM    5  N   UNL     1      40.485 -13.381  -0.958  1.00  0.00    -0.275 N 
HETATM    6  H   UNL     1      39.538 -13.767  -0.975  1.00  0.00     0.189 HD
BRANCH   5   7
HETATM    7  C   UNL     1      40.711 -12.189  -1.556  1.00  0.00     0.187 A 
HETATM    8  S   UNL     1      40.206 -11.932  -3.179  1.00  0.00    -0.048 SA
HETATM    9  C   UNL     1      40.843 -10.336  -3.135  1.00  0.00     0.043 A 
HETATM   10  C   UNL     1      41.400 -10.103  -1.875  1.00  0.00     0.115 A 
HETATM   11  C   UNL     1      40.850  -9.360  -4.146  1.00  0.00     0.063 A 
HETATM   12  N   UNL     1      41.307 -11.167  -0.988  1.00  0.00    -0.219 NA
HETATM   13  C   UNL     1      41.988  -8.840  -1.636  1.00  0.00     0.149 A 
HETATM   14  C   UNL     1      42.008  -7.860  -2.627  1.00  0.00     0.087 A 
HETATM   15  F   UNL     1      42.541  -8.561  -0.447  1.00  0.00    -0.203 F 
HETATM   16  C   UNL     1      41.441  -8.131  -3.861  1.00  0.00     0.120 A 
HETATM   17  F   UNL     1      41.462  -7.186  -4.809  1.00  0.00    -0.206 F 
ENDBRANCH   5   7
ENDBRANCH   2   5
BRANCH   1  18
HETATM   18  C   UNL     1      41.629 -15.373   1.972  1.00  0.00     0.110 A 
HETATM   19  C   UNL     1      41.889 -14.515   3.149  1.00  0.00     0.304 A 
HETATM   20  O   UNL     1      42.677 -15.044   4.167  1.00  0.00    -0.274 OA
HETATM   21  O   UNL     1      41.432 -13.378   3.234  1.00  0.00    -0.259 OA
HETATM   22  C   UNL     1      43.219 -16.338   4.082  1.00  0.00     0.089 A 
HETATM   23  C   UNL     1      42.974 -17.136   2.971  1.00  0.00    -0.001 A 
HETATM   24  C   UNL     1      44.004 -16.781   5.143  1.00  0.00     0.038 A 
HETATM   25  C   UNL     1      43.533 -18.415   2.921  1.00  0.00     0.014 A 
HETATM   26  C   UNL     1      42.146 -16.611   1.900  1.00  0.00     0.037 A 
HETATM   27  C   UNL     1      44.325 -18.874   3.978  1.00  0.00     0.001 A 
HETATM   28  C   UNL     1      44.560 -18.058   5.088  1.00  0.00     0.003 A 
ENDBRANCH   1  18
TORSDOF 3
ENDMDL
MODEL 9
REMARK VINA RESULT:      -8.1      5.478      9.167
REMARK  3 active torsions:
REMARK  status: ('A' for Active; 'I' for Inactive)
REMARK    1  A    between atoms: C_8  and  C_9 
REMARK       I    between atoms: C_9  and  N_10 
REMARK    2  A    between atoms: N_10  and  N_11 
REMARK    3  A    between atoms: N_11  and  C_12 
ROOT
HETATM    1  C   UNL     1      40.624 -13.604   2.757  1.00  0.00     0.276 C 
HETATM    2  N   UNL     1      41.952 -13.834   2.487  1.00  0.00    -0.264 N 
HETATM    3  O   UNL     1      40.137 -13.855   3.861  1.00  0.00    -0.266 OA
HETATM    4  H   UNL     1      42.404 -13.679   1.579  1.00  0.00     0.190 HD
ENDROOT
BRANCH   2   5
HETATM    5  N   UNL     1      42.741 -14.352   3.519  1.00  0.00    -0.275 N 
HETATM    6  H   UNL     1      42.686 -13.806   4.383  1.00  0.00     0.189 HD
BRANCH   5   7
HETATM    7  C   UNL     1      43.031 -15.670   3.601  1.00  0.00     0.187 A 
HETATM    8  S   UNL     1      43.115 -16.624   2.174  1.00  0.00    -0.048 SA
HETATM    9  C   UNL     1      43.475 -18.018   3.113  1.00  0.00     0.043 A 
HETATM   10  C   UNL     1      43.510 -17.660   4.463  1.00  0.00     0.115 A 
HETATM   11  C   UNL     1      43.708 -19.336   2.684  1.00  0.00     0.063 A 
HETATM   12  N   UNL     1      43.264 -16.318   4.719  1.00  0.00    -0.219 NA
HETATM   13  C   UNL     1      43.785 -18.674   5.408  1.00  0.00     0.149 A 
HETATM   14  C   UNL     1      44.015 -19.988   5.003  1.00  0.00     0.087 A 
HETATM   15  F   UNL     1      43.829 -18.389   6.718  1.00  0.00    -0.203 F 
HETATM   16  C   UNL     1      43.975 -20.299   3.655  1.00  0.00     0.120 A 
HETATM   17  F   UNL     1      44.198 -21.562   3.270  1.00  0.00    -0.206 F 
ENDBRANCH   5   7
ENDBRANCH   2   5
BRANCH   1  18
HETATM   18  C   UNL     1      39.806 -13.036   1.644  1.00  0.00     0.110 A 
HETATM   19  C   UNL     1      39.902 -13.520   0.250  1.00  0.00     0.304 A 
HETATM   20  O   UNL     1      39.086 -12.909  -0.699  1.00  0.00    -0.274 OA
HETATM   21  O   UNL     1      40.667 -14.425  -0.070  1.00  0.00    -0.259 OA
HETATM   22  C   UNL     1      38.212 -11.863  -0.354  1.00  0.00     0.089 A 
HETATM   23  C   UNL     1      38.131 -11.411   0.957  1.00  0.00    -0.001 A 
HETATM   24  C   UNL     1      37.442 -11.304  -1.370  1.00  0.00     0.038 A 
HETATM   25  C   UNL     1      37.255 -10.367   1.260  1.00  0.00     0.014 A 
HETATM   26  C   UNL     1      38.964 -12.039   1.967  1.00  0.00     0.037 A 
HETATM   27  C   UNL     1      36.475  -9.794   0.250  1.00  0.00     0.001 A 
HETATM   28  C   UNL     1      36.569 -10.262  -1.063  1.00  0.00     0.003 A 
ENDBRANCH   1  18
TORSDOF 3
ENDMDL
MODEL 10
REMARK VINA RESULT:      -8.1     16.484     18.528
REMARK  3 active torsions:
REMARK  status: ('A' for Active; 'I' for Inactive)
REMARK    1  A    between atoms: C_8  and  C_9 
REMARK       I    between atoms: C_9  and  N_10 
REMARK    2  A    between atoms: N_10  and  N_11 
REMARK    3  A    between atoms: N_11  and  C_12 
ROOT
HETATM    1  C   UNL     1      47.290 -29.052   2.636  1.00  0.00     0.276 C 
HETATM    2  N   UNL     1      46.157 -29.484   1.988  1.00  0.00    -0.264 N 
HETATM    3  O   UNL     1      47.764 -27.933   2.431  1.00  0.00    -0.266 OA
HETATM    4  H   UNL     1      45.738 -30.414   2.092  1.00  0.00     0.190 HD
ENDROOT
BRANCH   2   5
HETATM    5  N   UNL     1      45.548 -28.599   1.092  1.00  0.00    -0.275 N 
HETATM    6  H   UNL     1      45.774 -27.618   1.276  1.00  0.00     0.189 HD
BRANCH   5   7
HETATM    7  C   UNL     1      45.235 -28.967  -0.171  1.00  0.00     0.187 A 
HETATM    8  S   UNL     1      44.697 -30.568  -0.492  1.00  0.00    -0.048 SA
HETATM    9  C   UNL     1      44.562 -30.199  -2.165  1.00  0.00     0.043 A 
HETATM   10  C   UNL     1      44.937 -28.868  -2.369  1.00  0.00     0.115 A 
HETATM   11  C   UNL     1      44.155 -31.030  -3.223  1.00  0.00     0.063 A 
HETATM   12  N   UNL     1      45.308 -28.182  -1.221  1.00  0.00    -0.219 NA
HETATM   13  C   UNL     1      44.901 -28.367  -3.690  1.00  0.00     0.149 A 
HETATM   14  C   UNL     1      44.504 -29.176  -4.753  1.00  0.00     0.087 A 
HETATM   15  F   UNL     1      45.253 -27.099  -3.945  1.00  0.00    -0.203 F 
HETATM   16  C   UNL     1      44.137 -30.488  -4.507  1.00  0.00     0.120 A 
HETATM   17  F   UNL     1      43.755 -31.261  -5.531  1.00  0.00    -0.206 F 
ENDBRANCH   5   7
ENDBRANCH   2   5
BRANCH   1  18
HETATM   18  C   UNL     1      47.913 -30.008   3.600  1.00  0.00     0.110 A 
HETATM   19  C   UNL     1      47.123 -30.970   4.398  1.00  0.00     0.304 A 
HETATM   20  O   UNL     1      47.820 -31.809   5.264  1.00  0.00    -0.274 OA
HETATM   21  O   UNL     1      45.900 -31.035   4.310  1.00  0.00    -0.259 OA
HETATM   22  C   UNL     1      49.218 -31.741   5.388  1.00  0.00     0.089 A 
HETATM   23  C   UNL     1      49.952 -30.831   4.638  1.00  0.00    -0.001 A 
HETATM   24  C   UNL     1      49.830 -32.612   6.286  1.00  0.00     0.038 A 
HETATM   25  C   UNL     1      51.340 -30.791   4.792  1.00  0.00     0.014 A 
HETATM   26  C   UNL     1      49.250 -29.952   3.720  1.00  0.00     0.037 A 
HETATM   27  C   UNL     1      51.969 -31.657   5.691  1.00  0.00     0.001 A 
HETATM   28  C   UNL     1      51.215 -32.567   6.437  1.00  0.00     0.003 A 
ENDBRANCH   1  18
TORSDOF 3
ENDMDL
