MODEL 1
REMARK VINA RESULT:      -7.6      0.000      0.000
REMARK  8 active torsions:
REMARK  status: ('A' for Active; 'I' for Inactive)
REMARK    1  A    between atoms: C_2  and  C_3 
REMARK    2  A    between atoms: C_3  and  C_4 
REMARK    3  A    between atoms: C_4  and  N_5 
REMARK    4  A    between atoms: N_5  and  C_6 
REMARK    5  A    between atoms: C_8  and  N_9 
REMARK    6  A    between atoms: N_9  and  C_10 
REMARK    7  A    between atoms: C_10  and  C_11 
REMARK    8  A    between atoms: C_12  and  O_13 
ROOT
HETATM    1  C   UNL     1      43.952 -16.622   5.393  1.00  0.00     0.181 A 
HETATM    2  N   UNL     1      43.635 -16.003   4.241  1.00  0.00    -0.207 NA
HETATM    3  C   UNL     1      43.458 -16.766   3.145  1.00  0.00     0.119 A 
HETATM    4  C   UNL     1      43.549 -18.175   3.187  1.00  0.00     0.031 A 
HETATM    5  C   UNL     1      43.937 -18.739   4.415  1.00  0.00     0.048 A 
HETATM    6  N   UNL     1      44.132 -17.938   5.467  1.00  0.00    -0.330 N 
HETATM    7  H   UNL     1      44.443 -18.311   6.354  1.00  0.00     0.168 HD
HETATM    8  C   UNL     1      43.266 -19.063   2.121  1.00  0.00     0.017 A 
HETATM    9  C   UNL     1      43.426 -20.443   2.264  1.00  0.00     0.001 A 
HETATM   10  C   UNL     1      43.857 -20.973   3.474  1.00  0.00     0.002 A 
HETATM   11  C   UNL     1      44.106 -20.126   4.552  1.00  0.00     0.030 A 
ENDROOT
BRANCH   3  12
HETATM   12  N   UNL     1      43.163 -16.053   1.987  1.00  0.00    -0.272 NA
HETATM   13  H   UNL     1      42.273 -16.381   1.623  1.00  0.00     0.129 HD
BRANCH  12  14
HETATM   14  C   UNL     1      43.197 -14.586   2.108  1.00  0.00     0.135 C 
BRANCH  14  15
HETATM   15  C   UNL     1      41.941 -13.982   2.705  1.00  0.00    -0.012 A 
HETATM   16  C   UNL     1      40.688 -14.252   2.107  1.00  0.00     0.075 A 
HETATM   17  C   UNL     1      39.528 -13.662   2.619  1.00  0.00     0.037 A 
HETATM   18  C   UNL     1      39.602 -12.781   3.699  1.00  0.00     0.003 A 
HETATM   19  C   UNL     1      40.834 -12.473   4.265  1.00  0.00     0.001 A 
HETATM   20  C   UNL     1      41.997 -13.058   3.765  1.00  0.00     0.011 A 
BRANCH  16  21
HETATM   21  O   UNL     1      40.713 -15.088   1.020  1.00  0.00    -0.355 OA
HETATM   22  C   UNL     1      40.150 -14.606  -0.196  1.00  0.00     0.210 C 
ENDBRANCH  16  21
ENDBRANCH  14  15
ENDBRANCH  12  14
ENDBRANCH   3  12
BRANCH   1  23
HETATM   23  N   UNL     1      44.140 -15.918   6.574  1.00  0.00    -0.262 NA
HETATM   24  H   UNL     1      44.997 -16.152   7.065  1.00  0.00     0.130 HD
BRANCH  23  25
HETATM   25  C   UNL     1      42.989 -15.881   7.480  1.00  0.00     0.095 C 
BRANCH  25  26
HETATM   26  C   UNL     1      41.884 -15.002   6.882  1.00  0.00     0.014 C 
BRANCH  26  27
HETATM   27  C   UNL     1      40.560 -15.751   6.716  1.00  0.00    -0.003 C 
HETATM   28  C   UNL     1      40.384 -16.255   5.291  1.00  0.00     0.005 C 
ENDBRANCH  26  27
ENDBRANCH  25  26
ENDBRANCH  23  25
ENDBRANCH   1  23
TORSDOF 8
ENDMDL
MODEL 2
REMARK VINA RESULT:      -7.5      1.943      4.175
REMARK  8 active torsions:
REMARK  status: ('A' for Active; 'I' for Inactive)
REMARK    1  A    between atoms: C_2  and  C_3 
REMARK    2  A    between atoms: C_3  and  C_4 
REMARK    3  A    between atoms: C_4  and  N_5 
REMARK    4  A    between atoms: N_5  and  C_6 
REMARK    5  A    between atoms: C_8  and  N_9 
REMARK    6  A    between atoms: N_9  and  C_10 
REMARK    7  A    between atoms: C_10  and  C_11 
REMARK    8  A    between atoms: C_12  and  O_13 
ROOT
HETATM    1  C   UNL     1      43.304 -16.256   2.287  1.00  0.00     0.181 A 
HETATM    2  N   UNL     1      43.524 -15.817   3.540  1.00  0.00    -0.207 NA
HETATM    3  C   UNL     1      43.742 -16.736   4.500  1.00  0.00     0.119 A 
HETATM    4  C   UNL     1      43.791 -18.119   4.220  1.00  0.00     0.031 A 
HETATM    5  C   UNL     1      43.497 -18.499   2.898  1.00  0.00     0.048 A 
HETATM    6  N   UNL     1      43.256 -17.551   1.986  1.00  0.00    -0.330 N 
HETATM    7  H   UNL     1      43.010 -17.794   1.036  1.00  0.00     0.168 HD
HETATM    8  C   UNL     1      44.128 -19.146   5.134  1.00  0.00     0.017 A 
HETATM    9  C   UNL     1      44.109 -20.490   4.756  1.00  0.00     0.001 A 
HETATM   10  C   UNL     1      43.768 -20.844   3.455  1.00  0.00     0.002 A 
HETATM   11  C   UNL     1      43.469 -19.851   2.523  1.00  0.00     0.030 A 
ENDROOT
BRANCH   3  12
HETATM   12  N   UNL     1      43.931 -16.207   5.773  1.00  0.00    -0.272 NA
HETATM   13  H   UNL     1      44.480 -15.355   5.692  1.00  0.00     0.129 HD
BRANCH  12  14
HETATM   14  C   UNL     1      42.712 -15.997   6.571  1.00  0.00     0.135 C 
BRANCH  14  15
HETATM   15  C   UNL     1      41.976 -14.709   6.256  1.00  0.00    -0.012 A 
HETATM   16  C   UNL     1      42.667 -13.478   6.331  1.00  0.00     0.075 A 
HETATM   17  C   UNL     1      41.988 -12.280   6.091  1.00  0.00     0.037 A 
HETATM   18  C   UNL     1      40.621 -12.287   5.808  1.00  0.00     0.003 A 
HETATM   19  C   UNL     1      39.922 -13.489   5.777  1.00  0.00     0.001 A 
HETATM   20  C   UNL     1      40.590 -14.691   6.013  1.00  0.00     0.011 A 
BRANCH  16  21
HETATM   21  O   UNL     1      43.996 -13.559   6.664  1.00  0.00    -0.355 OA
HETATM   22  C   UNL     1      44.716 -12.338   6.803  1.00  0.00     0.210 C 
ENDBRANCH  16  21
ENDBRANCH  14  15
ENDBRANCH  12  14
ENDBRANCH   3  12
BRANCH   1  23
HETATM   23  N   UNL     1      43.083 -15.381   1.233  1.00  0.00    -0.262 NA
HETATM   24  H   UNL     1      43.928 -14.960   0.859  1.00  0.00     0.130 HD
BRANCH  23  25
HETATM   25  C   UNL     1      42.029 -14.386   1.446  1.00  0.00     0.095 C 
BRANCH  25  26
HETATM   26  C   UNL     1      40.864 -14.647   0.484  1.00  0.00     0.014 C 
BRANCH  26  27
HETATM   27  C   UNL     1      39.877 -15.686   1.022  1.00  0.00    -0.003 C 
HETATM   28  C   UNL     1      39.712 -15.565   2.529  1.00  0.00     0.005 C 
ENDBRANCH  26  27
ENDBRANCH  25  26
ENDBRANCH  23  25
ENDBRANCH   1  23
TORSDOF 8
ENDMDL
MODEL 3
REMARK VINA RESULT:      -7.5      2.299      7.354
REMARK  8 active torsions:
REMARK  status: ('A' for Active; 'I' for Inactive)
REMARK    1  A    between atoms: C_2  and  C_3 
REMARK    2  A    between atoms: C_3  and  C_4 
REMARK    3  A    between atoms: C_4  and  N_5 
REMARK    4  A    between atoms: N_5  and  C_6 
REMARK    5  A    between atoms: C_8  and  N_9 
REMARK    6  A    between atoms: N_9  and  C_10 
REMARK    7  A    between atoms: C_10  and  C_11 
REMARK    8  A    between atoms: C_12  and  O_13 
ROOT
HETATM    1  C   UNL     1      40.107 -14.682   1.363  1.00  0.00     0.181 A 
HETATM    2  N   UNL     1      40.928 -15.504   2.042  1.00  0.00    -0.207 NA
HETATM    3  C   UNL     1      41.175 -15.219   3.336  1.00  0.00     0.119 A 
HETATM    4  C   UNL     1      40.568 -14.128   3.995  1.00  0.00     0.031 A 
HETATM    5  C   UNL     1      39.766 -13.287   3.202  1.00  0.00     0.048 A 
HETATM    6  N   UNL     1      39.576 -13.594   1.914  1.00  0.00    -0.330 N 
HETATM    7  H   UNL     1      39.032 -12.992   1.312  1.00  0.00     0.168 HD
HETATM    8  C   UNL     1      40.673 -13.819   5.372  1.00  0.00     0.017 A 
HETATM    9  C   UNL     1      40.056 -12.688   5.913  1.00  0.00     0.001 A 
HETATM   10  C   UNL     1      39.308 -11.846   5.098  1.00  0.00     0.002 A 
HETATM   11  C   UNL     1      39.156 -12.147   3.746  1.00  0.00     0.030 A 
ENDROOT
BRANCH   3  12
HETATM   12  N   UNL     1      42.057 -16.095   3.961  1.00  0.00    -0.272 NA
HETATM   13  H   UNL     1      41.520 -16.844   4.390  1.00  0.00     0.129 HD
BRANCH  12  14
HETATM   14  C   UNL     1      43.150 -16.617   3.124  1.00  0.00     0.135 C 
BRANCH  14  15
HETATM   15  C   UNL     1      43.364 -18.114   3.243  1.00  0.00    -0.012 A 
HETATM   16  C   UNL     1      43.898 -18.646   4.439  1.00  0.00     0.075 A 
HETATM   17  C   UNL     1      44.146 -20.019   4.543  1.00  0.00     0.037 A 
HETATM   18  C   UNL     1      43.899 -20.864   3.461  1.00  0.00     0.003 A 
HETATM   19  C   UNL     1      43.418 -20.345   2.265  1.00  0.00     0.001 A 
HETATM   20  C   UNL     1      43.164 -18.978   2.150  1.00  0.00     0.011 A 
BRANCH  16  21
HETATM   21  O   UNL     1      44.157 -17.738   5.434  1.00  0.00    -0.355 OA
HETATM   22  C   UNL     1      43.464 -17.896   6.668  1.00  0.00     0.210 C 
ENDBRANCH  16  21
ENDBRANCH  14  15
ENDBRANCH  12  14
ENDBRANCH   3  12
BRANCH   1  23
HETATM   23  N   UNL     1      39.786 -14.905   0.032  1.00  0.00    -0.262 NA
HETATM   24  H   UNL     1      40.202 -15.744  -0.360  1.00  0.00     0.130 HD
BRANCH  23  25
HETATM   25  C   UNL     1      39.942 -13.753  -0.859  1.00  0.00     0.095 C 
BRANCH  25  26
HETATM   26  C   UNL     1      40.027 -14.227  -2.314  1.00  0.00     0.014 C 
BRANCH  26  27
HETATM   27  C   UNL     1      38.759 -14.951  -2.773  1.00  0.00    -0.003 C 
HETATM   28  C   UNL     1      37.663 -13.965  -3.146  1.00  0.00     0.005 C 
ENDBRANCH  26  27
ENDBRANCH  25  26
ENDBRANCH  23  25
ENDBRANCH   1  23
TORSDOF 8
ENDMDL
MODEL 4
REMARK VINA RESULT:      -7.2      2.983      6.559
REMARK  8 active torsions:
REMARK  status: ('A' for Active; 'I' for Inactive)
REMARK    1  A    between atoms: C_2  and  C_3 
REMARK    2  A    between atoms: C_3  and  C_4 
REMARK    3  A    between atoms: C_4  and  N_5 
REMARK    4  A    between atoms: N_5  and  C_6 
REMARK    5  A    between atoms: C_8  and  N_9 
REMARK    6  A    between atoms: N_9  and  C_10 
REMARK    7  A    between atoms: C_10  and  C_11 
REMARK    8  A    between atoms: C_12  and  O_13 
ROOT
HETATM    1  C   UNL     1      42.525 -13.292   6.098  1.00  0.00     0.181 A 
HETATM    2  N   UNL     1      42.523 -14.520   5.548  1.00  0.00    -0.207 NA
HETATM    3  C   UNL     1      41.667 -14.754   4.535  1.00  0.00     0.119 A 
HETATM    4  C   UNL     1      40.822 -13.748   4.016  1.00  0.00     0.031 A 
HETATM    5  C   UNL     1      40.846 -12.509   4.682  1.00  0.00     0.048 A 
HETATM    6  N   UNL     1      41.691 -12.334   5.703  1.00  0.00    -0.330 N 
HETATM    7  H   UNL     1      41.708 -11.467   6.221  1.00  0.00     0.168 HD
HETATM    8  C   UNL     1      39.979 -13.865   2.885  1.00  0.00     0.017 A 
HETATM    9  C   UNL     1      39.155 -12.812   2.481  1.00  0.00     0.001 A 
HETATM   10  C   UNL     1      39.161 -11.613   3.185  1.00  0.00     0.002 A 
HETATM   11  C   UNL     1      40.010 -11.456   4.279  1.00  0.00     0.030 A 
ENDROOT
BRANCH   3  12
HETATM   12  N   UNL     1      41.701 -16.054   4.038  1.00  0.00    -0.272 NA
HETATM   13  H   UNL     1      40.860 -16.213   3.489  1.00  0.00     0.129 HD
BRANCH  12  14
HETATM   14  C   UNL     1      42.917 -16.429   3.297  1.00  0.00     0.135 C 
BRANCH  14  15
HETATM   15  C   UNL     1      43.226 -17.913   3.319  1.00  0.00    -0.012 A 
HETATM   16  C   UNL     1      43.826 -18.480   4.467  1.00  0.00     0.075 A 
HETATM   17  C   UNL     1      44.160 -19.838   4.481  1.00  0.00     0.037 A 
HETATM   18  C   UNL     1      43.935 -20.633   3.356  1.00  0.00     0.003 A 
HETATM   19  C   UNL     1      43.389 -20.074   2.206  1.00  0.00     0.001 A 
HETATM   20  C   UNL     1      43.048 -18.722   2.181  1.00  0.00     0.011 A 
BRANCH  16  21
HETATM   21  O   UNL     1      44.056 -17.618   5.509  1.00  0.00    -0.355 OA
HETATM   22  C   UNL     1      43.378 -17.869   6.735  1.00  0.00     0.210 C 
ENDBRANCH  16  21
ENDBRANCH  14  15
ENDBRANCH  12  14
ENDBRANCH   3  12
BRANCH   1  23
HETATM   23  N   UNL     1      43.382 -12.958   7.137  1.00  0.00    -0.262 NA
HETATM   24  H   UNL     1      42.948 -12.410   7.873  1.00  0.00     0.130 HD
BRANCH  23  25
HETATM   25  C   UNL     1      44.676 -12.399   6.736  1.00  0.00     0.095 C 
BRANCH  25  26
HETATM   26  C   UNL     1      44.741 -10.914   7.112  1.00  0.00     0.014 C 
BRANCH  26  27
HETATM   27  C   UNL     1      46.007 -10.559   7.896  1.00  0.00    -0.003 C 
HETATM   28  C   UNL     1      46.063  -9.072   8.213  1.00  0.00     0.005 C 
ENDBRANCH  26  27
ENDBRANCH  25  26
ENDBRANCH  23  25
ENDBRANCH   1  23
TORSDOF 8
ENDMDL
MODEL 5
REMARK VINA RESULT:      -7.0      2.432      4.125
REMARK  8 active torsions:
REMARK  status: ('A' for Active; 'I' for Inactive)
REMARK    1  A    between atoms: C_2  and  C_3 
REMARK    2  A    between atoms: C_3  and  C_4 
REMARK    3  A    between atoms: C_4  and  N_5 
REMARK    4  A    between atoms: N_5  and  C_6 
REMARK    5  A    between atoms: C_8  and  N_9 
REMARK    6  A    between atoms: N_9  and  C_10 
REMARK    7  A    between atoms: C_10  and  C_11 
REMARK    8  A    between atoms: C_12  and  O_13 
ROOT
HETATM    1  C   UNL     1      42.168 -14.233   4.370  1.00  0.00     0.181 A 
HETATM    2  N   UNL     1      41.820 -14.196   3.071  1.00  0.00    -0.207 NA
HETATM    3  C   UNL     1      42.140 -15.256   2.303  1.00  0.00     0.119 A 
HETATM    4  C   UNL     1      42.776 -16.401   2.829  1.00  0.00     0.031 A 
HETATM    5  C   UNL     1      43.155 -16.338   4.182  1.00  0.00     0.048 A 
HETATM    6  N   UNL     1      42.844 -15.251   4.896  1.00  0.00    -0.330 N 
HETATM    7  H   UNL     1      43.131 -15.163   5.861  1.00  0.00     0.168 HD
HETATM    8  C   UNL     1      43.046 -17.603   2.132  1.00  0.00     0.017 A 
HETATM    9  C   UNL     1      43.717 -18.663   2.744  1.00  0.00     0.001 A 
HETATM   10  C   UNL     1      44.124 -18.558   4.069  1.00  0.00     0.002 A 
HETATM   11  C   UNL     1      43.838 -17.402   4.792  1.00  0.00     0.030 A 
ENDROOT
BRANCH   3  12
HETATM   12  N   UNL     1      41.775 -15.131   0.966  1.00  0.00    -0.272 NA
HETATM   13  H   UNL     1      42.140 -15.930   0.454  1.00  0.00     0.129 HD
BRANCH  12  14
HETATM   14  C   UNL     1      40.340 -14.926   0.706  1.00  0.00     0.135 C 
BRANCH  14  15
HETATM   15  C   UNL     1      40.036 -14.280  -0.632  1.00  0.00    -0.012 A 
HETATM   16  C   UNL     1      40.471 -12.958  -0.879  1.00  0.00     0.075 A 
HETATM   17  C   UNL     1      40.155 -12.334  -2.091  1.00  0.00     0.037 A 
HETATM   18  C   UNL     1      39.384 -12.997  -3.046  1.00  0.00     0.003 A 
HETATM   19  C   UNL     1      38.912 -14.280  -2.794  1.00  0.00     0.001 A 
HETATM   20  C   UNL     1      39.224 -14.913  -1.591  1.00  0.00     0.011 A 
BRANCH  16  21
HETATM   21  O   UNL     1      41.180 -12.362   0.133  1.00  0.00    -0.355 OA
HETATM   22  C   UNL     1      40.770 -11.064   0.551  1.00  0.00     0.210 C 
ENDBRANCH  16  21
ENDBRANCH  14  15
ENDBRANCH  12  14
ENDBRANCH   3  12
BRANCH   1  23
HETATM   23  N   UNL     1      41.868 -13.192   5.238  1.00  0.00    -0.262 NA
HETATM   24  H   UNL     1      40.877 -12.984   5.309  1.00  0.00     0.130 HD
BRANCH  23  25
HETATM   25  C   UNL     1      42.668 -11.976   5.069  1.00  0.00     0.095 C 
BRANCH  25  26
HETATM   26  C   UNL     1      43.257 -11.549   6.418  1.00  0.00     0.014 C 
BRANCH  26  27
HETATM   27  C   UNL     1      44.622 -12.184   6.693  1.00  0.00    -0.003 C 
HETATM   28  C   UNL     1      45.596 -11.173   7.278  1.00  0.00     0.005 C 
ENDBRANCH  26  27
ENDBRANCH  25  26
ENDBRANCH  23  25
ENDBRANCH   1  23
TORSDOF 8
ENDMDL
MODEL 6
REMARK VINA RESULT:      -7.0      2.614      5.685
REMARK  8 active torsions:
REMARK  status: ('A' for Active; 'I' for Inactive)
REMARK    1  A    between atoms: C_2  and  C_3 
REMARK    2  A    between atoms: C_3  and  C_4 
REMARK    3  A    between atoms: C_4  and  N_5 
REMARK    4  A    between atoms: N_5  and  C_6 
REMARK    5  A    between atoms: C_8  and  N_9 
REMARK    6  A    between atoms: N_9  and  C_10 
REMARK    7  A    between atoms: C_10  and  C_11 
REMARK    8  A    between atoms: C_12  and  O_13 
ROOT
HETATM    1  C   UNL     1      40.265 -14.814   1.880  1.00  0.00     0.181 A 
HETATM    2  N   UNL     1      39.964 -14.615   3.176  1.00  0.00    -0.207 NA
HETATM    3  C   UNL     1      40.656 -15.313   4.097  1.00  0.00     0.119 A 
HETATM    4  C   UNL     1      41.701 -16.196   3.744  1.00  0.00     0.031 A 
HETATM    5  C   UNL     1      41.915 -16.389   2.367  1.00  0.00     0.048 A 
HETATM    6  N   UNL     1      41.182 -15.697   1.490  1.00  0.00    -0.330 N 
HETATM    7  H   UNL     1      41.290 -15.837   0.495  1.00  0.00     0.168 HD
HETATM    8  C   UNL     1      42.557 -16.880   4.640  1.00  0.00     0.017 A 
HETATM    9  C   UNL     1      43.537 -17.761   4.179  1.00  0.00     0.001 A 
HETATM   10  C   UNL     1      43.698 -17.971   2.814  1.00  0.00     0.002 A 
HETATM   11  C   UNL     1      42.895 -17.282   1.907  1.00  0.00     0.030 A 
ENDROOT
BRANCH   3  12
HETATM   12  N   UNL     1      40.268 -15.077   5.412  1.00  0.00    -0.272 NA
HETATM   13  H   UNL     1      40.765 -15.724   6.018  1.00  0.00     0.129 HD
BRANCH  12  14
HETATM   14  C   UNL     1      40.392 -13.686   5.881  1.00  0.00     0.135 C 
BRANCH  14  15
HETATM   15  C   UNL     1      41.817 -13.166   5.915  1.00  0.00    -0.012 A 
HETATM   16  C   UNL     1      42.771 -13.810   6.736  1.00  0.00     0.075 A 
HETATM   17  C   UNL     1      44.076 -13.310   6.813  1.00  0.00     0.037 A 
HETATM   18  C   UNL     1      44.434 -12.160   6.110  1.00  0.00     0.003 A 
HETATM   19  C   UNL     1      43.490 -11.492   5.337  1.00  0.00     0.001 A 
HETATM   20  C   UNL     1      42.187 -11.983   5.249  1.00  0.00     0.011 A 
BRANCH  16  21
HETATM   21  O   UNL     1      42.322 -14.904   7.431  1.00  0.00    -0.355 OA
HETATM   22  C   UNL     1      43.298 -15.779   7.987  1.00  0.00     0.210 C 
ENDBRANCH  16  21
ENDBRANCH  14  15
ENDBRANCH  12  14
ENDBRANCH   3  12
BRANCH   1  23
HETATM   23  N   UNL     1      39.613 -14.130   0.864  1.00  0.00    -0.262 NA
HETATM   24  H   UNL     1      38.743 -14.560   0.566  1.00  0.00     0.130 HD
BRANCH  23  25
HETATM   25  C   UNL     1      40.447 -13.745  -0.277  1.00  0.00     0.095 C 
BRANCH  25  26
HETATM   26  C   UNL     1      39.561 -13.250  -1.427  1.00  0.00     0.014 C 
BRANCH  26  27
HETATM   27  C   UNL     1      39.766 -14.050  -2.715  1.00  0.00    -0.003 C 
HETATM   28  C   UNL     1      38.691 -15.113  -2.884  1.00  0.00     0.005 C 
ENDBRANCH  26  27
ENDBRANCH  25  26
ENDBRANCH  23  25
ENDBRANCH   1  23
TORSDOF 8
ENDMDL
MODEL 7
REMARK VINA RESULT:      -7.0      2.422      5.190
REMARK  8 active torsions:
REMARK  status: ('A' for Active; 'I' for Inactive)
REMARK    1  A    between atoms: C_2  and  C_3 
REMARK    2  A    between atoms: C_3  and  C_4 
REMARK    3  A    between atoms: C_4  and  N_5 
REMARK    4  A    between atoms: N_5  and  C_6 
REMARK    5  A    between atoms: C_8  and  N_9 
REMARK    6  A    between atoms: N_9  and  C_10 
REMARK    7  A    between atoms: C_10  and  C_11 
REMARK    8  A    between atoms: C_12  and  O_13 
ROOT
HETATM    1  C   UNL     1      40.371 -15.310   2.312  1.00  0.00     0.181 A 
HETATM    2  N   UNL     1      40.268 -14.942   3.602  1.00  0.00    -0.207 NA
HETATM    3  C   UNL     1      41.085 -15.536   4.494  1.00  0.00     0.119 A 
HETATM    4  C   UNL     1      42.059 -16.483   4.107  1.00  0.00     0.031 A 
HETATM    5  C   UNL     1      42.065 -16.853   2.750  1.00  0.00     0.048 A 
HETATM    6  N   UNL     1      41.214 -16.258   1.909  1.00  0.00    -0.330 N 
HETATM    7  H   UNL     1      41.172 -16.525   0.935  1.00  0.00     0.168 HD
HETATM    8  C   UNL     1      43.034 -17.071   4.948  1.00  0.00     0.017 A 
HETATM    9  C   UNL     1      43.928 -18.028   4.464  1.00  0.00     0.001 A 
HETATM   10  C   UNL     1      43.883 -18.413   3.129  1.00  0.00     0.002 A 
HETATM   11  C   UNL     1      42.959 -17.822   2.269  1.00  0.00     0.030 A 
ENDROOT
BRANCH   3  12
HETATM   12  N   UNL     1      40.899 -15.126   5.810  1.00  0.00    -0.272 NA
HETATM   13  H   UNL     1      41.639 -15.525   6.382  1.00  0.00     0.129 HD
BRANCH  12  14
HETATM   14  C   UNL     1      40.768 -13.675   6.021  1.00  0.00     0.135 C 
BRANCH  14  15
HETATM   15  C   UNL     1      42.081 -12.918   5.969  1.00  0.00    -0.012 A 
HETATM   16  C   UNL     1      42.228 -11.845   5.060  1.00  0.00     0.075 A 
HETATM   17  C   UNL     1      43.450 -11.170   4.968  1.00  0.00     0.037 A 
HETATM   18  C   UNL     1      44.538 -11.570   5.745  1.00  0.00     0.003 A 
HETATM   19  C   UNL     1      44.418 -12.654   6.608  1.00  0.00     0.001 A 
HETATM   20  C   UNL     1      43.203 -13.332   6.710  1.00  0.00     0.011 A 
BRANCH  16  21
HETATM   21  O   UNL     1      41.125 -11.550   4.300  1.00  0.00    -0.355 OA
HETATM   22  C   UNL     1      41.259 -11.630   2.884  1.00  0.00     0.210 C 
ENDBRANCH  16  21
ENDBRANCH  14  15
ENDBRANCH  12  14
ENDBRANCH   3  12
BRANCH   1  23
HETATM   23  N   UNL     1      39.580 -14.742   1.324  1.00  0.00    -0.262 NA
HETATM   24  H   UNL     1      38.716 -15.244   1.145  1.00  0.00     0.130 HD
BRANCH  23  25
HETATM   25  C   UNL     1      40.273 -14.392   0.081  1.00  0.00     0.095 C 
BRANCH  25  26
HETATM   26  C   UNL     1      39.507 -14.959  -1.120  1.00  0.00     0.014 C 
BRANCH  26  27
HETATM   27  C   UNL     1      38.766 -13.878  -1.910  1.00  0.00    -0.003 C 
HETATM   28  C   UNL     1      38.395 -14.366  -3.303  1.00  0.00     0.005 C 
ENDBRANCH  26  27
ENDBRANCH  25  26
ENDBRANCH  23  25
ENDBRANCH   1  23
TORSDOF 8
ENDMDL
MODEL 8
REMARK VINA RESULT:      -6.9      2.473      6.426
REMARK  8 active torsions:
REMARK  status: ('A' for Active; 'I' for Inactive)
REMARK    1  A    between atoms: C_2  and  C_3 
REMARK    2  A    between atoms: C_3  and  C_4 
REMARK    3  A    between atoms: C_4  and  N_5 
REMARK    4  A    between atoms: N_5  and  C_6 
REMARK    5  A    between atoms: C_8  and  N_9 
REMARK    6  A    between atoms: N_9  and  C_10 
REMARK    7  A    between atoms: C_10  and  C_11 
REMARK    8  A    between atoms: C_12  and  O_13 
ROOT
HETATM    1  C   UNL     1      42.053 -12.182   1.934  1.00  0.00     0.181 A 
HETATM    2  N   UNL     1      42.147 -13.486   2.250  1.00  0.00    -0.207 NA
HETATM    3  C   UNL     1      41.414 -14.361   1.535  1.00  0.00     0.119 A 
HETATM    4  C   UNL     1      40.603 -13.956   0.453  1.00  0.00     0.031 A 
HETATM    5  C   UNL     1      40.517 -12.571   0.223  1.00  0.00     0.048 A 
HETATM    6  N   UNL     1      41.238 -11.738   0.980  1.00  0.00    -0.330 N 
HETATM    7  H   UNL     1      41.173 -10.737   0.860  1.00  0.00     0.168 HD
HETATM    8  C   UNL     1      39.893 -14.808  -0.426  1.00  0.00     0.017 A 
HETATM    9  C   UNL     1      39.087 -14.294  -1.444  1.00  0.00     0.001 A 
HETATM   10  C   UNL     1      38.981 -12.919  -1.622  1.00  0.00     0.002 A 
HETATM   11  C   UNL     1      39.699 -12.057  -0.796  1.00  0.00     0.030 A 
ENDROOT
BRANCH   3  12
HETATM   12  N   UNL     1      41.541 -15.687   1.939  1.00  0.00    -0.272 NA
HETATM   13  H   UNL     1      40.772 -16.221   1.544  1.00  0.00     0.129 HD
BRANCH  12  14
HETATM   14  C   UNL     1      42.842 -16.321   1.670  1.00  0.00     0.135 C 
BRANCH  14  15
HETATM   15  C   UNL     1      43.240 -17.379   2.682  1.00  0.00    -0.012 A 
HETATM   16  C   UNL     1      43.542 -16.993   4.008  1.00  0.00     0.075 A 
HETATM   17  C   UNL     1      43.956 -17.952   4.937  1.00  0.00     0.037 A 
HETATM   18  C   UNL     1      44.106 -19.286   4.556  1.00  0.00     0.003 A 
HETATM   19  C   UNL     1      43.857 -19.668   3.243  1.00  0.00     0.001 A 
HETATM   20  C   UNL     1      43.440 -18.721   2.308  1.00  0.00     0.011 A 
BRANCH  16  21
HETATM   21  O   UNL     1      43.415 -15.655   4.285  1.00  0.00    -0.355 OA
HETATM   22  C   UNL     1      43.019 -15.289   5.603  1.00  0.00     0.210 C 
ENDBRANCH  16  21
ENDBRANCH  14  15
ENDBRANCH  12  14
ENDBRANCH   3  12
BRANCH   1  23
HETATM   23  N   UNL     1      42.780 -11.211   2.609  1.00  0.00    -0.262 NA
HETATM   24  H   UNL     1      43.146 -10.476   2.011  1.00  0.00     0.130 HD
BRANCH  23  25
HETATM   25  C   UNL     1      43.797 -11.712   3.537  1.00  0.00     0.095 C 
BRANCH  25  26
HETATM   26  C   UNL     1      43.421 -11.335   4.974  1.00  0.00     0.014 C 
BRANCH  26  27
HETATM   27  C   UNL     1      44.627 -11.332   5.917  1.00  0.00    -0.003 C 
HETATM   28  C   UNL     1      44.363 -12.176   7.155  1.00  0.00     0.005 C 
ENDBRANCH  26  27
ENDBRANCH  25  26
ENDBRANCH  23  25
ENDBRANCH   1  23
TORSDOF 8
ENDMDL
MODEL 9
REMARK VINA RESULT:      -6.8      2.391      3.159
REMARK  8 active torsions:
REMARK  status: ('A' for Active; 'I' for Inactive)
REMARK    1  A    between atoms: C_2  and  C_3 
REMARK    2  A    between atoms: C_3  and  C_4 
REMARK    3  A    between atoms: C_4  and  N_5 
REMARK    4  A    between atoms: N_5  and  C_6 
REMARK    5  A    between atoms: C_8  and  N_9 
REMARK    6  A    between atoms: N_9  and  C_10 
REMARK    7  A    between atoms: C_10  and  C_11 
REMARK    8  A    between atoms: C_12  and  O_13 
ROOT
HETATM    1  C   UNL     1      42.887 -14.697   4.936  1.00  0.00     0.181 A 
HETATM    2  N   UNL     1      42.417 -14.480   3.694  1.00  0.00    -0.207 NA
HETATM    3  C   UNL     1      42.519 -15.482   2.799  1.00  0.00     0.119 A 
HETATM    4  C   UNL     1      43.053 -16.744   3.139  1.00  0.00     0.031 A 
HETATM    5  C   UNL     1      43.571 -16.871   4.440  1.00  0.00     0.048 A 
HETATM    6  N   UNL     1      43.475 -15.839   5.284  1.00  0.00    -0.330 N 
HETATM    7  H   UNL     1      43.867 -15.889   6.214  1.00  0.00     0.168 HD
HETATM    8  C   UNL     1      43.094 -17.887   2.305  1.00  0.00     0.017 A 
HETATM    9  C   UNL     1      43.681 -19.079   2.735  1.00  0.00     0.001 A 
HETATM   10  C   UNL     1      44.230 -19.165   4.010  1.00  0.00     0.002 A 
HETATM   11  C   UNL     1      44.169 -18.068   4.866  1.00  0.00     0.030 A 
ENDROOT
BRANCH   3  12
HETATM   12  N   UNL     1      42.040 -15.172   1.529  1.00  0.00    -0.272 NA
HETATM   13  H   UNL     1      42.562 -15.714   0.845  1.00  0.00     0.129 HD
BRANCH  12  14
HETATM   14  C   UNL     1      40.586 -15.306   1.338  1.00  0.00     0.135 C 
BRANCH  14  15
HETATM   15  C   UNL     1      39.847 -13.985   1.242  1.00  0.00    -0.012 A 
HETATM   16  C   UNL     1      39.774 -13.320  -0.004  1.00  0.00     0.075 A 
HETATM   17  C   UNL     1      39.137 -12.078  -0.095  1.00  0.00     0.037 A 
HETATM   18  C   UNL     1      38.600 -11.474   1.042  1.00  0.00     0.003 A 
HETATM   19  C   UNL     1      38.707 -12.099   2.280  1.00  0.00     0.001 A 
HETATM   20  C   UNL     1      39.337 -13.339   2.383  1.00  0.00     0.011 A 
BRANCH  16  21
HETATM   21  O   UNL     1      40.371 -13.960  -1.060  1.00  0.00    -0.355 OA
HETATM   22  C   UNL     1      39.573 -14.222  -2.209  1.00  0.00     0.210 C 
ENDBRANCH  16  21
ENDBRANCH  14  15
ENDBRANCH  12  14
ENDBRANCH   3  12
BRANCH   1  23
HETATM   23  N   UNL     1      42.812 -13.728   5.926  1.00  0.00    -0.262 NA
HETATM   24  H   UNL     1      42.360 -12.868   5.632  1.00  0.00     0.130 HD
BRANCH  23  25
HETATM   25  C   UNL     1      44.058 -13.467   6.652  1.00  0.00     0.095 C 
BRANCH  25  26
HETATM   26  C   UNL     1      44.206 -11.962   6.908  1.00  0.00     0.014 C 
BRANCH  26  27
HETATM   27  C   UNL     1      45.595 -11.436   6.541  1.00  0.00    -0.003 C 
HETATM   28  C   UNL     1      46.164 -10.558   7.645  1.00  0.00     0.005 C 
ENDBRANCH  26  27
ENDBRANCH  25  26
ENDBRANCH  23  25
ENDBRANCH   1  23
TORSDOF 8
ENDMDL
MODEL 10
REMARK VINA RESULT:      -6.8      2.177      5.284
REMARK  8 active torsions:
REMARK  status: ('A' for Active; 'I' for Inactive)
REMARK    1  A    between atoms: C_2  and  C_3 
REMARK    2  A    between atoms: C_3  and  C_4 
REMARK    3  A    between atoms: C_4  and  N_5 
REMARK    4  A    between atoms: N_5  and  C_6 
REMARK    5  A    between atoms: C_8  and  N_9 
REMARK    6  A    between atoms: N_9  and  C_10 
REMARK    7  A    between atoms: C_10  and  C_11 
REMARK    8  A    between atoms: C_12  and  O_13 
ROOT
HETATM    1  C   UNL     1      42.162 -17.122   2.614  1.00  0.00     0.181 A 
HETATM    2  N   UNL     1      41.343 -16.393   1.834  1.00  0.00    -0.207 NA
HETATM    3  C   UNL     1      40.676 -15.371   2.404  1.00  0.00     0.119 A 
HETATM    4  C   UNL     1      40.849 -15.024   3.762  1.00  0.00     0.031 A 
HETATM    5  C   UNL     1      41.680 -15.868   4.520  1.00  0.00     0.048 A 
HETATM    6  N   UNL     1      42.296 -16.889   3.917  1.00  0.00    -0.330 N 
HETATM    7  H   UNL     1      42.874 -17.532   4.442  1.00  0.00     0.168 HD
HETATM    8  C   UNL     1      40.286 -13.902   4.417  1.00  0.00     0.017 A 
HETATM    9  C   UNL     1      40.496 -13.676   5.779  1.00  0.00     0.001 A 
HETATM   10  C   UNL     1      41.283 -14.551   6.518  1.00  0.00     0.002 A 
HETATM   11  C   UNL     1      41.881 -15.642   5.891  1.00  0.00     0.030 A 
ENDROOT
BRANCH   3  12
HETATM   12  N   UNL     1      39.826 -14.684   1.542  1.00  0.00    -0.272 NA
HETATM   13  H   UNL     1      39.340 -13.965   2.072  1.00  0.00     0.129 HD
BRANCH  12  14
HETATM   14  C   UNL     1      40.447 -14.139   0.324  1.00  0.00     0.135 C 
BRANCH  14  15
HETATM   15  C   UNL     1      39.459 -13.765  -0.764  1.00  0.00    -0.012 A 
HETATM   16  C   UNL     1      38.694 -12.583  -0.631  1.00  0.00     0.075 A 
HETATM   17  C   UNL     1      37.745 -12.253  -1.603  1.00  0.00     0.037 A 
HETATM   18  C   UNL     1      37.523 -13.099  -2.690  1.00  0.00     0.003 A 
HETATM   19  C   UNL     1      38.236 -14.287  -2.806  1.00  0.00     0.001 A 
HETATM   20  C   UNL     1      39.188 -14.625  -1.844  1.00  0.00     0.011 A 
BRANCH  16  21
HETATM   21  O   UNL     1      38.941 -11.835   0.492  1.00  0.00    -0.355 OA
HETATM   22  C   UNL     1      37.827 -11.475   1.303  1.00  0.00     0.210 C 
ENDBRANCH  16  21
ENDBRANCH  14  15
ENDBRANCH  12  14
ENDBRANCH   3  12
BRANCH   1  23
HETATM   23  N   UNL     1      42.899 -18.185   2.110  1.00  0.00    -0.262 NA
HETATM   24  H   UNL     1      42.349 -18.859   1.586  1.00  0.00     0.130 HD
BRANCH  23  25
HETATM   25  C   UNL     1      43.798 -18.840   3.062  1.00  0.00     0.095 C 
BRANCH  25  26
HETATM   26  C   UNL     1      43.717 -20.362   2.894  1.00  0.00     0.014 C 
BRANCH  26  27
HETATM   27  C   UNL     1      43.882 -21.112   4.218  1.00  0.00    -0.003 C 
HETATM   28  C   UNL     1      44.030 -20.148   5.385  1.00  0.00     0.005 C 
ENDBRANCH  26  27
ENDBRANCH  25  26
ENDBRANCH  23  25
ENDBRANCH   1  23
TORSDOF 8
ENDMDL
