MODEL 1
REMARK VINA RESULT:      -9.1      0.000      0.000
REMARK  9 active torsions:
REMARK  status: ('A' for Active; 'I' for Inactive)
REMARK    1  A    between atoms: O_2  and  C_3 
REMARK    2  A    between atoms: C_5  and  C_15 
REMARK    3  A    between atoms: C_8  and  C_9 
REMARK       I    between atoms: C_15  and  N_17 
REMARK    4  A    between atoms: N_17  and  C_18 
REMARK    5  A    between atoms: C_18  and  C_19 
REMARK    6  A    between atoms: C_23  and  C_25 
REMARK       I    between atoms: C_25  and  N_27 
REMARK    7  A    between atoms: N_27  and  C_28 
REMARK    8  A    between atoms: C_28  and  C_29 
REMARK    9  A    between atoms: C_29  and  O_32 
ROOT
HETATM    1  C   UNL     1      42.871 -13.223   3.975  1.00  0.00     0.252 C 
HETATM    2  O   UNL     1      42.283 -12.562   3.127  1.00  0.00    -0.268 OA
HETATM    3  N   UNL     1      43.375 -12.683   5.138  1.00  0.00    -0.353 N 
HETATM    4  H   UNL     1      43.608 -13.298   5.906  1.00  0.00     0.163 HD
ENDROOT
BRANCH   3   5
HETATM    5  C   UNL     1      43.160 -11.290   5.455  1.00  0.00     0.161 C 
BRANCH   5   6
HETATM    6  C   UNL     1      43.945 -10.898   6.679  1.00  0.00    -0.040 A 
HETATM    7  C   UNL     1      45.338 -11.045   6.719  1.00  0.00     0.009 A 
HETATM    8  C   UNL     1      46.057 -10.667   7.854  1.00  0.00     0.002 A 
HETATM    9  C   UNL     1      45.390 -10.143   8.962  1.00  0.00     0.017 A 
HETATM   10  C   UNL     1      43.998 -10.006   8.946  1.00  0.00     0.032 A 
HETATM   11  C   UNL     1      43.280 -10.373   7.801  1.00  0.00     0.026 A 
BRANCH  10  12
HETATM   12  C   UNL     1      43.332  -9.447  10.154  1.00  0.00     0.251 C 
HETATM   13  O   UNL     1      43.568  -8.297  10.509  1.00  0.00    -0.268 OA
HETATM   14  N   UNL     1      42.492 -10.292  10.845  1.00  0.00    -0.354 N 
HETATM   15  H   UNL     1      42.410 -11.265  10.582  1.00  0.00     0.162 HD
BRANCH  14  16
HETATM   16  C   UNL     1      41.814  -9.877  12.066  1.00  0.00     0.159 C 
BRANCH  16  17
HETATM   17  C   UNL     1      40.280  -9.775  11.905  1.00  0.00     0.066 C 
HETATM   18  C   UNL     1      39.517 -10.655  12.897  1.00  0.00     0.047 C 
HETATM   19  C   UNL     1      39.843  -8.317  12.064  1.00  0.00     0.047 C 
BRANCH  17  20
HETATM   20  O   UNL     1      39.926 -10.179  10.573  1.00  0.00    -0.389 OA
HETATM   21  H   UNL     1      40.359  -9.551   9.967  1.00  0.00     0.210 HD
ENDBRANCH  17  20
ENDBRANCH  16  17
ENDBRANCH  14  16
ENDBRANCH  10  12
ENDBRANCH   5   6
ENDBRANCH   3   5
BRANCH   1  22
HETATM   22  C   UNL     1      43.043 -14.690   3.794  1.00  0.00     0.034 A 
HETATM   23  C   UNL     1      43.028 -15.580   4.877  1.00  0.00     0.054 A 
HETATM   24  C   UNL     1      43.194 -16.958   4.669  1.00  0.00     0.080 A 
HETATM   25  C   UNL     1      43.361 -17.456   3.356  1.00  0.00     0.010 A 
HETATM   26  C   UNL     1      43.403 -16.545   2.286  1.00  0.00     0.016 A 
HETATM   27  C   UNL     1      43.252 -15.175   2.502  1.00  0.00     0.018 A 
BRANCH  24  28
HETATM   28  O   UNL     1      43.153 -17.876   5.690  1.00  0.00    -0.355 OA
HETATM   29  C   UNL     1      43.464 -17.415   6.999  1.00  0.00     0.210 C 
ENDBRANCH  24  28
BRANCH  25  30
HETATM   30  C   UNL     1      43.523 -18.880   3.080  1.00  0.00     0.013 A 
HETATM   31  C   UNL     1      43.180 -19.659   1.950  1.00  0.00     0.152 A 
HETATM   32  N   UNL     1      43.492 -20.951   2.093  1.00  0.00    -0.187 NA
HETATM   33  N   UNL     1      44.052 -21.003   3.311  1.00  0.00    -0.289 N 
HETATM   34  H   UNL     1      44.385 -21.900   3.648  1.00  0.00     0.188 HD
HETATM   35  C   UNL     1      44.091 -19.795   3.944  1.00  0.00     0.123 A 
ENDBRANCH  25  30
ENDBRANCH   1  22
TORSDOF 9
ENDMDL
MODEL 2
REMARK VINA RESULT:      -9.0      1.703      2.553
REMARK  9 active torsions:
REMARK  status: ('A' for Active; 'I' for Inactive)
REMARK    1  A    between atoms: O_2  and  C_3 
REMARK    2  A    between atoms: C_5  and  C_15 
REMARK    3  A    between atoms: C_8  and  C_9 
REMARK       I    between atoms: C_15  and  N_17 
REMARK    4  A    between atoms: N_17  and  C_18 
REMARK    5  A    between atoms: C_18  and  C_19 
REMARK    6  A    between atoms: C_23  and  C_25 
REMARK       I    between atoms: C_25  and  N_27 
REMARK    7  A    between atoms: N_27  and  C_28 
REMARK    8  A    between atoms: C_28  and  C_29 
REMARK    9  A    between atoms: C_29  and  O_32 
ROOT
HETATM    1  C   UNL     1      42.559 -13.583   2.387  1.00  0.00     0.252 C 
HETATM    2  O   UNL     1      41.727 -13.316   1.528  1.00  0.00    -0.268 OA
HETATM    3  N   UNL     1      43.233 -12.624   3.111  1.00  0.00    -0.353 N 
HETATM    4  H   UNL     1      43.699 -12.891   3.967  1.00  0.00     0.163 HD
ENDROOT
BRANCH   3   5
HETATM    5  C   UNL     1      42.924 -11.223   2.939  1.00  0.00     0.161 C 
BRANCH   5   6
HETATM    6  C   UNL     1      42.579 -10.591   4.263  1.00  0.00    -0.040 A 
HETATM    7  C   UNL     1      41.602  -9.591   4.350  1.00  0.00     0.009 A 
HETATM    8  C   UNL     1      41.282  -9.021   5.584  1.00  0.00     0.002 A 
HETATM    9  C   UNL     1      41.939  -9.442   6.740  1.00  0.00     0.017 A 
HETATM   10  C   UNL     1      42.930 -10.427   6.668  1.00  0.00     0.032 A 
HETATM   11  C   UNL     1      43.240 -11.006   5.432  1.00  0.00     0.026 A 
BRANCH  10  12
HETATM   12  C   UNL     1      43.606 -10.837   7.929  1.00  0.00     0.251 C 
HETATM   13  O   UNL     1      44.441 -11.736   7.914  1.00  0.00    -0.268 OA
HETATM   14  N   UNL     1      43.217 -10.187   9.080  1.00  0.00    -0.354 N 
HETATM   15  H   UNL     1      42.449  -9.531   9.066  1.00  0.00     0.162 HD
BRANCH  14  16
HETATM   16  C   UNL     1      43.774 -10.527  10.382  1.00  0.00     0.159 C 
BRANCH  16  17
HETATM   17  C   UNL     1      42.957  -9.951  11.561  1.00  0.00     0.066 C 
HETATM   18  C   UNL     1      43.575  -8.682  12.152  1.00  0.00     0.047 C 
HETATM   19  C   UNL     1      41.526  -9.664  11.102  1.00  0.00     0.047 C 
BRANCH  17  20
HETATM   20  O   UNL     1      42.876 -10.943  12.597  1.00  0.00    -0.389 OA
HETATM   21  H   UNL     1      42.566 -11.763  12.174  1.00  0.00     0.210 HD
ENDBRANCH  17  20
ENDBRANCH  16  17
ENDBRANCH  14  16
ENDBRANCH  10  12
ENDBRANCH   5   6
ENDBRANCH   3   5
BRANCH   1  22
HETATM   22  C   UNL     1      42.865 -15.002   2.717  1.00  0.00     0.034 A 
HETATM   23  C   UNL     1      42.853 -15.478   4.036  1.00  0.00     0.054 A 
HETATM   24  C   UNL     1      43.147 -16.822   4.310  1.00  0.00     0.080 A 
HETATM   25  C   UNL     1      43.440 -17.709   3.249  1.00  0.00     0.010 A 
HETATM   26  C   UNL     1      43.475 -17.207   1.936  1.00  0.00     0.016 A 
HETATM   27  C   UNL     1      43.196 -15.866   1.672  1.00  0.00     0.018 A 
BRANCH  24  28
HETATM   28  O   UNL     1      43.116 -17.347   5.579  1.00  0.00    -0.355 OA
HETATM   29  C   UNL     1      42.420 -16.611   6.578  1.00  0.00     0.210 C 
ENDBRANCH  24  28
BRANCH  25  30
HETATM   30  C   UNL     1      43.737 -19.120   3.475  1.00  0.00     0.013 A 
HETATM   31  C   UNL     1      43.636 -20.246   2.625  1.00  0.00     0.152 A 
HETATM   32  N   UNL     1      44.004 -21.385   3.221  1.00  0.00    -0.187 NA
HETATM   33  N   UNL     1      44.359 -20.991   4.453  1.00  0.00    -0.289 N 
HETATM   34  H   UNL     1      44.691 -21.694   5.104  1.00  0.00     0.188 HD
HETATM   35  C   UNL     1      44.215 -19.650   4.658  1.00  0.00     0.123 A 
ENDBRANCH  25  30
ENDBRANCH   1  22
TORSDOF 9
ENDMDL
MODEL 3
REMARK VINA RESULT:      -8.6      1.559      2.064
REMARK  9 active torsions:
REMARK  status: ('A' for Active; 'I' for Inactive)
REMARK    1  A    between atoms: O_2  and  C_3 
REMARK    2  A    between atoms: C_5  and  C_15 
REMARK    3  A    between atoms: C_8  and  C_9 
REMARK       I    between atoms: C_15  and  N_17 
REMARK    4  A    between atoms: N_17  and  C_18 
REMARK    5  A    between atoms: C_18  and  C_19 
REMARK    6  A    between atoms: C_23  and  C_25 
REMARK       I    between atoms: C_25  and  N_27 
REMARK    7  A    between atoms: N_27  and  C_28 
REMARK    8  A    between atoms: C_28  and  C_29 
REMARK    9  A    between atoms: C_29  and  O_32 
ROOT
HETATM    1  C   UNL     1      41.967 -12.777   5.487  1.00  0.00     0.252 C 
HETATM    2  O   UNL     1      40.893 -12.554   6.033  1.00  0.00    -0.268 OA
HETATM    3  N   UNL     1      42.970 -11.838   5.382  1.00  0.00    -0.353 N 
HETATM    4  H   UNL     1      43.909 -12.143   5.167  1.00  0.00     0.163 HD
ENDROOT
BRANCH   3   5
HETATM    5  C   UNL     1      42.826 -10.538   5.996  1.00  0.00     0.161 C 
BRANCH   5   6
HETATM    6  C   UNL     1      43.709 -10.425   7.212  1.00  0.00    -0.040 A 
HETATM    7  C   UNL     1      45.088 -10.659   7.124  1.00  0.00     0.009 A 
HETATM    8  C   UNL     1      45.899 -10.540   8.254  1.00  0.00     0.002 A 
HETATM    9  C   UNL     1      45.338 -10.191   9.483  1.00  0.00     0.017 A 
HETATM   10  C   UNL     1      43.960  -9.972   9.592  1.00  0.00     0.032 A 
HETATM   11  C   UNL     1      43.152 -10.079   8.454  1.00  0.00     0.026 A 
BRANCH  10  12
HETATM   12  C   UNL     1      43.410  -9.608  10.926  1.00  0.00     0.251 C 
HETATM   13  O   UNL     1      43.811  -8.603  11.503  1.00  0.00    -0.268 OA
HETATM   14  N   UNL     1      42.479 -10.468  11.467  1.00  0.00    -0.354 N 
HETATM   15  H   UNL     1      42.258 -11.341  11.010  1.00  0.00     0.162 HD
BRANCH  14  16
HETATM   16  C   UNL     1      41.898 -10.244  12.784  1.00  0.00     0.159 C 
BRANCH  16  17
HETATM   17  C   UNL     1      40.372  -9.996  12.740  1.00  0.00     0.066 C 
HETATM   18  C   UNL     1      39.962  -8.683  13.412  1.00  0.00     0.047 C 
HETATM   19  C   UNL     1      39.893 -10.005  11.287  1.00  0.00     0.047 C 
BRANCH  17  20
HETATM   20  O   UNL     1      39.708 -11.078  13.411  1.00  0.00    -0.389 OA
HETATM   21  H   UNL     1      38.757 -10.870  13.400  1.00  0.00     0.210 HD
ENDBRANCH  17  20
ENDBRANCH  16  17
ENDBRANCH  14  16
ENDBRANCH  10  12
ENDBRANCH   5   6
ENDBRANCH   3   5
BRANCH   1  22
HETATM   22  C   UNL     1      42.255 -14.123   4.924  1.00  0.00     0.034 A 
HETATM   23  C   UNL     1      41.547 -14.639   3.829  1.00  0.00     0.054 A 
HETATM   24  C   UNL     1      41.845 -15.914   3.324  1.00  0.00     0.080 A 
HETATM   25  C   UNL     1      42.880 -16.678   3.911  1.00  0.00     0.010 A 
HETATM   26  C   UNL     1      43.560 -16.156   5.025  1.00  0.00     0.016 A 
HETATM   27  C   UNL     1      43.248 -14.894   5.531  1.00  0.00     0.018 A 
BRANCH  24  28
HETATM   28  O   UNL     1      41.205 -16.452   2.235  1.00  0.00    -0.355 OA
HETATM   29  C   UNL     1      40.060 -15.767   1.742  1.00  0.00     0.210 C 
ENDBRANCH  24  28
BRANCH  25  30
HETATM   30  C   UNL     1      43.244 -18.003   3.417  1.00  0.00     0.013 A 
HETATM   31  C   UNL     1      42.979 -18.649   2.187  1.00  0.00     0.152 A 
HETATM   32  N   UNL     1      43.488 -19.883   2.126  1.00  0.00    -0.187 NA
HETATM   33  N   UNL     1      44.096 -20.028   3.312  1.00  0.00    -0.289 N 
HETATM   34  H   UNL     1      44.574 -20.902   3.503  1.00  0.00     0.188 HD
HETATM   35  C   UNL     1      43.977 -18.937   4.122  1.00  0.00     0.123 A 
ENDBRANCH  25  30
ENDBRANCH   1  22
TORSDOF 9
ENDMDL
MODEL 4
REMARK VINA RESULT:      -8.4      2.002      3.164
REMARK  9 active torsions:
REMARK  status: ('A' for Active; 'I' for Inactive)
REMARK    1  A    between atoms: O_2  and  C_3 
REMARK    2  A    between atoms: C_5  and  C_15 
REMARK    3  A    between atoms: C_8  and  C_9 
REMARK       I    between atoms: C_15  and  N_17 
REMARK    4  A    between atoms: N_17  and  C_18 
REMARK    5  A    between atoms: C_18  and  C_19 
REMARK    6  A    between atoms: C_23  and  C_25 
REMARK       I    between atoms: C_25  and  N_27 
REMARK    7  A    between atoms: N_27  and  C_28 
REMARK    8  A    between atoms: C_28  and  C_29 
REMARK    9  A    between atoms: C_29  and  O_32 
ROOT
HETATM    1  C   UNL     1      42.599 -12.766   3.012  1.00  0.00     0.252 C 
HETATM    2  O   UNL     1      42.172 -12.262   1.980  1.00  0.00    -0.268 OA
HETATM    3  N   UNL     1      42.861 -12.042   4.154  1.00  0.00    -0.353 N 
HETATM    4  H   UNL     1      42.954 -12.530   5.035  1.00  0.00     0.163 HD
ENDROOT
BRANCH   3   5
HETATM    5  C   UNL     1      42.562 -10.630   4.213  1.00  0.00     0.161 C 
BRANCH   5   6
HETATM    6  C   UNL     1      41.248 -10.395   4.911  1.00  0.00    -0.040 A 
HETATM    7  C   UNL     1      40.040 -10.420   4.201  1.00  0.00     0.009 A 
HETATM    8  C   UNL     1      38.827 -10.213   4.860  1.00  0.00     0.002 A 
HETATM    9  C   UNL     1      38.810  -9.975   6.234  1.00  0.00     0.017 A 
HETATM   10  C   UNL     1      40.009  -9.928   6.956  1.00  0.00     0.032 A 
HETATM   11  C   UNL     1      41.223 -10.150   6.295  1.00  0.00     0.026 A 
BRANCH  10  12
HETATM   12  C   UNL     1      39.938  -9.665   8.419  1.00  0.00     0.251 C 
HETATM   13  O   UNL     1      38.852  -9.477   8.958  1.00  0.00    -0.268 OA
HETATM   14  N   UNL     1      41.137  -9.610   9.097  1.00  0.00    -0.354 N 
HETATM   15  H   UNL     1      42.013  -9.661   8.597  1.00  0.00     0.162 HD
BRANCH  14  16
HETATM   16  C   UNL     1      41.203  -9.318  10.522  1.00  0.00     0.159 C 
BRANCH  16  17
HETATM   17  C   UNL     1      42.558  -9.703  11.159  1.00  0.00     0.066 C 
HETATM   18  C   UNL     1      43.610  -8.597  11.035  1.00  0.00     0.047 C 
HETATM   19  C   UNL     1      42.351 -10.057  12.633  1.00  0.00     0.047 C 
BRANCH  17  20
HETATM   20  O   UNL     1      43.058 -10.881  10.508  1.00  0.00    -0.389 OA
HETATM   21  H   UNL     1      42.461 -11.610  10.755  1.00  0.00     0.210 HD
ENDBRANCH  17  20
ENDBRANCH  16  17
ENDBRANCH  14  16
ENDBRANCH  10  12
ENDBRANCH   5   6
ENDBRANCH   3   5
BRANCH   1  22
HETATM   22  C   UNL     1      42.831 -14.234   3.087  1.00  0.00     0.034 A 
HETATM   23  C   UNL     1      42.827 -14.926   4.306  1.00  0.00     0.054 A 
HETATM   24  C   UNL     1      43.050 -16.311   4.340  1.00  0.00     0.080 A 
HETATM   25  C   UNL     1      43.263 -17.019   3.135  1.00  0.00     0.010 A 
HETATM   26  C   UNL     1      43.292 -16.303   1.925  1.00  0.00     0.016 A 
HETATM   27  C   UNL     1      43.084 -14.924   1.900  1.00  0.00     0.018 A 
BRANCH  24  28
HETATM   28  O   UNL     1      43.023 -17.042   5.503  1.00  0.00    -0.355 OA
HETATM   29  C   UNL     1      42.342 -16.478   6.617  1.00  0.00     0.210 C 
ENDBRANCH  24  28
BRANCH  25  30
HETATM   30  C   UNL     1      43.484 -18.462   3.109  1.00  0.00     0.013 A 
HETATM   31  C   UNL     1      44.087 -19.334   4.046  1.00  0.00     0.152 A 
HETATM   32  N   UNL     1      44.102 -20.607   3.639  1.00  0.00    -0.187 NA
HETATM   33  N   UNL     1      43.492 -20.559   2.445  1.00  0.00    -0.289 N 
HETATM   34  H   UNL     1      43.373 -21.426   1.932  1.00  0.00     0.188 HD
HETATM   35  C   UNL     1      43.108 -19.302   2.080  1.00  0.00     0.123 A 
ENDBRANCH  25  30
ENDBRANCH   1  22
TORSDOF 9
ENDMDL
MODEL 5
REMARK VINA RESULT:      -8.3      3.068     10.712
REMARK  9 active torsions:
REMARK  status: ('A' for Active; 'I' for Inactive)
REMARK    1  A    between atoms: O_2  and  C_3 
REMARK    2  A    between atoms: C_5  and  C_15 
REMARK    3  A    between atoms: C_8  and  C_9 
REMARK       I    between atoms: C_15  and  N_17 
REMARK    4  A    between atoms: N_17  and  C_18 
REMARK    5  A    between atoms: C_18  and  C_19 
REMARK    6  A    between atoms: C_23  and  C_25 
REMARK       I    between atoms: C_25  and  N_27 
REMARK    7  A    between atoms: N_27  and  C_28 
REMARK    8  A    between atoms: C_28  and  C_29 
REMARK    9  A    between atoms: C_29  and  O_32 
ROOT
HETATM    1  C   UNL     1      44.585 -10.781   8.216  1.00  0.00     0.252 C 
HETATM    2  O   UNL     1      45.664 -10.467   7.726  1.00  0.00    -0.268 OA
HETATM    3  N   UNL     1      43.794 -11.791   7.714  1.00  0.00    -0.353 N 
HETATM    4  H   UNL     1      43.063 -12.178   8.295  1.00  0.00     0.163 HD
ENDROOT
BRANCH   3   5
HETATM    5  C   UNL     1      44.248 -12.598   6.605  1.00  0.00     0.161 C 
BRANCH   5   6
HETATM    6  C   UNL     1      43.437 -13.864   6.504  1.00  0.00    -0.040 A 
HETATM    7  C   UNL     1      43.247 -14.689   7.622  1.00  0.00     0.009 A 
HETATM    8  C   UNL     1      42.484 -15.853   7.520  1.00  0.00     0.002 A 
HETATM    9  C   UNL     1      41.907 -16.206   6.300  1.00  0.00     0.017 A 
HETATM   10  C   UNL     1      42.102 -15.404   5.169  1.00  0.00     0.032 A 
HETATM   11  C   UNL     1      42.857 -14.229   5.278  1.00  0.00     0.026 A 
BRANCH  10  12
HETATM   12  C   UNL     1      41.471 -15.826   3.890  1.00  0.00     0.251 C 
HETATM   13  O   UNL     1      41.790 -16.890   3.369  1.00  0.00    -0.268 OA
HETATM   14  N   UNL     1      40.563 -14.955   3.329  1.00  0.00    -0.354 N 
HETATM   15  H   UNL     1      40.410 -14.041   3.733  1.00  0.00     0.162 HD
BRANCH  14  16
HETATM   16  C   UNL     1      39.909 -15.235   2.058  1.00  0.00     0.159 C 
BRANCH  16  17
HETATM   17  C   UNL     1      40.078 -14.098   1.024  1.00  0.00     0.066 C 
HETATM   18  C   UNL     1      41.439 -13.404   1.117  1.00  0.00     0.047 C 
HETATM   19  C   UNL     1      39.876 -14.654  -0.387  1.00  0.00     0.047 C 
BRANCH  17  20
HETATM   20  O   UNL     1      39.051 -13.118   1.243  1.00  0.00    -0.389 OA
HETATM   21  H   UNL     1      39.484 -12.247   1.200  1.00  0.00     0.210 HD
ENDBRANCH  17  20
ENDBRANCH  16  17
ENDBRANCH  14  16
ENDBRANCH  10  12
ENDBRANCH   5   6
ENDBRANCH   3   5
BRANCH   1  22
HETATM   22  C   UNL     1      44.083 -10.084   9.430  1.00  0.00     0.034 A 
HETATM   23  C   UNL     1      43.773  -8.716   9.428  1.00  0.00     0.054 A 
HETATM   24  C   UNL     1      43.301  -8.091  10.593  1.00  0.00     0.080 A 
HETATM   25  C   UNL     1      43.120  -8.847  11.773  1.00  0.00     0.010 A 
HETATM   26  C   UNL     1      43.464 -10.211  11.764  1.00  0.00     0.016 A 
HETATM   27  C   UNL     1      43.946 -10.823  10.606  1.00  0.00     0.018 A 
BRANCH  24  28
HETATM   28  O   UNL     1      42.951  -6.764  10.636  1.00  0.00    -0.355 OA
HETATM   29  C   UNL     1      42.494  -6.166   9.429  1.00  0.00     0.210 C 
ENDBRANCH  24  28
BRANCH  25  30
HETATM   30  C   UNL     1      42.618  -8.253  13.008  1.00  0.00     0.013 A 
HETATM   31  C   UNL     1      43.229  -7.388  13.946  1.00  0.00     0.152 A 
HETATM   32  N   UNL     1      42.423  -7.071  14.965  1.00  0.00    -0.187 NA
HETATM   33  N   UNL     1      41.285  -7.720  14.675  1.00  0.00    -0.289 N 
HETATM   34  H   UNL     1      40.502  -7.623  15.313  1.00  0.00     0.188 HD
HETATM   35  C   UNL     1      41.350  -8.444  13.520  1.00  0.00     0.123 A 
ENDBRANCH  25  30
ENDBRANCH   1  22
TORSDOF 9
ENDMDL
MODEL 6
REMARK VINA RESULT:      -8.3      4.412      7.224
REMARK  9 active torsions:
REMARK  status: ('A' for Active; 'I' for Inactive)
REMARK    1  A    between atoms: O_2  and  C_3 
REMARK    2  A    between atoms: C_5  and  C_15 
REMARK    3  A    between atoms: C_8  and  C_9 
REMARK       I    between atoms: C_15  and  N_17 
REMARK    4  A    between atoms: N_17  and  C_18 
REMARK    5  A    between atoms: C_18  and  C_19 
REMARK    6  A    between atoms: C_23  and  C_25 
REMARK       I    between atoms: C_25  and  N_27 
REMARK    7  A    between atoms: N_27  and  C_28 
REMARK    8  A    between atoms: C_28  and  C_29 
REMARK    9  A    between atoms: C_29  and  O_32 
ROOT
HETATM    1  C   UNL     1      41.886 -15.513   1.650  1.00  0.00     0.252 C 
HETATM    2  O   UNL     1      42.971 -15.924   1.256  1.00  0.00    -0.268 OA
HETATM    3  N   UNL     1      41.335 -15.875   2.860  1.00  0.00    -0.353 N 
HETATM    4  H   UNL     1      40.586 -15.316   3.246  1.00  0.00     0.163 HD
ENDROOT
BRANCH   3   5
HETATM    5  C   UNL     1      42.067 -16.718   3.776  1.00  0.00     0.161 C 
BRANCH   5   6
HETATM    6  C   UNL     1      42.390 -15.968   5.043  1.00  0.00    -0.040 A 
HETATM    7  C   UNL     1      42.320 -16.600   6.292  1.00  0.00     0.009 A 
HETATM    8  C   UNL     1      42.633 -15.899   7.458  1.00  0.00     0.002 A 
HETATM    9  C   UNL     1      43.015 -14.559   7.386  1.00  0.00     0.017 A 
HETATM   10  C   UNL     1      43.073 -13.908   6.149  1.00  0.00     0.032 A 
HETATM   11  C   UNL     1      42.771 -14.617   4.980  1.00  0.00     0.026 A 
BRANCH  10  12
HETATM   12  C   UNL     1      43.480 -12.476   6.126  1.00  0.00     0.251 C 
HETATM   13  O   UNL     1      43.913 -11.977   5.093  1.00  0.00    -0.268 OA
HETATM   14  N   UNL     1      43.377 -11.784   7.313  1.00  0.00    -0.354 N 
HETATM   15  H   UNL     1      43.120 -12.261   8.166  1.00  0.00     0.162 HD
BRANCH  14  16
HETATM   16  C   UNL     1      43.783 -10.391   7.430  1.00  0.00     0.159 C 
BRANCH  16  17
HETATM   17  C   UNL     1      45.086 -10.203   8.241  1.00  0.00     0.066 C 
HETATM   18  C   UNL     1      46.330 -10.686   7.491  1.00  0.00     0.047 C 
HETATM   19  C   UNL     1      45.249  -8.729   8.617  1.00  0.00     0.047 C 
BRANCH  17  20
HETATM   20  O   UNL     1      44.979 -10.943   9.467  1.00  0.00    -0.389 OA
HETATM   21  H   UNL     1      44.929 -10.286  10.185  1.00  0.00     0.210 HD
ENDBRANCH  17  20
ENDBRANCH  16  17
ENDBRANCH  14  16
ENDBRANCH  10  12
ENDBRANCH   5   6
ENDBRANCH   3   5
BRANCH   1  22
HETATM   22  C   UNL     1      41.107 -14.548   0.826  1.00  0.00     0.034 A 
HETATM   23  C   UNL     1      41.312 -13.164   0.910  1.00  0.00     0.054 A 
HETATM   24  C   UNL     1      40.558 -12.284   0.118  1.00  0.00     0.080 A 
HETATM   25  C   UNL     1      39.597 -12.796  -0.784  1.00  0.00     0.010 A 
HETATM   26  C   UNL     1      39.386 -14.185  -0.832  1.00  0.00     0.016 A 
HETATM   27  C   UNL     1      40.129 -15.054  -0.032  1.00  0.00     0.018 A 
BRANCH  24  28
HETATM   28  O   UNL     1      40.742 -10.923   0.136  1.00  0.00    -0.355 OA
HETATM   29  C   UNL     1      41.603 -10.390   1.135  1.00  0.00     0.210 C 
ENDBRANCH  24  28
BRANCH  25  30
HETATM   30  C   UNL     1      38.796 -11.928  -1.642  1.00  0.00     0.013 A 
HETATM   31  C   UNL     1      37.583 -11.241  -1.407  1.00  0.00     0.152 A 
HETATM   32  N   UNL     1      37.163 -10.546  -2.469  1.00  0.00    -0.187 NA
HETATM   33  N   UNL     1      38.116 -10.772  -3.386  1.00  0.00    -0.289 N 
HETATM   34  H   UNL     1      38.021 -10.332  -4.295  1.00  0.00     0.188 HD
HETATM   35  C   UNL     1      39.111 -11.594  -2.944  1.00  0.00     0.123 A 
ENDBRANCH  25  30
ENDBRANCH   1  22
TORSDOF 9
ENDMDL
MODEL 7
REMARK VINA RESULT:      -8.2      2.081      3.059
REMARK  9 active torsions:
REMARK  status: ('A' for Active; 'I' for Inactive)
REMARK    1  A    between atoms: O_2  and  C_3 
REMARK    2  A    between atoms: C_5  and  C_15 
REMARK    3  A    between atoms: C_8  and  C_9 
REMARK       I    between atoms: C_15  and  N_17 
REMARK    4  A    between atoms: N_17  and  C_18 
REMARK    5  A    between atoms: C_18  and  C_19 
REMARK    6  A    between atoms: C_23  and  C_25 
REMARK       I    between atoms: C_25  and  N_27 
REMARK    7  A    between atoms: N_27  and  C_28 
REMARK    8  A    between atoms: C_28  and  C_29 
REMARK    9  A    between atoms: C_29  and  O_32 
ROOT
HETATM    1  C   UNL     1      43.551 -13.556   6.100  1.00  0.00     0.252 C 
HETATM    2  O   UNL     1      43.851 -13.301   7.261  1.00  0.00    -0.268 OA
HETATM    3  N   UNL     1      43.205 -12.592   5.179  1.00  0.00    -0.353 N 
HETATM    4  H   UNL     1      43.226 -12.822   4.195  1.00  0.00     0.163 HD
ENDROOT
BRANCH   3   5
HETATM    5  C   UNL     1      43.257 -11.191   5.529  1.00  0.00     0.161 C 
BRANCH   5   6
HETATM    6  C   UNL     1      41.988 -10.772   6.226  1.00  0.00    -0.040 A 
HETATM    7  C   UNL     1      40.733 -11.086   5.688  1.00  0.00     0.009 A 
HETATM    8  C   UNL     1      39.564 -10.704   6.349  1.00  0.00     0.002 A 
HETATM    9  C   UNL     1      39.640 -10.000   7.551  1.00  0.00     0.017 A 
HETATM   10  C   UNL     1      40.885  -9.662   8.093  1.00  0.00     0.032 A 
HETATM   11  C   UNL     1      42.055 -10.059   7.435  1.00  0.00     0.026 A 
BRANCH  10  12
HETATM   12  C   UNL     1      40.912  -8.905   9.374  1.00  0.00     0.251 C 
HETATM   13  O   UNL     1      40.984  -7.681   9.363  1.00  0.00    -0.268 OA
HETATM   14  N   UNL     1      40.890  -9.650  10.534  1.00  0.00    -0.354 N 
HETATM   15  H   UNL     1      40.941 -10.658  10.499  1.00  0.00     0.162 HD
BRANCH  14  16
HETATM   16  C   UNL     1      40.954  -9.028  11.849  1.00  0.00     0.159 C 
BRANCH  16  17
HETATM   17  C   UNL     1      42.265  -9.341  12.606  1.00  0.00     0.066 C 
HETATM   18  C   UNL     1      43.465  -8.555  12.070  1.00  0.00     0.047 C 
HETATM   19  C   UNL     1      42.080  -9.049  14.096  1.00  0.00     0.047 C 
BRANCH  17  20
HETATM   20  O   UNL     1      42.548 -10.743  12.482  1.00  0.00    -0.389 OA
HETATM   21  H   UNL     1      42.446 -11.128  13.371  1.00  0.00     0.210 HD
ENDBRANCH  17  20
ENDBRANCH  16  17
ENDBRANCH  14  16
ENDBRANCH  10  12
ENDBRANCH   5   6
ENDBRANCH   3   5
BRANCH   1  22
HETATM   22  C   UNL     1      43.578 -14.962   5.613  1.00  0.00     0.034 A 
HETATM   23  C   UNL     1      42.781 -15.394   4.543  1.00  0.00     0.054 A 
HETATM   24  C   UNL     1      42.833 -16.728   4.110  1.00  0.00     0.080 A 
HETATM   25  C   UNL     1      43.707 -17.640   4.744  1.00  0.00     0.010 A 
HETATM   26  C   UNL     1      44.478 -17.195   5.833  1.00  0.00     0.016 A 
HETATM   27  C   UNL     1      44.411 -15.871   6.268  1.00  0.00     0.018 A 
BRANCH  24  28
HETATM   28  O   UNL     1      42.099 -17.195   3.047  1.00  0.00    -0.355 OA
HETATM   29  C   UNL     1      41.674 -16.246   2.075  1.00  0.00     0.210 C 
ENDBRANCH  24  28
BRANCH  25  30
HETATM   30  C   UNL     1      43.813 -19.034   4.325  1.00  0.00     0.013 A 
HETATM   31  C   UNL     1      43.774 -19.633   3.044  1.00  0.00     0.152 A 
HETATM   32  N   UNL     1      43.902 -20.963   3.085  1.00  0.00    -0.187 NA
HETATM   33  N   UNL     1      44.040 -21.222   4.394  1.00  0.00    -0.289 N 
HETATM   34  H   UNL     1      44.165 -22.186   4.682  1.00  0.00     0.188 HD
HETATM   35  C   UNL     1      43.991 -20.106   5.178  1.00  0.00     0.123 A 
ENDBRANCH  25  30
ENDBRANCH   1  22
TORSDOF 9
ENDMDL
MODEL 8
REMARK VINA RESULT:      -8.2      2.169      3.018
REMARK  9 active torsions:
REMARK  status: ('A' for Active; 'I' for Inactive)
REMARK    1  A    between atoms: O_2  and  C_3 
REMARK    2  A    between atoms: C_5  and  C_15 
REMARK    3  A    between atoms: C_8  and  C_9 
REMARK       I    between atoms: C_15  and  N_17 
REMARK    4  A    between atoms: N_17  and  C_18 
REMARK    5  A    between atoms: C_18  and  C_19 
REMARK    6  A    between atoms: C_23  and  C_25 
REMARK       I    between atoms: C_25  and  N_27 
REMARK    7  A    between atoms: N_27  and  C_28 
REMARK    8  A    between atoms: C_28  and  C_29 
REMARK    9  A    between atoms: C_29  and  O_32 
ROOT
HETATM    1  C   UNL     1      43.133 -12.603   5.571  1.00  0.00     0.252 C 
HETATM    2  O   UNL     1      43.010 -11.909   4.569  1.00  0.00    -0.268 OA
HETATM    3  N   UNL     1      43.121 -12.092   6.850  1.00  0.00    -0.353 N 
HETATM    4  H   UNL     1      42.962 -12.717   7.629  1.00  0.00     0.163 HD
ENDROOT
BRANCH   3   5
HETATM    5  C   UNL     1      42.880 -10.686   7.077  1.00  0.00     0.161 C 
BRANCH   5   6
HETATM    6  C   UNL     1      43.679 -10.195   8.257  1.00  0.00    -0.040 A 
HETATM    7  C   UNL     1      44.980  -9.701   8.090  1.00  0.00     0.009 A 
HETATM    8  C   UNL     1      45.706  -9.237   9.189  1.00  0.00     0.002 A 
HETATM    9  C   UNL     1      45.141  -9.268  10.464  1.00  0.00     0.017 A 
HETATM   10  C   UNL     1      43.850  -9.775  10.651  1.00  0.00     0.032 A 
HETATM   11  C   UNL     1      43.119 -10.227   9.545  1.00  0.00     0.026 A 
BRANCH  10  12
HETATM   12  C   UNL     1      43.294  -9.792  12.031  1.00  0.00     0.251 C 
HETATM   13  O   UNL     1      43.052 -10.861  12.582  1.00  0.00    -0.268 OA
HETATM   14  N   UNL     1      43.044  -8.569  12.613  1.00  0.00    -0.354 N 
HETATM   15  H   UNL     1      43.155  -7.715  12.084  1.00  0.00     0.162 HD
BRANCH  14  16
HETATM   16  C   UNL     1      42.462  -8.453  13.943  1.00  0.00     0.159 C 
BRANCH  16  17
HETATM   17  C   UNL     1      42.246  -6.988  14.386  1.00  0.00     0.066 C 
HETATM   18  C   UNL     1      42.476  -5.982  13.255  1.00  0.00     0.047 C 
HETATM   19  C   UNL     1      40.830  -6.824  14.943  1.00  0.00     0.047 C 
BRANCH  17  20
HETATM   20  O   UNL     1      43.157  -6.688  15.454  1.00  0.00    -0.389 OA
HETATM   21  H   UNL     1      43.676  -5.915  15.169  1.00  0.00     0.210 HD
ENDBRANCH  17  20
ENDBRANCH  16  17
ENDBRANCH  14  16
ENDBRANCH  10  12
ENDBRANCH   5   6
ENDBRANCH   3   5
BRANCH   1  22
HETATM   22  C   UNL     1      43.273 -14.079   5.446  1.00  0.00     0.034 A 
HETATM   23  C   UNL     1      42.776 -14.783   4.340  1.00  0.00     0.054 A 
HETATM   24  C   UNL     1      42.925 -16.176   4.256  1.00  0.00     0.080 A 
HETATM   25  C   UNL     1      43.598 -16.875   5.285  1.00  0.00     0.010 A 
HETATM   26  C   UNL     1      44.064 -16.155   6.399  1.00  0.00     0.016 A 
HETATM   27  C   UNL     1      43.899 -14.773   6.483  1.00  0.00     0.018 A 
BRANCH  24  28
HETATM   28  O   UNL     1      42.487 -16.908   3.180  1.00  0.00    -0.355 OA
HETATM   29  C   UNL     1      41.374 -16.404   2.452  1.00  0.00     0.210 C 
ENDBRANCH  24  28
BRANCH  25  30
HETATM   30  C   UNL     1      43.796 -18.320   5.242  1.00  0.00     0.013 A 
HETATM   31  C   UNL     1      43.450 -19.340   6.159  1.00  0.00     0.152 A 
HETATM   32  N   UNL     1      43.818 -20.558   5.747  1.00  0.00    -0.187 NA
HETATM   33  N   UNL     1      44.387 -20.325   4.556  1.00  0.00    -0.289 N 
HETATM   34  H   UNL     1      44.745 -21.117   4.032  1.00  0.00     0.188 HD
HETATM   35  C   UNL     1      44.404 -19.005   4.209  1.00  0.00     0.123 A 
ENDBRANCH  25  30
ENDBRANCH   1  22
TORSDOF 9
ENDMDL
MODEL 9
REMARK VINA RESULT:      -8.1      3.040      4.395
REMARK  9 active torsions:
REMARK  status: ('A' for Active; 'I' for Inactive)
REMARK    1  A    between atoms: O_2  and  C_3 
REMARK    2  A    between atoms: C_5  and  C_15 
REMARK    3  A    between atoms: C_8  and  C_9 
REMARK       I    between atoms: C_15  and  N_17 
REMARK    4  A    between atoms: N_17  and  C_18 
REMARK    5  A    between atoms: C_18  and  C_19 
REMARK    6  A    between atoms: C_23  and  C_25 
REMARK       I    between atoms: C_25  and  N_27 
REMARK    7  A    between atoms: N_27  and  C_28 
REMARK    8  A    between atoms: C_28  and  C_29 
REMARK    9  A    between atoms: C_29  and  O_32 
ROOT
HETATM    1  C   UNL     1      44.904 -11.628   6.731  1.00  0.00     0.252 C 
HETATM    2  O   UNL     1      46.025 -11.397   6.293  1.00  0.00    -0.268 OA
HETATM    3  N   UNL     1      44.464 -11.176   7.956  1.00  0.00    -0.353 N 
HETATM    4  H   UNL     1      43.471 -11.167   8.149  1.00  0.00     0.163 HD
ENDROOT
BRANCH   3   5
HETATM    5  C   UNL     1      45.299 -10.321   8.766  1.00  0.00     0.161 C 
BRANCH   5   6
HETATM    6  C   UNL     1      44.461  -9.317   9.515  1.00  0.00    -0.040 A 
HETATM    7  C   UNL     1      44.334  -7.999   9.054  1.00  0.00     0.009 A 
HETATM    8  C   UNL     1      43.545  -7.080   9.749  1.00  0.00     0.002 A 
HETATM    9  C   UNL     1      42.880  -7.468  10.912  1.00  0.00     0.017 A 
HETATM   10  C   UNL     1      43.011  -8.775  11.396  1.00  0.00     0.032 A 
HETATM   11  C   UNL     1      43.792  -9.698  10.690  1.00  0.00     0.026 A 
BRANCH  10  12
HETATM   12  C   UNL     1      42.287  -9.138  12.644  1.00  0.00     0.251 C 
HETATM   13  O   UNL     1      41.537 -10.109  12.659  1.00  0.00    -0.268 OA
HETATM   14  N   UNL     1      42.479  -8.316  13.733  1.00  0.00    -0.354 N 
HETATM   15  H   UNL     1      43.017  -7.466  13.647  1.00  0.00     0.162 HD
BRANCH  14  16
HETATM   16  C   UNL     1      41.794  -8.542  14.999  1.00  0.00     0.159 C 
BRANCH  16  17
HETATM   17  C   UNL     1      41.559  -7.242  15.802  1.00  0.00     0.066 C 
HETATM   18  C   UNL     1      40.526  -6.318  15.153  1.00  0.00     0.047 C 
HETATM   19  C   UNL     1      41.119  -7.591  17.226  1.00  0.00     0.047 C 
BRANCH  17  20
HETATM   20  O   UNL     1      42.803  -6.532  15.908  1.00  0.00    -0.389 OA
HETATM   21  H   UNL     1      43.308  -6.734  15.101  1.00  0.00     0.210 HD
ENDBRANCH  17  20
ENDBRANCH  16  17
ENDBRANCH  14  16
ENDBRANCH  10  12
ENDBRANCH   5   6
ENDBRANCH   3   5
BRANCH   1  22
HETATM   22  C   UNL     1      43.928 -12.406   5.919  1.00  0.00     0.034 A 
HETATM   23  C   UNL     1      43.205 -13.481   6.455  1.00  0.00     0.054 A 
HETATM   24  C   UNL     1      42.294 -14.192   5.659  1.00  0.00     0.080 A 
HETATM   25  C   UNL     1      42.088 -13.812   4.313  1.00  0.00     0.010 A 
HETATM   26  C   UNL     1      42.844 -12.750   3.786  1.00  0.00     0.016 A 
HETATM   27  C   UNL     1      43.759 -12.056   4.579  1.00  0.00     0.018 A 
BRANCH  24  28
HETATM   28  O   UNL     1      41.536 -15.231   6.143  1.00  0.00    -0.355 OA
HETATM   29  C   UNL     1      42.204 -16.237   6.895  1.00  0.00     0.210 C 
ENDBRANCH  24  28
BRANCH  25  30
HETATM   30  C   UNL     1      41.142 -14.506   3.445  1.00  0.00     0.013 A 
HETATM   31  C   UNL     1      41.241 -15.727   2.738  1.00  0.00     0.152 A 
HETATM   32  N   UNL     1      40.139 -16.016   2.038  1.00  0.00    -0.187 NA
HETATM   33  N   UNL     1      39.322 -14.987   2.307  1.00  0.00    -0.289 N 
HETATM   34  H   UNL     1      38.398 -14.986   1.887  1.00  0.00     0.188 HD
HETATM   35  C   UNL     1      39.873 -14.056   3.138  1.00  0.00     0.123 A 
ENDBRANCH  25  30
ENDBRANCH   1  22
TORSDOF 9
ENDMDL
MODEL 10
REMARK VINA RESULT:      -8.1      2.730     11.082
REMARK  9 active torsions:
REMARK  status: ('A' for Active; 'I' for Inactive)
REMARK    1  A    between atoms: O_2  and  C_3 
REMARK    2  A    between atoms: C_5  and  C_15 
REMARK    3  A    between atoms: C_8  and  C_9 
REMARK       I    between atoms: C_15  and  N_17 
REMARK    4  A    between atoms: N_17  and  C_18 
REMARK    5  A    between atoms: C_18  and  C_19 
REMARK    6  A    between atoms: C_23  and  C_25 
REMARK       I    between atoms: C_25  and  N_27 
REMARK    7  A    between atoms: N_27  and  C_28 
REMARK    8  A    between atoms: C_28  and  C_29 
REMARK    9  A    between atoms: C_29  and  O_32 
ROOT
HETATM    1  C   UNL     1      43.540 -10.190   9.455  1.00  0.00     0.252 C 
HETATM    2  O   UNL     1      44.332 -11.123   9.526  1.00  0.00    -0.268 OA
HETATM    3  N   UNL     1      43.072  -9.686   8.261  1.00  0.00    -0.353 N 
HETATM    4  H   UNL     1      42.240  -9.111   8.262  1.00  0.00     0.163 HD
ENDROOT
BRANCH   3   5
HETATM    5  C   UNL     1      43.445 -10.300   7.008  1.00  0.00     0.161 C 
BRANCH   5   6
HETATM    6  C   UNL     1      42.373 -11.253   6.546  1.00  0.00    -0.040 A 
HETATM    7  C   UNL     1      41.044 -10.829   6.406  1.00  0.00     0.009 A 
HETATM    8  C   UNL     1      40.061 -11.717   5.965  1.00  0.00     0.002 A 
HETATM    9  C   UNL     1      40.396 -13.037   5.665  1.00  0.00     0.017 A 
HETATM   10  C   UNL     1      41.715 -13.482   5.816  1.00  0.00     0.032 A 
HETATM   11  C   UNL     1      42.701 -12.586   6.245  1.00  0.00     0.026 A 
BRANCH  10  12
HETATM   12  C   UNL     1      42.020 -14.901   5.489  1.00  0.00     0.251 C 
HETATM   13  O   UNL     1      41.525 -15.806   6.153  1.00  0.00    -0.268 OA
HETATM   14  N   UNL     1      42.896 -15.122   4.448  1.00  0.00    -0.354 N 
HETATM   15  H   UNL     1      43.365 -14.349   3.998  1.00  0.00     0.162 HD
BRANCH  14  16
HETATM   16  C   UNL     1      43.306 -16.464   4.058  1.00  0.00     0.159 C 
BRANCH  16  17
HETATM   17  C   UNL     1      42.832 -16.856   2.639  1.00  0.00     0.066 C 
HETATM   18  C   UNL     1      43.068 -18.333   2.319  1.00  0.00     0.047 C 
HETATM   19  C   UNL     1      41.347 -16.523   2.484  1.00  0.00     0.047 C 
BRANCH  17  20
HETATM   20  O   UNL     1      43.545 -16.062   1.678  1.00  0.00    -0.389 OA
HETATM   21  H   UNL     1      43.118 -16.217   0.817  1.00  0.00     0.210 HD
ENDBRANCH  17  20
ENDBRANCH  16  17
ENDBRANCH  14  16
ENDBRANCH  10  12
ENDBRANCH   5   6
ENDBRANCH   3   5
BRANCH   1  22
HETATM   22  C   UNL     1      43.008  -9.564  10.695  1.00  0.00     0.034 A 
HETATM   23  C   UNL     1      41.678  -9.735  11.104  1.00  0.00     0.054 A 
HETATM   24  C   UNL     1      41.211  -9.129  12.280  1.00  0.00     0.080 A 
HETATM   25  C   UNL     1      42.091  -8.353  13.070  1.00  0.00     0.010 A 
HETATM   26  C   UNL     1      43.413  -8.169  12.628  1.00  0.00     0.016 A 
HETATM   27  C   UNL     1      43.867  -8.763  11.450  1.00  0.00     0.018 A 
BRANCH  24  28
HETATM   28  O   UNL     1      39.928  -9.291  12.743  1.00  0.00    -0.355 OA
HETATM   29  C   UNL     1      39.475 -10.621  12.969  1.00  0.00     0.210 C 
ENDBRANCH  24  28
BRANCH  25  30
HETATM   30  C   UNL     1      41.663  -7.713  14.310  1.00  0.00     0.013 A 
HETATM   31  C   UNL     1      41.430  -8.237  15.602  1.00  0.00     0.152 A 
HETATM   32  N   UNL     1      41.035  -7.308  16.479  1.00  0.00    -0.187 NA
HETATM   33  N   UNL     1      41.030  -6.179  15.755  1.00  0.00    -0.289 N 
HETATM   34  H   UNL     1      40.767  -5.315  16.216  1.00  0.00     0.188 HD
HETATM   35  C   UNL     1      41.393  -6.366  14.453  1.00  0.00     0.123 A 
ENDBRANCH  25  30
ENDBRANCH   1  22
TORSDOF 9
ENDMDL
