MODEL 1
REMARK VINA RESULT:      -9.4      0.000      0.000
REMARK  6 active torsions:
REMARK  status: ('A' for Active; 'I' for Inactive)
REMARK    1  A    between atoms: C_6  and  N_7 
REMARK    2  A    between atoms: N_7  and  C_8 
REMARK    3  A    between atoms: C_8  and  N_9 
REMARK    4  A    between atoms: C_12  and  C_13 
REMARK    5  A    between atoms: N_15  and  C_16 
REMARK    6  A    between atoms: C_22  and  O_23 
ROOT
HETATM    1  N   UNL     1      43.114 -13.488   5.809  1.00  0.00    -0.358 N 
HETATM    2  C   UNL     1      43.703 -13.177   7.115  1.00  0.00     0.126 C 
HETATM    3  C   UNL     1      44.592 -11.941   7.037  1.00  0.00     0.031 C 
HETATM    4  C   UNL     1      43.835 -10.721   6.495  1.00  0.00     0.043 C 
HETATM    5  C   UNL     1      43.125 -11.072   5.179  1.00  0.00     0.031 C 
HETATM    6  C   UNL     1      42.336 -12.380   5.238  1.00  0.00     0.126 C 
ENDROOT
BRANCH   4   7
HETATM    7  C   UNL     1      42.948 -10.102   7.544  1.00  0.00     0.063 C 
HETATM    8  N   UNL     1      43.381  -9.869   8.787  1.00  0.00    -0.169 NA
HETATM    9  N   UNL     1      42.312  -9.345   9.448  1.00  0.00    -0.211 N 
HETATM   10  C   UNL     1      41.272  -9.063   8.560  1.00  0.00     0.165 C 
HETATM   11  C   UNL     1      41.628  -9.637   7.364  1.00  0.00     0.087 C 
BRANCH   9  12
HETATM   12  C   UNL     1      42.368  -9.161  10.860  1.00  0.00     0.061 A 
HETATM   13  C   UNL     1      41.452  -9.845  11.675  1.00  0.00     0.031 A 
HETATM   14  C   UNL     1      41.489  -9.686  13.063  1.00  0.00     0.002 A 
HETATM   15  C   UNL     1      42.425  -8.835  13.644  1.00  0.00     0.000 A 
HETATM   16  C   UNL     1      43.320  -8.130  12.840  1.00  0.00     0.002 A 
HETATM   17  C   UNL     1      43.290  -8.285  11.450  1.00  0.00     0.031 A 
ENDBRANCH   9  12
BRANCH  10  18
HETATM   18  O   UNL     1      40.185  -8.341   8.836  1.00  0.00    -0.345 OA
HETATM   19  H   UNL     1      40.019  -7.738   8.089  1.00  0.00     0.219 HD
ENDBRANCH  10  18
ENDBRANCH   4   7
BRANCH   1  20
HETATM   20  C   UNL     1      42.653 -14.773   5.543  1.00  0.00     0.174 C 
HETATM   21  S   UNL     1      41.034 -15.212   5.415  1.00  0.00    -0.041 SA
BRANCH  20  22
HETATM   22  N   UNL     1      43.566 -15.761   5.299  1.00  0.00    -0.333 N 
HETATM   23  H   UNL     1      44.486 -15.532   5.660  1.00  0.00     0.168 HD
BRANCH  22  24
HETATM   24  C   UNL     1      43.527 -16.872   4.428  1.00  0.00     0.034 A 
HETATM   25  C   UNL     1      43.851 -18.119   4.977  1.00  0.00     0.036 A 
HETATM   26  C   UNL     1      43.887 -19.285   4.189  1.00  0.00    -0.054 A 
HETATM   27  C   UNL     1      43.617 -19.189   2.812  1.00  0.00    -0.056 A 
HETATM   28  C   UNL     1      44.258 -20.594   4.830  1.00  0.00     0.049 C 
HETATM   29  C   UNL     1      43.641 -20.397   1.916  1.00  0.00     0.049 C 
HETATM   30  C   UNL     1      43.297 -17.938   2.267  1.00  0.00     0.009 A 
HETATM   31  C   UNL     1      43.264 -16.790   3.065  1.00  0.00     0.030 A 
ENDBRANCH  22  24
ENDBRANCH  20  22
ENDBRANCH   1  20
TORSDOF 6
ENDMDL
MODEL 2
REMARK VINA RESULT:      -9.3      2.789     10.226
REMARK  6 active torsions:
REMARK  status: ('A' for Active; 'I' for Inactive)
REMARK    1  A    between atoms: C_6  and  N_7 
REMARK    2  A    between atoms: N_7  and  C_8 
REMARK    3  A    between atoms: C_8  and  N_9 
REMARK    4  A    between atoms: C_12  and  C_13 
REMARK    5  A    between atoms: N_15  and  C_16 
REMARK    6  A    between atoms: C_22  and  O_23 
ROOT
HETATM    1  N   UNL     1      43.298 -12.278   6.747  1.00  0.00    -0.358 N 
HETATM    2  C   UNL     1      43.159 -13.721   6.964  1.00  0.00     0.126 C 
HETATM    3  C   UNL     1      41.779 -14.211   6.542  1.00  0.00     0.031 C 
HETATM    4  C   UNL     1      41.467 -13.864   5.080  1.00  0.00     0.043 C 
HETATM    5  C   UNL     1      41.714 -12.370   4.818  1.00  0.00     0.031 C 
HETATM    6  C   UNL     1      43.053 -11.867   5.357  1.00  0.00     0.126 C 
ENDROOT
BRANCH   4   7
HETATM    7  C   UNL     1      42.165 -14.795   4.123  1.00  0.00     0.063 C 
HETATM    8  N   UNL     1      42.148 -16.121   4.288  1.00  0.00    -0.169 NA
HETATM    9  N   UNL     1      42.900 -16.621   3.269  1.00  0.00    -0.211 N 
HETATM   10  C   UNL     1      43.217 -15.618   2.351  1.00  0.00     0.165 C 
HETATM   11  C   UNL     1      42.843 -14.434   2.939  1.00  0.00     0.087 C 
BRANCH   9  12
HETATM   12  C   UNL     1      43.254 -18.001   3.255  1.00  0.00     0.061 A 
HETATM   13  C   UNL     1      42.907 -18.785   2.143  1.00  0.00     0.031 A 
HETATM   14  C   UNL     1      43.246 -20.139   2.102  1.00  0.00     0.002 A 
HETATM   15  C   UNL     1      43.917 -20.725   3.172  1.00  0.00     0.000 A 
HETATM   16  C   UNL     1      44.240 -19.961   4.293  1.00  0.00     0.002 A 
HETATM   17  C   UNL     1      43.906 -18.603   4.340  1.00  0.00     0.031 A 
ENDBRANCH   9  12
BRANCH  10  18
HETATM   18  O   UNL     1      43.738 -15.807   1.138  1.00  0.00    -0.345 OA
HETATM   19  H   UNL     1      43.026 -15.708   0.479  1.00  0.00     0.219 HD
ENDBRANCH  10  18
ENDBRANCH   4   7
BRANCH   1  20
HETATM   20  C   UNL     1      44.260 -11.559   7.447  1.00  0.00     0.174 C 
HETATM   21  S   UNL     1      45.780 -11.149   6.854  1.00  0.00    -0.041 SA
BRANCH  20  22
HETATM   22  N   UNL     1      43.950 -11.083   8.690  1.00  0.00    -0.333 N 
HETATM   23  H   UNL     1      43.703 -11.825   9.336  1.00  0.00     0.168 HD
BRANCH  22  24
HETATM   24  C   UNL     1      43.653  -9.778   9.141  1.00  0.00     0.034 A 
HETATM   25  C   UNL     1      43.656  -9.570  10.527  1.00  0.00     0.036 A 
HETATM   26  C   UNL     1      43.330  -8.320  11.085  1.00  0.00    -0.054 A 
HETATM   27  C   UNL     1      42.968  -7.262  10.232  1.00  0.00    -0.056 A 
HETATM   28  C   UNL     1      43.332  -8.162  12.581  1.00  0.00     0.049 C 
HETATM   29  C   UNL     1      42.609  -5.903  10.768  1.00  0.00     0.049 C 
HETATM   30  C   UNL     1      42.965  -7.475   8.847  1.00  0.00     0.009 A 
HETATM   31  C   UNL     1      43.293  -8.724   8.308  1.00  0.00     0.030 A 
ENDBRANCH  22  24
ENDBRANCH  20  22
ENDBRANCH   1  20
TORSDOF 6
ENDMDL
MODEL 3
REMARK VINA RESULT:      -9.3      4.708      8.083
REMARK  6 active torsions:
REMARK  status: ('A' for Active; 'I' for Inactive)
REMARK    1  A    between atoms: C_6  and  N_7 
REMARK    2  A    between atoms: N_7  and  C_8 
REMARK    3  A    between atoms: C_8  and  N_9 
REMARK    4  A    between atoms: C_12  and  C_13 
REMARK    5  A    between atoms: N_15  and  C_16 
REMARK    6  A    between atoms: C_22  and  O_23 
ROOT
HETATM    1  N   UNL     1      41.849 -13.907   5.253  1.00  0.00    -0.358 N 
HETATM    2  C   UNL     1      40.634 -14.186   4.480  1.00  0.00     0.126 C 
HETATM    3  C   UNL     1      39.692 -12.988   4.485  1.00  0.00     0.031 C 
HETATM    4  C   UNL     1      40.373 -11.718   3.957  1.00  0.00     0.043 C 
HETATM    5  C   UNL     1      41.702 -11.479   4.689  1.00  0.00     0.031 C 
HETATM    6  C   UNL     1      42.583 -12.724   4.783  1.00  0.00     0.126 C 
ENDROOT
BRANCH   4   7
HETATM    7  C   UNL     1      40.473 -11.721   2.453  1.00  0.00     0.063 C 
HETATM    8  N   UNL     1      39.570 -12.338   1.686  1.00  0.00    -0.169 NA
HETATM    9  N   UNL     1      40.001 -12.160   0.407  1.00  0.00    -0.211 N 
HETATM   10  C   UNL     1      41.065 -11.256   0.366  1.00  0.00     0.165 C 
HETATM   11  C   UNL     1      41.440 -11.053   1.672  1.00  0.00     0.087 C 
BRANCH   9  12
HETATM   12  C   UNL     1      39.370 -12.860  -0.662  1.00  0.00     0.061 A 
HETATM   13  C   UNL     1      38.322 -12.240  -1.361  1.00  0.00     0.031 A 
HETATM   14  C   UNL     1      37.690 -12.903  -2.416  1.00  0.00     0.002 A 
HETATM   15  C   UNL     1      38.086 -14.190  -2.770  1.00  0.00     0.000 A 
HETATM   16  C   UNL     1      39.107 -14.824  -2.063  1.00  0.00     0.002 A 
HETATM   17  C   UNL     1      39.746 -14.166  -1.007  1.00  0.00     0.031 A 
ENDBRANCH   9  12
BRANCH  10  18
HETATM   18  O   UNL     1      41.566 -10.690  -0.732  1.00  0.00    -0.345 OA
HETATM   19  H   UNL     1      41.509  -9.722  -0.632  1.00  0.00     0.219 HD
ENDBRANCH  10  18
ENDBRANCH   4   7
BRANCH   1  20
HETATM   20  C   UNL     1      42.613 -14.956   5.749  1.00  0.00     0.174 C 
HETATM   21  S   UNL     1      42.441 -15.640   7.277  1.00  0.00    -0.041 SA
BRANCH  20  22
HETATM   22  N   UNL     1      43.540 -15.539   4.930  1.00  0.00    -0.333 N 
HETATM   23  H   UNL     1      44.300 -14.908   4.699  1.00  0.00     0.168 HD
BRANCH  22  24
HETATM   24  C   UNL     1      43.489 -16.719   4.156  1.00  0.00     0.034 A 
HETATM   25  C   UNL     1      43.913 -17.902   4.775  1.00  0.00     0.036 A 
HETATM   26  C   UNL     1      43.946 -19.126   4.082  1.00  0.00    -0.054 A 
HETATM   27  C   UNL     1      43.569 -19.157   2.727  1.00  0.00    -0.056 A 
HETATM   28  C   UNL     1      44.426 -20.361   4.794  1.00  0.00     0.049 C 
HETATM   29  C   UNL     1      43.583 -20.433   1.931  1.00  0.00     0.049 C 
HETATM   30  C   UNL     1      43.149 -17.970   2.111  1.00  0.00     0.009 A 
HETATM   31  C   UNL     1      43.121 -16.762   2.815  1.00  0.00     0.030 A 
ENDBRANCH  22  24
ENDBRANCH  20  22
ENDBRANCH   1  20
TORSDOF 6
ENDMDL
MODEL 4
REMARK VINA RESULT:      -9.2      2.612      9.987
REMARK  6 active torsions:
REMARK  status: ('A' for Active; 'I' for Inactive)
REMARK    1  A    between atoms: C_6  and  N_7 
REMARK    2  A    between atoms: N_7  and  C_8 
REMARK    3  A    between atoms: C_8  and  N_9 
REMARK    4  A    between atoms: C_12  and  C_13 
REMARK    5  A    between atoms: N_15  and  C_16 
REMARK    6  A    between atoms: C_22  and  O_23 
ROOT
HETATM    1  N   UNL     1      43.330 -10.855   6.288  1.00  0.00    -0.358 N 
HETATM    2  C   UNL     1      41.915 -11.161   6.058  1.00  0.00     0.126 C 
HETATM    3  C   UNL     1      41.554 -11.017   4.584  1.00  0.00     0.031 C 
HETATM    4  C   UNL     1      42.437 -11.895   3.686  1.00  0.00     0.043 C 
HETATM    5  C   UNL     1      43.922 -11.657   3.999  1.00  0.00     0.031 C 
HETATM    6  C   UNL     1      44.246 -11.683   5.493  1.00  0.00     0.126 C 
ENDROOT
BRANCH   4   7
HETATM    7  C   UNL     1      42.008 -13.340   3.721  1.00  0.00     0.063 C 
HETATM    8  N   UNL     1      42.895 -14.339   3.737  1.00  0.00    -0.169 NA
HETATM    9  N   UNL     1      42.152 -15.480   3.732  1.00  0.00    -0.211 N 
HETATM   10  C   UNL     1      40.800 -15.189   3.919  1.00  0.00     0.165 C 
HETATM   11  C   UNL     1      40.686 -13.824   3.808  1.00  0.00     0.087 C 
BRANCH   9  12
HETATM   12  C   UNL     1      42.787 -16.742   3.549  1.00  0.00     0.061 A 
HETATM   13  C   UNL     1      43.702 -17.194   4.514  1.00  0.00     0.031 A 
HETATM   14  C   UNL     1      44.335 -18.430   4.361  1.00  0.00     0.002 A 
HETATM   15  C   UNL     1      44.073 -19.215   3.241  1.00  0.00     0.000 A 
HETATM   16  C   UNL     1      43.188 -18.762   2.264  1.00  0.00     0.002 A 
HETATM   17  C   UNL     1      42.549 -17.526   2.411  1.00  0.00     0.031 A 
ENDBRANCH   9  12
BRANCH  10  18
HETATM   18  O   UNL     1      39.842 -16.076   4.192  1.00  0.00    -0.345 OA
HETATM   19  H   UNL     1      38.988 -15.704   3.905  1.00  0.00     0.219 HD
ENDBRANCH  10  18
ENDBRANCH   4   7
BRANCH   1  20
HETATM   20  C   UNL     1      43.764 -10.492   7.558  1.00  0.00     0.174 C 
HETATM   21  S   UNL     1      45.356 -10.140   7.971  1.00  0.00    -0.041 SA
BRANCH  20  22
HETATM   22  N   UNL     1      42.836 -10.339   8.551  1.00  0.00    -0.333 N 
HETATM   23  H   UNL     1      41.897 -10.554   8.236  1.00  0.00     0.168 HD
BRANCH  22  24
HETATM   24  C   UNL     1      42.911  -9.695   9.805  1.00  0.00     0.034 A 
HETATM   25  C   UNL     1      42.664  -8.316   9.825  1.00  0.00     0.036 A 
HETATM   26  C   UNL     1      42.756  -7.567  11.013  1.00  0.00    -0.054 A 
HETATM   27  C   UNL     1      43.131  -8.216  12.204  1.00  0.00    -0.056 A 
HETATM   28  C   UNL     1      42.496  -6.087  10.970  1.00  0.00     0.049 C 
HETATM   29  C   UNL     1      43.248  -7.471  13.506  1.00  0.00     0.049 C 
HETATM   30  C   UNL     1      43.381  -9.594  12.179  1.00  0.00     0.009 A 
HETATM   31  C   UNL     1      43.283 -10.324  10.989  1.00  0.00     0.030 A 
ENDBRANCH  22  24
ENDBRANCH  20  22
ENDBRANCH   1  20
TORSDOF 6
ENDMDL
MODEL 5
REMARK VINA RESULT:      -9.0      2.270      3.290
REMARK  6 active torsions:
REMARK  status: ('A' for Active; 'I' for Inactive)
REMARK    1  A    between atoms: C_6  and  N_7 
REMARK    2  A    between atoms: N_7  and  C_8 
REMARK    3  A    between atoms: C_8  and  N_9 
REMARK    4  A    between atoms: C_12  and  C_13 
REMARK    5  A    between atoms: N_15  and  C_16 
REMARK    6  A    between atoms: C_22  and  O_23 
ROOT
HETATM    1  N   UNL     1      41.567 -13.550   2.877  1.00  0.00    -0.358 N 
HETATM    2  C   UNL     1      42.734 -12.681   2.693  1.00  0.00     0.126 C 
HETATM    3  C   UNL     1      42.357 -11.213   2.850  1.00  0.00     0.031 C 
HETATM    4  C   UNL     1      41.696 -10.930   4.206  1.00  0.00     0.043 C 
HETATM    5  C   UNL     1      40.538 -11.909   4.453  1.00  0.00     0.031 C 
HETATM    6  C   UNL     1      40.899 -13.368   4.173  1.00  0.00     0.126 C 
ENDROOT
BRANCH   4   7
HETATM    7  C   UNL     1      42.710 -10.859   5.318  1.00  0.00     0.063 C 
HETATM    8  N   UNL     1      42.397 -10.391   6.530  1.00  0.00    -0.169 NA
HETATM    9  N   UNL     1      43.554 -10.446   7.247  1.00  0.00    -0.211 N 
HETATM   10  C   UNL     1      44.539 -11.139   6.541  1.00  0.00     0.165 C 
HETATM   11  C   UNL     1      44.045 -11.315   5.272  1.00  0.00     0.087 C 
BRANCH   9  12
HETATM   12  C   UNL     1      43.625  -9.836   8.533  1.00  0.00     0.061 A 
HETATM   13  C   UNL     1      43.402  -8.455   8.647  1.00  0.00     0.031 A 
HETATM   14  C   UNL     1      43.460  -7.832   9.897  1.00  0.00     0.002 A 
HETATM   15  C   UNL     1      43.756  -8.578  11.035  1.00  0.00     0.000 A 
HETATM   16  C   UNL     1      44.007  -9.945  10.927  1.00  0.00     0.002 A 
HETATM   17  C   UNL     1      43.948 -10.575   9.680  1.00  0.00     0.031 A 
ENDBRANCH   9  12
BRANCH  10  18
HETATM   18  O   UNL     1      45.699 -11.569   7.040  1.00  0.00    -0.345 OA
HETATM   19  H   UNL     1      45.836 -12.490   6.751  1.00  0.00     0.219 HD
ENDBRANCH  10  18
ENDBRANCH   4   7
BRANCH   1  20
HETATM   20  C   UNL     1      41.572 -14.839   2.356  1.00  0.00     0.174 C 
HETATM   21  S   UNL     1      40.234 -15.623   1.705  1.00  0.00    -0.041 SA
BRANCH  20  22
HETATM   22  N   UNL     1      42.756 -15.520   2.297  1.00  0.00    -0.333 N 
HETATM   23  H   UNL     1      43.303 -15.270   1.480  1.00  0.00     0.168 HD
BRANCH  22  24
HETATM   24  C   UNL     1      43.210 -16.663   2.990  1.00  0.00     0.034 A 
HETATM   25  C   UNL     1      43.240 -17.867   2.275  1.00  0.00     0.036 A 
HETATM   26  C   UNL     1      43.631 -19.075   2.881  1.00  0.00    -0.054 A 
HETATM   27  C   UNL     1      43.976 -19.077   4.245  1.00  0.00    -0.056 A 
HETATM   28  C   UNL     1      43.628 -20.340   2.068  1.00  0.00     0.049 C 
HETATM   29  C   UNL     1      44.402 -20.336   4.951  1.00  0.00     0.049 C 
HETATM   30  C   UNL     1      43.941 -17.871   4.957  1.00  0.00     0.009 A 
HETATM   31  C   UNL     1      43.550 -16.678   4.338  1.00  0.00     0.030 A 
ENDBRANCH  22  24
ENDBRANCH  20  22
ENDBRANCH   1  20
TORSDOF 6
ENDMDL
MODEL 6
REMARK VINA RESULT:      -9.0      1.995      3.142
REMARK  6 active torsions:
REMARK  status: ('A' for Active; 'I' for Inactive)
REMARK    1  A    between atoms: C_6  and  N_7 
REMARK    2  A    between atoms: N_7  and  C_8 
REMARK    3  A    between atoms: C_8  and  N_9 
REMARK    4  A    between atoms: C_12  and  C_13 
REMARK    5  A    between atoms: N_15  and  C_16 
REMARK    6  A    between atoms: C_22  and  O_23 
ROOT
HETATM    1  N   UNL     1      42.472 -11.115   6.381  1.00  0.00    -0.358 N 
HETATM    2  C   UNL     1      43.664 -11.543   7.119  1.00  0.00     0.126 C 
HETATM    3  C   UNL     1      44.566 -10.357   7.443  1.00  0.00     0.031 C 
HETATM    4  C   UNL     1      43.824  -9.266   8.227  1.00  0.00     0.043 C 
HETATM    5  C   UNL     1      42.516  -8.890   7.513  1.00  0.00     0.031 C 
HETATM    6  C   UNL     1      41.681 -10.096   7.086  1.00  0.00     0.126 C 
ENDROOT
BRANCH   4   7
HETATM    7  C   UNL     1      43.666  -9.632   9.680  1.00  0.00     0.063 C 
HETATM    8  N   UNL     1      43.026  -8.837  10.543  1.00  0.00    -0.169 NA
HETATM    9  N   UNL     1      43.113  -9.467  11.747  1.00  0.00    -0.211 N 
HETATM   10  C   UNL     1      43.631 -10.755  11.593  1.00  0.00     0.165 C 
HETATM   11  C   UNL     1      44.083 -10.830  10.298  1.00  0.00     0.087 C 
BRANCH   9  12
HETATM   12  C   UNL     1      42.702  -8.796  12.934  1.00  0.00     0.061 A 
HETATM   13  C   UNL     1      41.562  -9.250  13.616  1.00  0.00     0.031 A 
HETATM   14  C   UNL     1      41.139  -8.613  14.785  1.00  0.00     0.002 A 
HETATM   15  C   UNL     1      41.838  -7.512  15.273  1.00  0.00     0.000 A 
HETATM   16  C   UNL     1      42.955  -7.037  14.586  1.00  0.00     0.002 A 
HETATM   17  C   UNL     1      43.385  -7.671  13.417  1.00  0.00     0.031 A 
ENDBRANCH   9  12
BRANCH  10  18
HETATM   18  O   UNL     1      43.634 -11.710  12.523  1.00  0.00    -0.345 OA
HETATM   19  H   UNL     1      43.243 -11.347  13.339  1.00  0.00     0.219 HD
ENDBRANCH  10  18
ENDBRANCH   4   7
BRANCH   1  20
HETATM   20  C   UNL     1      41.762 -12.032   5.615  1.00  0.00     0.174 C 
HETATM   21  S   UNL     1      40.129 -12.389   5.801  1.00  0.00    -0.041 SA
BRANCH  20  22
HETATM   22  N   UNL     1      42.402 -12.661   4.583  1.00  0.00    -0.333 N 
HETATM   23  H   UNL     1      42.406 -12.103   3.736  1.00  0.00     0.168 HD
BRANCH  22  24
HETATM   24  C   UNL     1      42.796 -14.006   4.411  1.00  0.00     0.034 A 
HETATM   25  C   UNL     1      42.854 -14.486   3.097  1.00  0.00     0.036 A 
HETATM   26  C   UNL     1      43.192 -15.823   2.815  1.00  0.00    -0.054 A 
HETATM   27  C   UNL     1      43.451 -16.704   3.881  1.00  0.00    -0.056 A 
HETATM   28  C   UNL     1      43.221 -16.287   1.385  1.00  0.00     0.049 C 
HETATM   29  C   UNL     1      43.817 -18.144   3.645  1.00  0.00     0.049 C 
HETATM   30  C   UNL     1      43.389 -16.219   5.194  1.00  0.00     0.009 A 
HETATM   31  C   UNL     1      43.053 -14.886   5.457  1.00  0.00     0.030 A 
ENDBRANCH  22  24
ENDBRANCH  20  22
ENDBRANCH   1  20
TORSDOF 6
ENDMDL
MODEL 7
REMARK VINA RESULT:      -8.8      4.866      8.148
REMARK  6 active torsions:
REMARK  status: ('A' for Active; 'I' for Inactive)
REMARK    1  A    between atoms: C_6  and  N_7 
REMARK    2  A    between atoms: N_7  and  C_8 
REMARK    3  A    between atoms: C_8  and  N_9 
REMARK    4  A    between atoms: C_12  and  C_13 
REMARK    5  A    between atoms: N_15  and  C_16 
REMARK    6  A    between atoms: C_22  and  O_23 
ROOT
HETATM    1  N   UNL     1      41.367 -10.354   2.291  1.00  0.00    -0.358 N 
HETATM    2  C   UNL     1      42.528 -11.192   2.604  1.00  0.00     0.126 C 
HETATM    3  C   UNL     1      42.860 -11.137   4.091  1.00  0.00     0.031 C 
HETATM    4  C   UNL     1      41.665 -11.543   4.964  1.00  0.00     0.043 C 
HETATM    5  C   UNL     1      40.415 -10.743   4.566  1.00  0.00     0.031 C 
HETATM    6  C   UNL     1      40.165 -10.706   3.058  1.00  0.00     0.126 C 
ENDROOT
BRANCH   4   7
HETATM    7  C   UNL     1      41.474 -13.038   4.991  1.00  0.00     0.063 C 
HETATM    8  N   UNL     1      42.426 -13.879   4.577  1.00  0.00    -0.169 NA
HETATM    9  N   UNL     1      41.892 -15.124   4.714  1.00  0.00    -0.211 N 
HETATM   10  C   UNL     1      40.680 -15.067   5.405  1.00  0.00     0.165 C 
HETATM   11  C   UNL     1      40.355 -13.735   5.494  1.00  0.00     0.087 C 
BRANCH   9  12
HETATM   12  C   UNL     1      42.573 -16.254   4.177  1.00  0.00     0.061 A 
HETATM   13  C   UNL     1      42.305 -16.650   2.857  1.00  0.00     0.031 A 
HETATM   14  C   UNL     1      42.962 -17.752   2.304  1.00  0.00     0.002 A 
HETATM   15  C   UNL     1      43.877 -18.474   3.066  1.00  0.00     0.000 A 
HETATM   16  C   UNL     1      44.128 -18.105   4.387  1.00  0.00     0.002 A 
HETATM   17  C   UNL     1      43.475 -17.002   4.946  1.00  0.00     0.031 A 
ENDBRANCH   9  12
BRANCH  10  18
HETATM   18  O   UNL     1      40.018 -16.111   5.905  1.00  0.00    -0.345 OA
HETATM   19  H   UNL     1      39.475 -15.802   6.653  1.00  0.00     0.219 HD
ENDBRANCH  10  18
ENDBRANCH   4   7
BRANCH   1  20
HETATM   20  C   UNL     1      41.165  -9.906   0.990  1.00  0.00     0.174 C 
HETATM   21  S   UNL     1      40.576  -8.386   0.571  1.00  0.00    -0.041 SA
BRANCH  20  22
HETATM   22  N   UNL     1      41.524 -10.720  -0.049  1.00  0.00    -0.333 N 
HETATM   23  H   UNL     1      42.341 -10.376  -0.541  1.00  0.00     0.168 HD
BRANCH  22  24
HETATM   24  C   UNL     1      40.826 -11.757  -0.704  1.00  0.00     0.034 A 
HETATM   25  C   UNL     1      40.635 -12.945   0.014  1.00  0.00     0.036 A 
HETATM   26  C   UNL     1      39.992 -14.058  -0.559  1.00  0.00    -0.054 A 
HETATM   27  C   UNL     1      39.554 -13.984  -1.894  1.00  0.00    -0.056 A 
HETATM   28  C   UNL     1      39.830 -15.312   0.255  1.00  0.00     0.049 C 
HETATM   29  C   UNL     1      38.861 -15.139  -2.563  1.00  0.00     0.049 C 
HETATM   30  C   UNL     1      39.750 -12.795  -2.609  1.00  0.00     0.009 A 
HETATM   31  C   UNL     1      40.390 -11.697  -2.024  1.00  0.00     0.030 A 
ENDBRANCH  22  24
ENDBRANCH  20  22
ENDBRANCH   1  20
TORSDOF 6
ENDMDL
MODEL 8
REMARK VINA RESULT:      -8.8      2.865      4.049
REMARK  6 active torsions:
REMARK  status: ('A' for Active; 'I' for Inactive)
REMARK    1  A    between atoms: C_6  and  N_7 
REMARK    2  A    between atoms: N_7  and  C_8 
REMARK    3  A    between atoms: C_8  and  N_9 
REMARK    4  A    between atoms: C_12  and  C_13 
REMARK    5  A    between atoms: N_15  and  C_16 
REMARK    6  A    between atoms: C_22  and  O_23 
ROOT
HETATM    1  N   UNL     1      40.722 -13.100   2.178  1.00  0.00    -0.358 N 
HETATM    2  C   UNL     1      42.141 -12.750   2.298  1.00  0.00     0.126 C 
HETATM    3  C   UNL     1      42.316 -11.275   2.641  1.00  0.00     0.031 C 
HETATM    4  C   UNL     1      41.567 -10.889   3.924  1.00  0.00     0.043 C 
HETATM    5  C   UNL     1      40.103 -11.351   3.849  1.00  0.00     0.031 C 
HETATM    6  C   UNL     1      39.940 -12.798   3.384  1.00  0.00     0.126 C 
ENDROOT
BRANCH   4   7
HETATM    7  C   UNL     1      42.306 -11.336   5.159  1.00  0.00     0.063 C 
HETATM    8  N   UNL     1      42.739 -10.466   6.075  1.00  0.00    -0.169 NA
HETATM    9  N   UNL     1      43.380 -11.218   7.012  1.00  0.00    -0.211 N 
HETATM   10  C   UNL     1      43.169 -12.579   6.781  1.00  0.00     0.165 C 
HETATM   11  C   UNL     1      42.574 -12.666   5.545  1.00  0.00     0.087 C 
BRANCH   9  12
HETATM   12  C   UNL     1      44.137 -10.584   8.039  1.00  0.00     0.061 A 
HETATM   13  C   UNL     1      45.356  -9.971   7.710  1.00  0.00     0.031 A 
HETATM   14  C   UNL     1      46.116  -9.338   8.697  1.00  0.00     0.002 A 
HETATM   15  C   UNL     1      45.674  -9.325  10.018  1.00  0.00     0.000 A 
HETATM   16  C   UNL     1      44.478  -9.957  10.359  1.00  0.00     0.002 A 
HETATM   17  C   UNL     1      43.712 -10.591   9.375  1.00  0.00     0.031 A 
ENDBRANCH   9  12
BRANCH  10  18
HETATM   18  O   UNL     1      43.457 -13.568   7.628  1.00  0.00    -0.345 OA
HETATM   19  H   UNL     1      42.799 -13.559   8.347  1.00  0.00     0.219 HD
ENDBRANCH  10  18
ENDBRANCH   4   7
BRANCH   1  20
HETATM   20  C   UNL     1      40.344 -14.227   1.458  1.00  0.00     0.174 C 
HETATM   21  S   UNL     1      40.006 -14.254  -0.190  1.00  0.00    -0.041 SA
BRANCH  20  22
HETATM   22  N   UNL     1      40.298 -15.433   2.101  1.00  0.00    -0.333 N 
HETATM   23  H   UNL     1      39.349 -15.711   2.329  1.00  0.00     0.168 HD
BRANCH  22  24
HETATM   24  C   UNL     1      41.308 -16.197   2.725  1.00  0.00     0.034 A 
HETATM   25  C   UNL     1      41.371 -16.141   4.124  1.00  0.00     0.036 A 
HETATM   26  C   UNL     1      42.367 -16.826   4.844  1.00  0.00    -0.054 A 
HETATM   27  C   UNL     1      43.337 -17.564   4.141  1.00  0.00    -0.056 A 
HETATM   28  C   UNL     1      42.395 -16.716   6.344  1.00  0.00     0.049 C 
HETATM   29  C   UNL     1      44.426 -18.318   4.854  1.00  0.00     0.049 C 
HETATM   30  C   UNL     1      43.271 -17.614   2.742  1.00  0.00     0.009 A 
HETATM   31  C   UNL     1      42.274 -16.927   2.041  1.00  0.00     0.030 A 
ENDBRANCH  22  24
ENDBRANCH  20  22
ENDBRANCH   1  20
TORSDOF 6
ENDMDL
MODEL 9
REMARK VINA RESULT:      -8.7      2.614      3.671
REMARK  6 active torsions:
REMARK  status: ('A' for Active; 'I' for Inactive)
REMARK    1  A    between atoms: C_6  and  N_7 
REMARK    2  A    between atoms: N_7  and  C_8 
REMARK    3  A    between atoms: C_8  and  N_9 
REMARK    4  A    between atoms: C_12  and  C_13 
REMARK    5  A    between atoms: N_15  and  C_16 
REMARK    6  A    between atoms: C_22  and  O_23 
ROOT
HETATM    1  N   UNL     1      40.961 -14.164   3.679  1.00  0.00    -0.358 N 
HETATM    2  C   UNL     1      40.472 -12.836   3.295  1.00  0.00     0.126 C 
HETATM    3  C   UNL     1      39.345 -12.379   4.214  1.00  0.00     0.031 C 
HETATM    4  C   UNL     1      39.769 -12.379   5.689  1.00  0.00     0.043 C 
HETATM    5  C   UNL     1      40.383 -13.735   6.070  1.00  0.00     0.031 C 
HETATM    6  C   UNL     1      41.425 -14.238   5.071  1.00  0.00     0.126 C 
ENDROOT
BRANCH   4   7
HETATM    7  C   UNL     1      40.622 -11.183   6.026  1.00  0.00     0.063 C 
HETATM    8  N   UNL     1      41.870 -11.313   6.486  1.00  0.00    -0.169 NA
HETATM    9  N   UNL     1      42.307 -10.043   6.707  1.00  0.00    -0.211 N 
HETATM   10  C   UNL     1      41.401  -9.113   6.192  1.00  0.00     0.165 C 
HETATM   11  C   UNL     1      40.277  -9.826   5.851  1.00  0.00     0.087 C 
BRANCH   9  12
HETATM   12  C   UNL     1      43.538  -9.821   7.388  1.00  0.00     0.061 A 
HETATM   13  C   UNL     1      43.675  -8.685   8.200  1.00  0.00     0.031 A 
HETATM   14  C   UNL     1      44.871  -8.446   8.883  1.00  0.00     0.002 A 
HETATM   15  C   UNL     1      45.940  -9.328   8.748  1.00  0.00     0.000 A 
HETATM   16  C   UNL     1      45.822 -10.444   7.921  1.00  0.00     0.002 A 
HETATM   17  C   UNL     1      44.628 -10.690   7.236  1.00  0.00     0.031 A 
ENDBRANCH   9  12
BRANCH  10  18
HETATM   18  O   UNL     1      41.627  -7.808   6.037  1.00  0.00    -0.345 OA
HETATM   19  H   UNL     1      40.807  -7.391   5.714  1.00  0.00     0.219 HD
ENDBRANCH  10  18
ENDBRANCH   4   7
BRANCH   1  20
HETATM   20  C   UNL     1      41.643 -14.947   2.754  1.00  0.00     0.174 C 
HETATM   21  S   UNL     1      41.097 -15.309   1.204  1.00  0.00    -0.041 SA
BRANCH  20  22
HETATM   22  N   UNL     1      42.884 -15.419   3.080  1.00  0.00    -0.333 N 
HETATM   23  H   UNL     1      43.626 -14.824   2.727  1.00  0.00     0.168 HD
BRANCH  22  24
HETATM   24  C   UNL     1      43.307 -16.678   3.559  1.00  0.00     0.034 A 
HETATM   25  C   UNL     1      43.262 -17.747   2.655  1.00  0.00     0.036 A 
HETATM   26  C   UNL     1      43.618 -19.053   3.040  1.00  0.00    -0.054 A 
HETATM   27  C   UNL     1      44.002 -19.295   4.372  1.00  0.00    -0.056 A 
HETATM   28  C   UNL     1      43.534 -20.165   2.030  1.00  0.00     0.049 C 
HETATM   29  C   UNL     1      44.393 -20.668   4.845  1.00  0.00     0.049 C 
HETATM   30  C   UNL     1      44.041 -18.222   5.273  1.00  0.00     0.009 A 
HETATM   31  C   UNL     1      43.686 -16.930   4.873  1.00  0.00     0.030 A 
ENDBRANCH  22  24
ENDBRANCH  20  22
ENDBRANCH   1  20
TORSDOF 6
ENDMDL
MODEL 10
REMARK VINA RESULT:      -8.5      3.123     10.165
REMARK  6 active torsions:
REMARK  status: ('A' for Active; 'I' for Inactive)
REMARK    1  A    between atoms: C_6  and  N_7 
REMARK    2  A    between atoms: N_7  and  C_8 
REMARK    3  A    between atoms: C_8  and  N_9 
REMARK    4  A    between atoms: C_12  and  C_13 
REMARK    5  A    between atoms: N_15  and  C_16 
REMARK    6  A    between atoms: C_22  and  O_23 
ROOT
HETATM    1  N   UNL     1      43.160 -12.135   6.556  1.00  0.00    -0.358 N 
HETATM    2  C   UNL     1      42.998 -13.572   6.800  1.00  0.00     0.126 C 
HETATM    3  C   UNL     1      41.624 -14.054   6.349  1.00  0.00     0.031 C 
HETATM    4  C   UNL     1      41.359 -13.736   4.871  1.00  0.00     0.043 C 
HETATM    5  C   UNL     1      41.633 -12.251   4.585  1.00  0.00     0.031 C 
HETATM    6  C   UNL     1      42.962 -11.753   5.152  1.00  0.00     0.126 C 
ENDROOT
BRANCH   4   7
HETATM    7  C   UNL     1      42.073 -14.696   3.955  1.00  0.00     0.063 C 
HETATM    8  N   UNL     1      42.081 -16.013   4.180  1.00  0.00    -0.169 NA
HETATM    9  N   UNL     1      42.841 -16.545   3.183  1.00  0.00    -0.211 N 
HETATM   10  C   UNL     1      43.137 -15.578   2.220  1.00  0.00     0.165 C 
HETATM   11  C   UNL     1      42.742 -14.376   2.754  1.00  0.00     0.087 C 
BRANCH   9  12
HETATM   12  C   UNL     1      43.220 -17.917   3.231  1.00  0.00     0.061 A 
HETATM   13  C   UNL     1      42.885 -18.756   2.156  1.00  0.00     0.031 A 
HETATM   14  C   UNL     1      43.249 -20.105   2.175  1.00  0.00     0.002 A 
HETATM   15  C   UNL     1      43.933 -20.629   3.269  1.00  0.00     0.000 A 
HETATM   16  C   UNL     1      44.245 -19.809   4.353  1.00  0.00     0.002 A 
HETATM   17  C   UNL     1      43.885 -18.457   4.340  1.00  0.00     0.031 A 
ENDBRANCH   9  12
BRANCH  10  18
HETATM   18  O   UNL     1      43.659 -15.812   1.015  1.00  0.00    -0.345 OA
HETATM   19  H   UNL     1      43.696 -16.776   0.878  1.00  0.00     0.219 HD
ENDBRANCH  10  18
ENDBRANCH   4   7
BRANCH   1  20
HETATM   20  C   UNL     1      44.111 -11.414   7.269  1.00  0.00     0.174 C 
HETATM   21  S   UNL     1      45.707 -11.181   6.789  1.00  0.00    -0.041 SA
BRANCH  20  22
HETATM   22  N   UNL     1      43.730 -10.780   8.419  1.00  0.00    -0.333 N 
HETATM   23  H   UNL     1      43.530 -11.433   9.169  1.00  0.00     0.168 HD
BRANCH  22  24
HETATM   24  C   UNL     1      43.314  -9.452   8.658  1.00  0.00     0.034 A 
HETATM   25  C   UNL     1      41.988  -9.136   8.333  1.00  0.00     0.036 A 
HETATM   26  C   UNL     1      41.483  -7.831   8.488  1.00  0.00    -0.054 A 
HETATM   27  C   UNL     1      42.337  -6.816   8.957  1.00  0.00    -0.056 A 
HETATM   28  C   UNL     1      40.056  -7.547   8.107  1.00  0.00     0.049 C 
HETATM   29  C   UNL     1      41.856  -5.403   9.144  1.00  0.00     0.049 C 
HETATM   30  C   UNL     1      43.663  -7.138   9.277  1.00  0.00     0.009 A 
HETATM   31  C   UNL     1      44.149  -8.440   9.118  1.00  0.00     0.030 A 
ENDBRANCH  22  24
ENDBRANCH  20  22
ENDBRANCH   1  20
TORSDOF 6
ENDMDL
