MODEL 1
REMARK VINA RESULT:      -7.9      0.000      0.000
REMARK  11 active torsions:
REMARK  status: ('A' for Active; 'I' for Inactive)
REMARK    1  A    between atoms: C_4  and  C_5 
REMARK    2  A    between atoms: C_5  and  N_6 
REMARK    3  A    between atoms: C_7  and  S_8 
REMARK    4  A    between atoms: C_9  and  C_10 
REMARK       I    between atoms: C_10  and  N_11 
REMARK    5  A    between atoms: N_11  and  C_12 
REMARK    6  A    between atoms: C_15  and  O_16 
REMARK    7  A    between atoms: O_16  and  C_17 
REMARK    8  A    between atoms: C_27  and  C_28 
REMARK       I    between atoms: C_28  and  N_29 
REMARK    9  A    between atoms: N_29  and  C_30 
REMARK   10  A    between atoms: C_30  and  C_31 
REMARK   11  A    between atoms: C_31  and  O_32 
ROOT
HETATM    1  N   UNL     1      41.985 -15.019   4.508  1.00  0.00    -0.321 N 
HETATM    2  C   UNL     1      42.614 -14.191   5.458  1.00  0.00     0.104 A 
HETATM    3  C   UNL     1      42.818 -12.935   4.881  1.00  0.00     0.142 A 
HETATM    4  N   UNL     1      42.299 -13.084   3.590  1.00  0.00    -0.301 N 
HETATM    5  C   UNL     1      41.801 -14.300   3.395  1.00  0.00     0.116 A 
HETATM    6  C   UNL     1      42.238 -12.041   2.528  1.00  0.00     0.100 A 
HETATM    7  C   UNL     1      41.638 -12.433   1.335  1.00  0.00     0.035 A 
HETATM    8  C   UNL     1      41.137 -13.728   1.172  1.00  0.00     0.036 A 
HETATM    9  C   UNL     1      41.212 -14.674   2.199  1.00  0.00     0.066 A 
ENDROOT
BRANCH   3  10
HETATM   10  C   UNL     1      43.427 -11.710   5.392  1.00  0.00     0.276 C 
HETATM   11  N   UNL     1      42.721 -11.140   6.443  1.00  0.00    -0.322 N 
HETATM   12  H   UNL     1      41.899 -11.618   6.795  1.00  0.00     0.169 HD
HETATM   13  O   UNL     1      44.446 -11.207   4.921  1.00  0.00    -0.266 OA
BRANCH  11  14
HETATM   14  C   UNL     1      43.014  -9.942   7.137  1.00  0.00     0.035 A 
HETATM   15  C   UNL     1      44.080  -9.775   8.020  1.00  0.00     0.032 A 
HETATM   16  C   UNL     1      44.286  -8.544   8.655  1.00  0.00     0.039 A 
HETATM   17  C   UNL     1      43.434  -7.461   8.426  1.00  0.00     0.075 A 
HETATM   18  C   UNL     1      42.371  -7.624   7.544  1.00  0.00     0.039 A 
HETATM   19  C   UNL     1      42.165  -8.853   6.904  1.00  0.00     0.032 A 
BRANCH  17  20
HETATM   20  O   UNL     1      43.754  -6.329   9.116  1.00  0.00    -0.290 OA
BRANCH  20  21
HETATM   21  C   UNL     1      42.830  -5.841  10.081  1.00  0.00     0.505 C 
HETATM   22  F   UNL     1      42.847  -6.638  11.177  1.00  0.00    -0.184 F 
HETATM   23  F   UNL     1      43.181  -4.589  10.463  1.00  0.00    -0.184 F 
ENDBRANCH  20  21
ENDBRANCH  17  20
ENDBRANCH  11  14
ENDBRANCH   3  10
BRANCH   2  24
HETATM   24  S   UNL     1      43.080 -14.678   7.085  1.00  0.00    -0.123 SA
HETATM   25  H   UNL     1      43.166 -16.008   6.954  1.00  0.00     0.108 HD
ENDBRANCH   2  24
BRANCH   1  26
HETATM   26  C   UNL     1      41.572 -16.421   4.667  1.00  0.00     0.177 C 
BRANCH  26  27
HETATM   27  C   UNL     1      42.679 -17.328   4.227  1.00  0.00     0.001 A 
HETATM   28  S   UNL     1      43.801 -17.950   5.368  1.00  0.00    -0.105 SA
HETATM   29  C   UNL     1      44.642 -18.825   4.166  1.00  0.00     0.050 A 
HETATM   30  C   UNL     1      44.097 -18.637   2.916  1.00  0.00     0.008 A 
HETATM   31  C   UNL     1      42.970 -17.766   2.948  1.00  0.00     0.017 A 
ENDBRANCH  26  27
ENDBRANCH   1  26
BRANCH   8  32
HETATM   32  C   UNL     1      40.431 -14.146  -0.061  1.00  0.00     0.251 C 
HETATM   33  N   UNL     1      40.686 -13.440  -1.210  1.00  0.00    -0.355 N 
HETATM   34  H   UNL     1      41.400 -12.725  -1.234  1.00  0.00     0.162 HD
HETATM   35  O   UNL     1      39.692 -15.122  -0.009  1.00  0.00    -0.268 OA
BRANCH  33  36
HETATM   36  C   UNL     1      40.002 -13.728  -2.471  1.00  0.00     0.148 C 
BRANCH  36  37
HETATM   37  C   UNL     1      38.649 -13.020  -2.617  1.00  0.00     0.183 C 
BRANCH  37  38
HETATM   38  O   UNL     1      37.611 -13.693  -1.913  1.00  0.00    -0.399 OA
HETATM   39  H   UNL     1      37.491 -14.574  -2.327  1.00  0.00     0.209 HD
ENDBRANCH  37  38
ENDBRANCH  36  37
ENDBRANCH  33  36
ENDBRANCH   8  32
TORSDOF 11
ENDMDL
MODEL 2
REMARK VINA RESULT:      -7.8      5.933      9.385
REMARK  11 active torsions:
REMARK  status: ('A' for Active; 'I' for Inactive)
REMARK    1  A    between atoms: C_4  and  C_5 
REMARK    2  A    between atoms: C_5  and  N_6 
REMARK    3  A    between atoms: C_7  and  S_8 
REMARK    4  A    between atoms: C_9  and  C_10 
REMARK       I    between atoms: C_10  and  N_11 
REMARK    5  A    between atoms: N_11  and  C_12 
REMARK    6  A    between atoms: C_15  and  O_16 
REMARK    7  A    between atoms: O_16  and  C_17 
REMARK    8  A    between atoms: C_27  and  C_28 
REMARK       I    between atoms: C_28  and  N_29 
REMARK    9  A    between atoms: N_29  and  C_30 
REMARK   10  A    between atoms: C_30  and  C_31 
REMARK   11  A    between atoms: C_31  and  O_32 
ROOT
HETATM    1  N   UNL     1      39.177 -11.689   0.998  1.00  0.00    -0.321 N 
HETATM    2  C   UNL     1      39.625 -13.012   0.810  1.00  0.00     0.104 A 
HETATM    3  C   UNL     1      39.830 -13.590   2.065  1.00  0.00     0.142 A 
HETATM    4  N   UNL     1      39.497 -12.562   2.954  1.00  0.00    -0.301 N 
HETATM    5  C   UNL     1      39.101 -11.467   2.315  1.00  0.00     0.116 A 
HETATM    6  C   UNL     1      39.516 -12.628   4.442  1.00  0.00     0.100 A 
HETATM    7  C   UNL     1      39.103 -11.473   5.100  1.00  0.00     0.035 A 
HETATM    8  C   UNL     1      38.704 -10.340   4.385  1.00  0.00     0.036 A 
HETATM    9  C   UNL     1      38.698 -10.324   2.987  1.00  0.00     0.066 A 
ENDROOT
BRANCH   3  10
HETATM   10  C   UNL     1      40.293 -14.915   2.469  1.00  0.00     0.276 C 
HETATM   11  N   UNL     1      41.649 -14.958   2.767  1.00  0.00    -0.322 N 
HETATM   12  H   UNL     1      42.184 -14.097   2.730  1.00  0.00     0.169 HD
HETATM   13  O   UNL     1      39.569 -15.909   2.510  1.00  0.00    -0.266 OA
BRANCH  11  14
HETATM   14  C   UNL     1      42.418 -16.081   3.151  1.00  0.00     0.035 A 
HETATM   15  C   UNL     1      42.892 -17.058   2.276  1.00  0.00     0.032 A 
HETATM   16  C   UNL     1      43.650 -18.132   2.759  1.00  0.00     0.039 A 
HETATM   17  C   UNL     1      43.946 -18.255   4.118  1.00  0.00     0.075 A 
HETATM   18  C   UNL     1      43.477 -17.281   4.993  1.00  0.00     0.039 A 
HETATM   19  C   UNL     1      42.721 -16.204   4.514  1.00  0.00     0.032 A 
BRANCH  17  20
HETATM   20  O   UNL     1      44.688 -19.353   4.442  1.00  0.00    -0.290 OA
BRANCH  20  21
HETATM   21  C   UNL     1      44.006 -20.546   4.809  1.00  0.00     0.505 C 
HETATM   22  F   UNL     1      43.793 -21.309   3.709  1.00  0.00    -0.184 F 
HETATM   23  F   UNL     1      44.761 -21.260   5.678  1.00  0.00    -0.184 F 
ENDBRANCH  20  21
ENDBRANCH  17  20
ENDBRANCH  11  14
ENDBRANCH   3  10
BRANCH   2  24
HETATM   24  S   UNL     1      39.899 -13.783  -0.749  1.00  0.00    -0.123 SA
HETATM   25  H   UNL     1      41.162 -13.423  -1.010  1.00  0.00     0.108 HD
ENDBRANCH   2  24
BRANCH   1  26
HETATM   26  C   UNL     1      38.830 -10.701  -0.032  1.00  0.00     0.177 C 
BRANCH  26  27
HETATM   27  C   UNL     1      40.024  -9.855  -0.347  1.00  0.00     0.001 A 
HETATM   28  S   UNL     1      40.045  -8.190   0.068  1.00  0.00    -0.105 SA
HETATM   29  C   UNL     1      41.621  -7.983  -0.558  1.00  0.00     0.050 A 
HETATM   30  C   UNL     1      42.120  -9.149  -1.092  1.00  0.00     0.008 A 
HETATM   31  C   UNL     1      41.196 -10.228  -0.979  1.00  0.00     0.017 A 
ENDBRANCH  26  27
ENDBRANCH   1  26
BRANCH   8  32
HETATM   32  C   UNL     1      38.194  -9.126   5.061  1.00  0.00     0.251 C 
HETATM   33  N   UNL     1      37.365  -8.300   4.344  1.00  0.00    -0.355 N 
HETATM   34  H   UNL     1      37.037  -8.561   3.425  1.00  0.00     0.162 HD
HETATM   35  O   UNL     1      38.499  -8.938   6.233  1.00  0.00    -0.268 OA
BRANCH  33  36
HETATM   36  C   UNL     1      36.850  -7.044   4.893  1.00  0.00     0.148 C 
BRANCH  36  37
HETATM   37  C   UNL     1      35.322  -6.923   4.830  1.00  0.00     0.183 C 
BRANCH  37  38
HETATM   38  O   UNL     1      34.670  -7.971   5.541  1.00  0.00    -0.399 OA
HETATM   39  H   UNL     1      33.761  -7.670   5.751  1.00  0.00     0.209 HD
ENDBRANCH  37  38
ENDBRANCH  36  37
ENDBRANCH  33  36
ENDBRANCH   8  32
TORSDOF 11
ENDMDL
MODEL 3
REMARK VINA RESULT:      -7.8      3.335      5.392
REMARK  11 active torsions:
REMARK  status: ('A' for Active; 'I' for Inactive)
REMARK    1  A    between atoms: C_4  and  C_5 
REMARK    2  A    between atoms: C_5  and  N_6 
REMARK    3  A    between atoms: C_7  and  S_8 
REMARK    4  A    between atoms: C_9  and  C_10 
REMARK       I    between atoms: C_10  and  N_11 
REMARK    5  A    between atoms: N_11  and  C_12 
REMARK    6  A    between atoms: C_15  and  O_16 
REMARK    7  A    between atoms: O_16  and  C_17 
REMARK    8  A    between atoms: C_27  and  C_28 
REMARK       I    between atoms: C_28  and  N_29 
REMARK    9  A    between atoms: N_29  and  C_30 
REMARK   10  A    between atoms: C_30  and  C_31 
REMARK   11  A    between atoms: C_31  and  O_32 
ROOT
HETATM    1  N   UNL     1      43.022 -14.034   3.639  1.00  0.00    -0.321 N 
HETATM    2  C   UNL     1      42.788 -12.723   4.099  1.00  0.00     0.104 A 
HETATM    3  C   UNL     1      42.640 -12.763   5.487  1.00  0.00     0.142 A 
HETATM    4  N   UNL     1      42.787 -14.121   5.790  1.00  0.00    -0.301 N 
HETATM    5  C   UNL     1      43.027 -14.846   4.703  1.00  0.00     0.116 A 
HETATM    6  C   UNL     1      42.738 -14.744   7.143  1.00  0.00     0.100 A 
HETATM    7  C   UNL     1      42.949 -16.119   7.178  1.00  0.00     0.035 A 
HETATM    8  C   UNL     1      43.189 -16.842   6.006  1.00  0.00     0.036 A 
HETATM    9  C   UNL     1      43.231 -16.215   4.758  1.00  0.00     0.066 A 
ENDROOT
BRANCH   3  10
HETATM   10  C   UNL     1      42.375 -11.719   6.474  1.00  0.00     0.276 C 
HETATM   11  N   UNL     1      43.438 -11.497   7.340  1.00  0.00    -0.322 N 
HETATM   12  H   UNL     1      44.298 -12.016   7.202  1.00  0.00     0.169 HD
HETATM   13  O   UNL     1      41.306 -11.117   6.560  1.00  0.00    -0.266 OA
BRANCH  11  14
HETATM   14  C   UNL     1      43.498 -10.590   8.425  1.00  0.00     0.035 A 
HETATM   15  C   UNL     1      42.548  -9.604   8.690  1.00  0.00     0.032 A 
HETATM   16  C   UNL     1      42.699  -8.757   9.795  1.00  0.00     0.039 A 
HETATM   17  C   UNL     1      43.796  -8.873  10.651  1.00  0.00     0.075 A 
HETATM   18  C   UNL     1      44.744  -9.857  10.391  1.00  0.00     0.039 A 
HETATM   19  C   UNL     1      44.594 -10.709   9.288  1.00  0.00     0.032 A 
BRANCH  17  20
HETATM   20  O   UNL     1      43.813  -7.979  11.681  1.00  0.00    -0.290 OA
BRANCH  20  21
HETATM   21  C   UNL     1      42.967  -8.220  12.800  1.00  0.00     0.505 C 
HETATM   22  F   UNL     1      42.922  -9.549  13.063  1.00  0.00    -0.184 F 
HETATM   23  F   UNL     1      43.459  -7.589  13.893  1.00  0.00    -0.184 F 
ENDBRANCH  20  21
ENDBRANCH  17  20
ENDBRANCH  11  14
ENDBRANCH   3  10
BRANCH   2  24
HETATM   24  S   UNL     1      42.679 -11.291   3.080  1.00  0.00    -0.123 SA
HETATM   25  H   UNL     1      41.374 -11.270   2.783  1.00  0.00     0.108 HD
ENDBRANCH   2  24
BRANCH   1  26
HETATM   26  C   UNL     1      43.241 -14.478   2.256  1.00  0.00     0.177 C 
BRANCH  26  27
HETATM   27  C   UNL     1      41.928 -14.790   1.609  1.00  0.00     0.001 A 
HETATM   28  S   UNL     1      41.217 -13.685   0.505  1.00  0.00    -0.105 SA
HETATM   29  C   UNL     1      39.876 -14.708   0.239  1.00  0.00     0.050 A 
HETATM   30  C   UNL     1      39.951 -15.860   0.987  1.00  0.00     0.008 A 
HETATM   31  C   UNL     1      41.129 -15.905   1.785  1.00  0.00     0.017 A 
ENDBRANCH  26  27
ENDBRANCH   1  26
BRANCH   8  32
HETATM   32  C   UNL     1      43.487 -18.292   6.026  1.00  0.00     0.251 C 
HETATM   33  N   UNL     1      44.049 -18.842   4.901  1.00  0.00    -0.355 N 
HETATM   34  H   UNL     1      44.338 -18.261   4.126  1.00  0.00     0.162 HD
HETATM   35  O   UNL     1      43.261 -18.921   7.054  1.00  0.00    -0.268 OA
BRANCH  33  36
HETATM   36  C   UNL     1      44.332 -20.273   4.789  1.00  0.00     0.148 C 
BRANCH  36  37
HETATM   37  C   UNL     1      43.775 -20.916   3.512  1.00  0.00     0.183 C 
BRANCH  37  38
HETATM   38  O   UNL     1      43.817 -20.026   2.401  1.00  0.00    -0.399 OA
HETATM   39  H   UNL     1      42.954 -20.085   1.938  1.00  0.00     0.209 HD
ENDBRANCH  37  38
ENDBRANCH  36  37
ENDBRANCH  33  36
ENDBRANCH   8  32
TORSDOF 11
ENDMDL
MODEL 4
REMARK VINA RESULT:      -7.4      4.829      9.169
REMARK  11 active torsions:
REMARK  status: ('A' for Active; 'I' for Inactive)
REMARK    1  A    between atoms: C_4  and  C_5 
REMARK    2  A    between atoms: C_5  and  N_6 
REMARK    3  A    between atoms: C_7  and  S_8 
REMARK    4  A    between atoms: C_9  and  C_10 
REMARK       I    between atoms: C_10  and  N_11 
REMARK    5  A    between atoms: N_11  and  C_12 
REMARK    6  A    between atoms: C_15  and  O_16 
REMARK    7  A    between atoms: O_16  and  C_17 
REMARK    8  A    between atoms: C_27  and  C_28 
REMARK       I    between atoms: C_28  and  N_29 
REMARK    9  A    between atoms: N_29  and  C_30 
REMARK   10  A    between atoms: C_30  and  C_31 
REMARK   11  A    between atoms: C_31  and  O_32 
ROOT
HETATM    1  N   UNL     1      41.499 -14.654   3.783  1.00  0.00    -0.321 N 
HETATM    2  C   UNL     1      40.775 -14.638   2.574  1.00  0.00     0.104 A 
HETATM    3  C   UNL     1      41.019 -13.422   1.931  1.00  0.00     0.142 A 
HETATM    4  N   UNL     1      41.883 -12.758   2.809  1.00  0.00    -0.301 N 
HETATM    5  C   UNL     1      42.167 -13.498   3.875  1.00  0.00     0.116 A 
HETATM    6  C   UNL     1      42.485 -11.409   2.618  1.00  0.00     0.100 A 
HETATM    7  C   UNL     1      43.346 -10.987   3.627  1.00  0.00     0.035 A 
HETATM    8  C   UNL     1      43.607 -11.797   4.736  1.00  0.00     0.036 A 
HETATM    9  C   UNL     1      43.022 -13.060   4.872  1.00  0.00     0.066 A 
ENDROOT
BRANCH   3  10
HETATM   10  C   UNL     1      40.532 -12.866   0.670  1.00  0.00     0.276 C 
HETATM   11  N   UNL     1      39.155 -12.695   0.639  1.00  0.00    -0.322 N 
HETATM   12  H   UNL     1      38.616 -12.913   1.471  1.00  0.00     0.169 HD
HETATM   13  O   UNL     1      41.260 -12.606  -0.287  1.00  0.00    -0.266 OA
BRANCH  11  14
HETATM   14  C   UNL     1      38.364 -12.217  -0.432  1.00  0.00     0.035 A 
HETATM   15  C   UNL     1      38.108 -12.923  -1.607  1.00  0.00     0.032 A 
HETATM   16  C   UNL     1      37.306 -12.361  -2.609  1.00  0.00     0.039 A 
HETATM   17  C   UNL     1      36.750 -11.088  -2.462  1.00  0.00     0.075 A 
HETATM   18  C   UNL     1      37.002 -10.383  -1.290  1.00  0.00     0.039 A 
HETATM   19  C   UNL     1      37.800 -10.943  -0.284  1.00  0.00     0.032 A 
BRANCH  17  20
HETATM   20  O   UNL     1      35.997 -10.669  -3.519  1.00  0.00    -0.290 OA
BRANCH  20  21
HETATM   21  C   UNL     1      34.800 -11.377  -3.819  1.00  0.00     0.505 C 
HETATM   22  F   UNL     1      33.781 -10.894  -3.067  1.00  0.00    -0.184 F 
HETATM   23  F   UNL     1      34.479 -11.207  -5.124  1.00  0.00    -0.184 F 
ENDBRANCH  20  21
ENDBRANCH  17  20
ENDBRANCH  11  14
ENDBRANCH   3  10
BRANCH   2  24
HETATM   24  S   UNL     1      39.727 -15.930   1.997  1.00  0.00    -0.123 SA
HETATM   25  H   UNL     1      40.472 -17.014   2.247  1.00  0.00     0.108 HD
ENDBRANCH   2  24
BRANCH   1  26
HETATM   26  C   UNL     1      41.553 -15.726   4.786  1.00  0.00     0.177 C 
BRANCH  26  27
HETATM   27  C   UNL     1      42.584 -16.738   4.392  1.00  0.00     0.001 A 
HETATM   28  S   UNL     1      43.543 -17.513   5.585  1.00  0.00    -0.105 SA
HETATM   29  C   UNL     1      44.371 -18.441   4.414  1.00  0.00     0.050 A 
HETATM   30  C   UNL     1      43.945 -18.157   3.137  1.00  0.00     0.008 A 
HETATM   31  C   UNL     1      42.920 -17.168   3.121  1.00  0.00     0.017 A 
ENDBRANCH  26  27
ENDBRANCH   1  26
BRANCH   8  32
HETATM   32  C   UNL     1      44.572 -11.400   5.787  1.00  0.00     0.251 C 
HETATM   33  N   UNL     1      44.101 -11.277   7.070  1.00  0.00    -0.355 N 
HETATM   34  H   UNL     1      43.154 -11.541   7.305  1.00  0.00     0.162 HD
HETATM   35  O   UNL     1      45.746 -11.244   5.472  1.00  0.00    -0.268 OA
BRANCH  33  36
HETATM   36  C   UNL     1      44.952 -10.834   8.175  1.00  0.00     0.148 C 
BRANCH  36  37
HETATM   37  C   UNL     1      45.251  -9.330   8.162  1.00  0.00     0.183 C 
BRANCH  37  38
HETATM   38  O   UNL     1      46.540  -9.042   7.630  1.00  0.00    -0.399 OA
HETATM   39  H   UNL     1      46.422  -8.433   6.871  1.00  0.00     0.209 HD
ENDBRANCH  37  38
ENDBRANCH  36  37
ENDBRANCH  33  36
ENDBRANCH   8  32
TORSDOF 11
ENDMDL
MODEL 5
REMARK VINA RESULT:      -7.4      5.382     10.556
REMARK  11 active torsions:
REMARK  status: ('A' for Active; 'I' for Inactive)
REMARK    1  A    between atoms: C_4  and  C_5 
REMARK    2  A    between atoms: C_5  and  N_6 
REMARK    3  A    between atoms: C_7  and  S_8 
REMARK    4  A    between atoms: C_9  and  C_10 
REMARK       I    between atoms: C_10  and  N_11 
REMARK    5  A    between atoms: N_11  and  C_12 
REMARK    6  A    between atoms: C_15  and  O_16 
REMARK    7  A    between atoms: O_16  and  C_17 
REMARK    8  A    between atoms: C_27  and  C_28 
REMARK       I    between atoms: C_28  and  N_29 
REMARK    9  A    between atoms: N_29  and  C_30 
REMARK   10  A    between atoms: C_30  and  C_31 
REMARK   11  A    between atoms: C_31  and  O_32 
ROOT
HETATM    1  N   UNL     1      40.550 -10.447   5.693  1.00  0.00    -0.321 N 
HETATM    2  C   UNL     1      40.696 -11.411   4.676  1.00  0.00     0.104 A 
HETATM    3  C   UNL     1      41.946 -12.018   4.821  1.00  0.00     0.142 A 
HETATM    4  N   UNL     1      42.496 -11.367   5.932  1.00  0.00    -0.301 N 
HETATM    5  C   UNL     1      41.661 -10.466   6.438  1.00  0.00     0.116 A 
HETATM    6  C   UNL     1      43.825 -11.628   6.552  1.00  0.00     0.100 A 
HETATM    7  C   UNL     1      44.123 -10.865   7.676  1.00  0.00     0.035 A 
HETATM    8  C   UNL     1      43.216  -9.921   8.168  1.00  0.00     0.036 A 
HETATM    9  C   UNL     1      41.977  -9.712   7.557  1.00  0.00     0.066 A 
ENDROOT
BRANCH   3  10
HETATM   10  C   UNL     1      42.623 -13.061   4.055  1.00  0.00     0.276 C 
HETATM   11  N   UNL     1      42.272 -14.347   4.446  1.00  0.00    -0.322 N 
HETATM   12  H   UNL     1      41.570 -14.463   5.168  1.00  0.00     0.169 HD
HETATM   13  O   UNL     1      43.451 -12.833   3.174  1.00  0.00    -0.266 OA
BRANCH  11  14
HETATM   14  C   UNL     1      42.766 -15.572   3.940  1.00  0.00     0.035 A 
HETATM   15  C   UNL     1      42.579 -16.027   2.635  1.00  0.00     0.032 A 
HETATM   16  C   UNL     1      43.113 -17.257   2.231  1.00  0.00     0.039 A 
HETATM   17  C   UNL     1      43.838 -18.056   3.118  1.00  0.00     0.075 A 
HETATM   18  C   UNL     1      44.029 -17.605   4.419  1.00  0.00     0.039 A 
HETATM   19  C   UNL     1      43.499 -16.373   4.825  1.00  0.00     0.032 A 
BRANCH  17  20
HETATM   20  O   UNL     1      44.294 -19.228   2.587  1.00  0.00    -0.290 OA
BRANCH  20  21
HETATM   21  C   UNL     1      43.373 -20.300   2.425  1.00  0.00     0.505 C 
HETATM   22  F   UNL     1      43.465 -20.797   1.168  1.00  0.00    -0.184 F 
HETATM   23  F   UNL     1      43.666 -21.295   3.296  1.00  0.00    -0.184 F 
ENDBRANCH  20  21
ENDBRANCH  17  20
ENDBRANCH  11  14
ENDBRANCH   3  10
BRANCH   2  24
HETATM   24  S   UNL     1      39.506 -11.763   3.427  1.00  0.00    -0.123 SA
HETATM   25  H   UNL     1      38.364 -11.717   4.123  1.00  0.00     0.108 HD
ENDBRANCH   2  24
BRANCH   1  26
HETATM   26  C   UNL     1      39.400  -9.566   5.940  1.00  0.00     0.177 C 
BRANCH  26  27
HETATM   27  C   UNL     1      39.514  -8.335   5.096  1.00  0.00     0.001 A 
HETATM   28  S   UNL     1      38.458  -8.091   3.765  1.00  0.00    -0.105 SA
HETATM   29  C   UNL     1      39.173  -6.587   3.385  1.00  0.00     0.050 A 
HETATM   30  C   UNL     1      40.209  -6.279   4.238  1.00  0.00     0.008 A 
HETATM   31  C   UNL     1      40.413  -7.291   5.220  1.00  0.00     0.017 A 
ENDBRANCH  26  27
ENDBRANCH   1  26
BRANCH   8  32
HETATM   32  C   UNL     1      43.482  -9.149   9.404  1.00  0.00     0.251 C 
HETATM   33  N   UNL     1      43.227  -9.763  10.604  1.00  0.00    -0.355 N 
HETATM   34  H   UNL     1      42.962 -10.738  10.645  1.00  0.00     0.162 HD
HETATM   35  O   UNL     1      43.953  -8.022   9.299  1.00  0.00    -0.268 OA
BRANCH  33  36
HETATM   36  C   UNL     1      43.397  -9.075  11.885  1.00  0.00     0.148 C 
BRANCH  36  37
HETATM   37  C   UNL     1      42.370  -9.485  12.948  1.00  0.00     0.183 C 
BRANCH  37  38
HETATM   38  O   UNL     1      41.581 -10.596  12.534  1.00  0.00    -0.399 OA
HETATM   39  H   UNL     1      41.550 -10.591  11.554  1.00  0.00     0.209 HD
ENDBRANCH  37  38
ENDBRANCH  36  37
ENDBRANCH  33  36
ENDBRANCH   8  32
TORSDOF 11
ENDMDL
MODEL 6
REMARK VINA RESULT:      -7.2      5.032      8.700
REMARK  11 active torsions:
REMARK  status: ('A' for Active; 'I' for Inactive)
REMARK    1  A    between atoms: C_4  and  C_5 
REMARK    2  A    between atoms: C_5  and  N_6 
REMARK    3  A    between atoms: C_7  and  S_8 
REMARK    4  A    between atoms: C_9  and  C_10 
REMARK       I    between atoms: C_10  and  N_11 
REMARK    5  A    between atoms: N_11  and  C_12 
REMARK    6  A    between atoms: C_15  and  O_16 
REMARK    7  A    between atoms: O_16  and  C_17 
REMARK    8  A    between atoms: C_27  and  C_28 
REMARK       I    between atoms: C_28  and  N_29 
REMARK    9  A    between atoms: N_29  and  C_30 
REMARK   10  A    between atoms: C_30  and  C_31 
REMARK   11  A    between atoms: C_31  and  O_32 
ROOT
HETATM    1  N   UNL     1      41.159 -13.217   4.453  1.00  0.00    -0.321 N 
HETATM    2  C   UNL     1      40.511 -12.460   3.456  1.00  0.00     0.104 A 
HETATM    3  C   UNL     1      40.764 -13.055   2.218  1.00  0.00     0.142 A 
HETATM    4  N   UNL     1      41.573 -14.150   2.543  1.00  0.00    -0.301 N 
HETATM    5  C   UNL     1      41.779 -14.240   3.852  1.00  0.00     0.116 A 
HETATM    6  C   UNL     1      42.133 -15.157   1.598  1.00  0.00     0.100 A 
HETATM    7  C   UNL     1      42.882 -16.175   2.181  1.00  0.00     0.035 A 
HETATM    8  C   UNL     1      43.080 -16.223   3.564  1.00  0.00     0.036 A 
HETATM    9  C   UNL     1      42.531 -15.258   4.414  1.00  0.00     0.066 A 
ENDROOT
BRANCH   3  10
HETATM   10  C   UNL     1      40.359 -12.700   0.860  1.00  0.00     0.276 C 
HETATM   11  N   UNL     1      41.114 -11.671   0.312  1.00  0.00    -0.322 N 
HETATM   12  H   UNL     1      41.885 -11.291   0.849  1.00  0.00     0.169 HD
HETATM   13  O   UNL     1      39.421 -13.230   0.267  1.00  0.00    -0.266 OA
BRANCH  11  14
HETATM   14  C   UNL     1      40.962 -11.066  -0.958  1.00  0.00     0.035 A 
HETATM   15  C   UNL     1      41.270 -11.678  -2.173  1.00  0.00     0.032 A 
HETATM   16  C   UNL     1      41.080 -10.992  -3.379  1.00  0.00     0.039 A 
HETATM   17  C   UNL     1      40.586  -9.686  -3.397  1.00  0.00     0.075 A 
HETATM   18  C   UNL     1      40.276  -9.073  -2.188  1.00  0.00     0.039 A 
HETATM   19  C   UNL     1      40.461  -9.758  -0.980  1.00  0.00     0.032 A 
BRANCH  17  20
HETATM   20  O   UNL     1      40.457  -9.143  -4.642  1.00  0.00    -0.290 OA
BRANCH  20  21
HETATM   21  C   UNL     1      40.995  -7.847  -4.873  1.00  0.00     0.505 C 
HETATM   22  F   UNL     1      42.297  -7.817  -4.500  1.00  0.00    -0.184 F 
HETATM   23  F   UNL     1      40.927  -7.548  -6.193  1.00  0.00    -0.184 F 
ENDBRANCH  20  21
ENDBRANCH  17  20
ENDBRANCH  11  14
ENDBRANCH   3  10
BRANCH   2  24
HETATM   24  S   UNL     1      39.565 -11.002   3.738  1.00  0.00    -0.123 SA
HETATM   25  H   UNL     1      40.126 -10.529   4.857  1.00  0.00     0.108 HD
ENDBRANCH   2  24
BRANCH   1  26
HETATM   26  C   UNL     1      41.171 -12.975   5.902  1.00  0.00     0.177 C 
BRANCH  26  27
HETATM   27  C   UNL     1      42.455 -12.316   6.296  1.00  0.00     0.001 A 
HETATM   28  S   UNL     1      42.653 -10.620   6.124  1.00  0.00    -0.105 SA
HETATM   29  C   UNL     1      44.239 -10.672   6.756  1.00  0.00     0.050 A 
HETATM   30  C   UNL     1      44.625 -11.954   7.075  1.00  0.00     0.008 A 
HETATM   31  C   UNL     1      43.600 -12.905   6.802  1.00  0.00     0.017 A 
ENDBRANCH  26  27
ENDBRANCH   1  26
BRANCH   8  32
HETATM   32  C   UNL     1      43.811 -17.335   4.214  1.00  0.00     0.251 C 
HETATM   33  N   UNL     1      43.667 -18.590   3.677  1.00  0.00    -0.355 N 
HETATM   34  H   UNL     1      43.159 -18.733   2.815  1.00  0.00     0.162 HD
HETATM   35  O   UNL     1      44.540 -17.078   5.165  1.00  0.00    -0.268 OA
BRANCH  33  36
HETATM   36  C   UNL     1      44.296 -19.770   4.272  1.00  0.00     0.148 C 
BRANCH  36  37
HETATM   37  C   UNL     1      43.891 -21.090   3.604  1.00  0.00     0.183 C 
BRANCH  37  38
HETATM   38  O   UNL     1      43.758 -20.959   2.192  1.00  0.00    -0.399 OA
HETATM   39  H   UNL     1      44.577 -21.307   1.781  1.00  0.00     0.209 HD
ENDBRANCH  37  38
ENDBRANCH  36  37
ENDBRANCH  33  36
ENDBRANCH   8  32
TORSDOF 11
ENDMDL
MODEL 7
REMARK VINA RESULT:      -7.2      5.483      9.603
REMARK  11 active torsions:
REMARK  status: ('A' for Active; 'I' for Inactive)
REMARK    1  A    between atoms: C_4  and  C_5 
REMARK    2  A    between atoms: C_5  and  N_6 
REMARK    3  A    between atoms: C_7  and  S_8 
REMARK    4  A    between atoms: C_9  and  C_10 
REMARK       I    between atoms: C_10  and  N_11 
REMARK    5  A    between atoms: N_11  and  C_12 
REMARK    6  A    between atoms: C_15  and  O_16 
REMARK    7  A    between atoms: O_16  and  C_17 
REMARK    8  A    between atoms: C_27  and  C_28 
REMARK       I    between atoms: C_28  and  N_29 
REMARK    9  A    between atoms: N_29  and  C_30 
REMARK   10  A    between atoms: C_30  and  C_31 
REMARK   11  A    between atoms: C_31  and  O_32 
ROOT
HETATM    1  N   UNL     1      43.526  -9.324   8.062  1.00  0.00    -0.321 N 
HETATM    2  C   UNL     1      44.197 -10.370   7.397  1.00  0.00     0.104 A 
HETATM    3  C   UNL     1      43.290 -11.001   6.543  1.00  0.00     0.142 A 
HETATM    4  N   UNL     1      42.101 -10.293   6.751  1.00  0.00    -0.301 N 
HETATM    5  C   UNL     1      42.261  -9.307   7.626  1.00  0.00     0.116 A 
HETATM    6  C   UNL     1      40.792 -10.529   6.079  1.00  0.00     0.100 A 
HETATM    7  C   UNL     1      39.767  -9.659   6.438  1.00  0.00     0.035 A 
HETATM    8  C   UNL     1      39.980  -8.641   7.372  1.00  0.00     0.036 A 
HETATM    9  C   UNL     1      41.227  -8.454   7.975  1.00  0.00     0.066 A 
ENDROOT
BRANCH   3  10
HETATM   10  C   UNL     1      43.429 -12.136   5.632  1.00  0.00     0.276 C 
HETATM   11  N   UNL     1      43.136 -13.357   6.226  1.00  0.00    -0.322 N 
HETATM   12  H   UNL     1      42.817 -13.368   7.188  1.00  0.00     0.169 HD
HETATM   13  O   UNL     1      43.801 -12.032   4.465  1.00  0.00    -0.266 OA
BRANCH  11  14
HETATM   14  C   UNL     1      43.205 -14.644   5.641  1.00  0.00     0.035 A 
HETATM   15  C   UNL     1      42.473 -15.051   4.527  1.00  0.00     0.032 A 
HETATM   16  C   UNL     1      42.617 -16.350   4.023  1.00  0.00     0.039 A 
HETATM   17  C   UNL     1      43.487 -17.265   4.620  1.00  0.00     0.075 A 
HETATM   18  C   UNL     1      44.220 -16.861   5.730  1.00  0.00     0.039 A 
HETATM   19  C   UNL     1      44.082 -15.561   6.235  1.00  0.00     0.032 A 
BRANCH  17  20
HETATM   20  O   UNL     1      43.520 -18.492   4.024  1.00  0.00    -0.290 OA
BRANCH  20  21
HETATM   21  C   UNL     1      43.559 -18.553   2.604  1.00  0.00     0.505 C 
HETATM   22  F   UNL     1      44.460 -19.486   2.209  1.00  0.00    -0.184 F 
HETATM   23  F   UNL     1      42.343 -18.910   2.124  1.00  0.00    -0.184 F 
ENDBRANCH  20  21
ENDBRANCH  17  20
ENDBRANCH  11  14
ENDBRANCH   3  10
BRANCH   2  24
HETATM   24  S   UNL     1      45.885 -10.810   7.633  1.00  0.00    -0.123 SA
HETATM   25  H   UNL     1      46.366  -9.717   8.238  1.00  0.00     0.108 HD
ENDBRANCH   2  24
BRANCH   1  26
HETATM   26  C   UNL     1      44.076  -8.386   9.050  1.00  0.00     0.177 C 
BRANCH  26  27
HETATM   27  C   UNL     1      43.611  -8.764  10.422  1.00  0.00     0.001 A 
HETATM   28  S   UNL     1      43.621 -10.405  10.924  1.00  0.00    -0.105 SA
HETATM   29  C   UNL     1      43.016 -10.008  12.470  1.00  0.00     0.050 A 
HETATM   30  C   UNL     1      42.790  -8.657  12.603  1.00  0.00     0.008 A 
HETATM   31  C   UNL     1      43.124  -7.939  11.419  1.00  0.00     0.017 A 
ENDBRANCH  26  27
ENDBRANCH   1  26
BRANCH   8  32
HETATM   32  C   UNL     1      38.926  -7.660   7.717  1.00  0.00     0.251 C 
HETATM   33  N   UNL     1      38.533  -6.780   6.739  1.00  0.00    -0.355 N 
HETATM   34  H   UNL     1      38.880  -6.862   5.794  1.00  0.00     0.162 HD
HETATM   35  O   UNL     1      38.427  -7.707   8.835  1.00  0.00    -0.268 OA
BRANCH  33  36
HETATM   36  C   UNL     1      37.542  -5.731   6.986  1.00  0.00     0.148 C 
BRANCH  36  37
HETATM   37  C   UNL     1      36.285  -5.851   6.116  1.00  0.00     0.183 C 
BRANCH  37  38
HETATM   38  O   UNL     1      36.034  -7.195   5.716  1.00  0.00    -0.399 OA
HETATM   39  H   UNL     1      36.846  -7.716   5.892  1.00  0.00     0.209 HD
ENDBRANCH  37  38
ENDBRANCH  36  37
ENDBRANCH  33  36
ENDBRANCH   8  32
TORSDOF 11
ENDMDL
MODEL 8
REMARK VINA RESULT:      -7.2      8.206     14.682
REMARK  11 active torsions:
REMARK  status: ('A' for Active; 'I' for Inactive)
REMARK    1  A    between atoms: C_4  and  C_5 
REMARK    2  A    between atoms: C_5  and  N_6 
REMARK    3  A    between atoms: C_7  and  S_8 
REMARK    4  A    between atoms: C_9  and  C_10 
REMARK       I    between atoms: C_10  and  N_11 
REMARK    5  A    between atoms: N_11  and  C_12 
REMARK    6  A    between atoms: C_15  and  O_16 
REMARK    7  A    between atoms: O_16  and  C_17 
REMARK    8  A    between atoms: C_27  and  C_28 
REMARK       I    between atoms: C_28  and  N_29 
REMARK    9  A    between atoms: N_29  and  C_30 
REMARK   10  A    between atoms: C_30  and  C_31 
REMARK   11  A    between atoms: C_31  and  O_32 
ROOT
HETATM    1  N   UNL     1      38.889  -5.631  13.919  1.00  0.00    -0.321 N 
HETATM    2  C   UNL     1      39.551  -5.601  12.676  1.00  0.00     0.104 A 
HETATM    3  C   UNL     1      40.856  -6.064  12.861  1.00  0.00     0.142 A 
HETATM    4  N   UNL     1      40.910  -6.342  14.232  1.00  0.00    -0.301 N 
HETATM    5  C   UNL     1      39.749  -6.100  14.830  1.00  0.00     0.116 A 
HETATM    6  C   UNL     1      42.074  -6.885  14.987  1.00  0.00     0.100 A 
HETATM    7  C   UNL     1      41.858  -7.107  16.344  1.00  0.00     0.035 A 
HETATM    8  C   UNL     1      40.620  -6.828  16.932  1.00  0.00     0.036 A 
HETATM    9  C   UNL     1      39.554  -6.324  16.183  1.00  0.00     0.066 A 
ENDROOT
BRANCH   3  10
HETATM   10  C   UNL     1      41.975  -6.237  11.938  1.00  0.00     0.276 C 
HETATM   11  N   UNL     1      42.158  -7.552  11.534  1.00  0.00    -0.322 N 
HETATM   12  H   UNL     1      41.505  -8.258  11.857  1.00  0.00     0.169 HD
HETATM   13  O   UNL     1      42.709  -5.318  11.576  1.00  0.00    -0.266 OA
BRANCH  11  14
HETATM   14  C   UNL     1      43.163  -8.066  10.681  1.00  0.00     0.035 A 
HETATM   15  C   UNL     1      43.336  -7.701   9.347  1.00  0.00     0.032 A 
HETATM   16  C   UNL     1      44.368  -8.267   8.586  1.00  0.00     0.039 A 
HETATM   17  C   UNL     1      45.240  -9.207   9.138  1.00  0.00     0.075 A 
HETATM   18  C   UNL     1      45.072  -9.573  10.470  1.00  0.00     0.039 A 
HETATM   19  C   UNL     1      44.043  -9.005  11.234  1.00  0.00     0.032 A 
BRANCH  17  20
HETATM   20  O   UNL     1      46.191  -9.675   8.280  1.00  0.00    -0.290 OA
BRANCH  20  21
HETATM   21  C   UNL     1      45.807 -10.635   7.303  1.00  0.00     0.505 C 
HETATM   22  F   UNL     1      46.910 -11.214   6.769  1.00  0.00    -0.184 F 
HETATM   23  F   UNL     1      45.059 -11.606   7.880  1.00  0.00    -0.184 F 
ENDBRANCH  20  21
ENDBRANCH  17  20
ENDBRANCH  11  14
ENDBRANCH   3  10
BRANCH   2  24
HETATM   24  S   UNL     1      38.847  -5.050  11.159  1.00  0.00    -0.123 SA
HETATM   25  H   UNL     1      38.565  -6.211  10.555  1.00  0.00     0.108 HD
ENDBRANCH   2  24
BRANCH   1  26
HETATM   26  C   UNL     1      37.503  -5.239  14.210  1.00  0.00     0.177 C 
BRANCH  26  27
HETATM   27  C   UNL     1      37.472  -3.845  14.754  1.00  0.00     0.001 A 
HETATM   28  S   UNL     1      37.465  -2.496  13.693  1.00  0.00    -0.105 SA
HETATM   29  C   UNL     1      37.412  -1.388  14.991  1.00  0.00     0.050 A 
HETATM   30  C   UNL     1      37.419  -2.024  16.212  1.00  0.00     0.008 A 
HETATM   31  C   UNL     1      37.463  -3.441  16.077  1.00  0.00     0.017 A 
ENDBRANCH  26  27
ENDBRANCH   1  26
BRANCH   8  32
HETATM   32  C   UNL     1      40.345  -7.123  18.357  1.00  0.00     0.251 C 
HETATM   33  N   UNL     1      40.037  -8.418  18.690  1.00  0.00    -0.355 N 
HETATM   34  H   UNL     1      40.092  -9.160  18.005  1.00  0.00     0.162 HD
HETATM   35  O   UNL     1      40.447  -6.213  19.172  1.00  0.00    -0.268 OA
BRANCH  33  36
HETATM   36  C   UNL     1      39.691  -8.811  20.057  1.00  0.00     0.148 C 
BRANCH  36  37
HETATM   37  C   UNL     1      40.433 -10.061  20.548  1.00  0.00     0.183 C 
BRANCH  37  38
HETATM   38  O   UNL     1      39.656 -10.820  21.470  1.00  0.00    -0.399 OA
HETATM   39  H   UNL     1      40.129 -11.662  21.638  1.00  0.00     0.209 HD
ENDBRANCH  37  38
ENDBRANCH  36  37
ENDBRANCH  33  36
ENDBRANCH   8  32
TORSDOF 11
ENDMDL
MODEL 9
REMARK VINA RESULT:      -7.1      5.476      8.593
REMARK  11 active torsions:
REMARK  status: ('A' for Active; 'I' for Inactive)
REMARK    1  A    between atoms: C_4  and  C_5 
REMARK    2  A    between atoms: C_5  and  N_6 
REMARK    3  A    between atoms: C_7  and  S_8 
REMARK    4  A    between atoms: C_9  and  C_10 
REMARK       I    between atoms: C_10  and  N_11 
REMARK    5  A    between atoms: N_11  and  C_12 
REMARK    6  A    between atoms: C_15  and  O_16 
REMARK    7  A    between atoms: O_16  and  C_17 
REMARK    8  A    between atoms: C_27  and  C_28 
REMARK       I    between atoms: C_28  and  N_29 
REMARK    9  A    between atoms: N_29  and  C_30 
REMARK   10  A    between atoms: C_30  and  C_31 
REMARK   11  A    between atoms: C_31  and  O_32 
ROOT
HETATM    1  N   UNL     1      39.441 -11.489   2.288  1.00  0.00    -0.321 N 
HETATM    2  C   UNL     1      40.515 -12.060   2.999  1.00  0.00     0.104 A 
HETATM    3  C   UNL     1      41.031 -13.115   2.243  1.00  0.00     0.142 A 
HETATM    4  N   UNL     1      40.219 -13.126   1.104  1.00  0.00    -0.301 N 
HETATM    5  C   UNL     1      39.308 -12.160   1.138  1.00  0.00     0.116 A 
HETATM    6  C   UNL     1      40.330 -14.047  -0.062  1.00  0.00     0.100 A 
HETATM    7  C   UNL     1      39.418 -13.827  -1.090  1.00  0.00     0.035 A 
HETATM    8  C   UNL     1      38.470 -12.803  -1.005  1.00  0.00     0.036 A 
HETATM    9  C   UNL     1      38.405 -11.959   0.107  1.00  0.00     0.066 A 
ENDROOT
BRANCH   3  10
HETATM   10  C   UNL     1      42.125 -14.052   2.489  1.00  0.00     0.276 C 
HETATM   11  N   UNL     1      41.720 -15.214   3.133  1.00  0.00    -0.322 N 
HETATM   12  H   UNL     1      40.734 -15.343   3.334  1.00  0.00     0.169 HD
HETATM   13  O   UNL     1      43.297 -13.827   2.190  1.00  0.00    -0.266 OA
BRANCH  11  14
HETATM   14  C   UNL     1      42.525 -16.301   3.548  1.00  0.00     0.035 A 
HETATM   15  C   UNL     1      43.145 -16.401   4.793  1.00  0.00     0.032 A 
HETATM   16  C   UNL     1      43.921 -17.524   5.108  1.00  0.00     0.039 A 
HETATM   17  C   UNL     1      44.094 -18.563   4.191  1.00  0.00     0.075 A 
HETATM   18  C   UNL     1      43.475 -18.468   2.950  1.00  0.00     0.039 A 
HETATM   19  C   UNL     1      42.696 -17.348   2.632  1.00  0.00     0.032 A 
BRANCH  17  20
HETATM   20  O   UNL     1      44.877 -19.589   4.634  1.00  0.00    -0.290 OA
BRANCH  20  21
HETATM   21  C   UNL     1      44.241 -20.738   5.180  1.00  0.00     0.505 C 
HETATM   22  F   UNL     1      43.412 -20.369   6.186  1.00  0.00    -0.184 F 
HETATM   23  F   UNL     1      43.501 -21.352   4.226  1.00  0.00    -0.184 F 
ENDBRANCH  20  21
ENDBRANCH  17  20
ENDBRANCH  11  14
ENDBRANCH   3  10
BRANCH   2  24
HETATM   24  S   UNL     1      41.082 -11.536   4.582  1.00  0.00    -0.123 SA
HETATM   25  H   UNL     1      41.904 -12.538   4.918  1.00  0.00     0.108 HD
ENDBRANCH   2  24
BRANCH   1  26
HETATM   26  C   UNL     1      38.599 -10.353   2.688  1.00  0.00     0.177 C 
BRANCH  26  27
HETATM   27  C   UNL     1      39.228  -9.071   2.240  1.00  0.00     0.001 A 
HETATM   28  S   UNL     1      38.785  -8.360   0.742  1.00  0.00    -0.105 SA
HETATM   29  C   UNL     1      39.848  -7.044   0.975  1.00  0.00     0.050 A 
HETATM   30  C   UNL     1      40.545  -7.146   2.157  1.00  0.00     0.008 A 
HETATM   31  C   UNL     1      40.195  -8.320   2.884  1.00  0.00     0.017 A 
ENDBRANCH  26  27
ENDBRANCH   1  26
BRANCH   8  32
HETATM   32  C   UNL     1      37.537 -12.504  -2.116  1.00  0.00     0.251 C 
HETATM   33  N   UNL     1      36.994 -11.244  -2.169  1.00  0.00    -0.355 N 
HETATM   34  H   UNL     1      37.295 -10.520  -1.531  1.00  0.00     0.162 HD
HETATM   35  O   UNL     1      37.328 -13.374  -2.953  1.00  0.00    -0.268 OA
BRANCH  33  36
HETATM   36  C   UNL     1      36.017 -10.858  -3.187  1.00  0.00     0.148 C 
BRANCH  36  37
HETATM   37  C   UNL     1      36.407  -9.600  -3.974  1.00  0.00     0.183 C 
BRANCH  37  38
HETATM   38  O   UNL     1      35.297  -8.735  -4.189  1.00  0.00    -0.399 OA
HETATM   39  H   UNL     1      35.647  -7.868  -4.485  1.00  0.00     0.209 HD
ENDBRANCH  37  38
ENDBRANCH  36  37
ENDBRANCH  33  36
ENDBRANCH   8  32
TORSDOF 11
ENDMDL
MODEL 10
REMARK VINA RESULT:      -7.1      5.704      9.324
REMARK  11 active torsions:
REMARK  status: ('A' for Active; 'I' for Inactive)
REMARK    1  A    between atoms: C_4  and  C_5 
REMARK    2  A    between atoms: C_5  and  N_6 
REMARK    3  A    between atoms: C_7  and  S_8 
REMARK    4  A    between atoms: C_9  and  C_10 
REMARK       I    between atoms: C_10  and  N_11 
REMARK    5  A    between atoms: N_11  and  C_12 
REMARK    6  A    between atoms: C_15  and  O_16 
REMARK    7  A    between atoms: O_16  and  C_17 
REMARK    8  A    between atoms: C_27  and  C_28 
REMARK       I    between atoms: C_28  and  N_29 
REMARK    9  A    between atoms: N_29  and  C_30 
REMARK   10  A    between atoms: C_30  and  C_31 
REMARK   11  A    between atoms: C_31  and  O_32 
ROOT
HETATM    1  N   UNL     1      42.039 -10.306   6.324  1.00  0.00    -0.321 N 
HETATM    2  C   UNL     1      42.506 -11.634   6.384  1.00  0.00     0.104 A 
HETATM    3  C   UNL     1      41.650 -12.436   5.626  1.00  0.00     0.142 A 
HETATM    4  N   UNL     1      40.693 -11.531   5.152  1.00  0.00    -0.301 N 
HETATM    5  C   UNL     1      40.945 -10.291   5.554  1.00  0.00     0.116 A 
HETATM    6  C   UNL     1      39.535 -11.840   4.267  1.00  0.00     0.100 A 
HETATM    7  C   UNL     1      38.747 -10.750   3.907  1.00  0.00     0.035 A 
HETATM    8  C   UNL     1      39.046  -9.463   4.363  1.00  0.00     0.036 A 
HETATM    9  C   UNL     1      40.147  -9.219   5.189  1.00  0.00     0.066 A 
ENDROOT
BRANCH   3  10
HETATM   10  C   UNL     1      41.643 -13.870   5.346  1.00  0.00     0.276 C 
HETATM   11  N   UNL     1      42.792 -14.312   4.706  1.00  0.00    -0.322 N 
HETATM   12  H   UNL     1      43.539 -13.649   4.529  1.00  0.00     0.169 HD
HETATM   13  O   UNL     1      40.700 -14.613   5.617  1.00  0.00    -0.266 OA
BRANCH  11  14
HETATM   14  C   UNL     1      43.090 -15.623   4.264  1.00  0.00     0.035 A 
HETATM   15  C   UNL     1      42.851 -16.100   2.976  1.00  0.00     0.032 A 
HETATM   16  C   UNL     1      43.186 -17.418   2.637  1.00  0.00     0.039 A 
HETATM   17  C   UNL     1      43.760 -18.281   3.572  1.00  0.00     0.075 A 
HETATM   18  C   UNL     1      44.001 -17.807   4.857  1.00  0.00     0.039 A 
HETATM   19  C   UNL     1      43.670 -16.489   5.199  1.00  0.00     0.032 A 
BRANCH  17  20
HETATM   20  O   UNL     1      44.028 -19.534   3.102  1.00  0.00    -0.290 OA
BRANCH  20  21
HETATM   21  C   UNL     1      43.494 -19.911   1.839  1.00  0.00     0.505 C 
HETATM   22  F   UNL     1      44.301 -20.831   1.256  1.00  0.00    -0.184 F 
HETATM   23  F   UNL     1      42.270 -20.466   2.004  1.00  0.00    -0.184 F 
ENDBRANCH  20  21
ENDBRANCH  17  20
ENDBRANCH  11  14
ENDBRANCH   3  10
BRANCH   2  24
HETATM   24  S   UNL     1      43.918 -12.178   7.285  1.00  0.00    -0.123 SA
HETATM   25  H   UNL     1      43.353 -12.897   8.263  1.00  0.00     0.108 HD
ENDBRANCH   2  24
BRANCH   1  26
HETATM   26  C   UNL     1      42.621  -9.117   6.963  1.00  0.00     0.177 C 
BRANCH  26  27
HETATM   27  C   UNL     1      42.251  -9.088   8.413  1.00  0.00     0.001 A 
HETATM   28  S   UNL     1      40.683  -8.589   8.901  1.00  0.00    -0.105 SA
HETATM   29  C   UNL     1      41.043  -8.838  10.552  1.00  0.00     0.050 A 
HETATM   30  C   UNL     1      42.335  -9.274  10.737  1.00  0.00     0.008 A 
HETATM   31  C   UNL     1      43.036  -9.410   9.505  1.00  0.00     0.017 A 
ENDBRANCH  26  27
ENDBRANCH   1  26
BRANCH   8  32
HETATM   32  C   UNL     1      38.266  -8.279   3.937  1.00  0.00     0.251 C 
HETATM   33  N   UNL     1      37.058  -8.059   4.552  1.00  0.00    -0.355 N 
HETATM   34  H   UNL     1      36.760  -8.627   5.333  1.00  0.00     0.162 HD
HETATM   35  O   UNL     1      38.749  -7.534   3.093  1.00  0.00    -0.268 OA
BRANCH  33  36
HETATM   36  C   UNL     1      36.178  -6.954   4.169  1.00  0.00     0.148 C 
BRANCH  36  37
HETATM   37  C   UNL     1      34.787  -7.020   4.813  1.00  0.00     0.183 C 
BRANCH  37  38
HETATM   38  O   UNL     1      34.635  -8.164   5.648  1.00  0.00    -0.399 OA
HETATM   39  H   UNL     1      34.621  -7.855   6.578  1.00  0.00     0.209 HD
ENDBRANCH  37  38
ENDBRANCH  36  37
ENDBRANCH  33  36
ENDBRANCH   8  32
TORSDOF 11
ENDMDL
