MODEL 1
REMARK VINA RESULT:      -7.1      0.000      0.000
REMARK  10 active torsions:
REMARK  status: ('A' for Active; 'I' for Inactive)
REMARK       I    between atoms: C_2  and  N_3 
REMARK    1  A    between atoms: N_3  and  C_4 
REMARK    2  A    between atoms: C_4  and  C_5 
REMARK    3  A    between atoms: C_5  and  N_6 
REMARK       I    between atoms: N_6  and  C_7 
REMARK    4  A    between atoms: C_7  and  C_8 
REMARK    5  A    between atoms: C_8  and  C_9 
REMARK    6  A    between atoms: C_9  and  C_10 
REMARK    7  A    between atoms: C_10  and  C_11 
REMARK    8  A    between atoms: C_11  and  C_12 
REMARK    9  A    between atoms: C_12  and  N_13 
REMARK   10  A    between atoms: N_13  and  C_14 
ROOT
HETATM    1  C   UNL     1      40.757 -15.982   1.722  1.00  0.00     0.020 C 
ENDROOT
BRANCH   1   2
HETATM    2  C   UNL     1      40.079 -15.390   2.963  1.00  0.00     0.002 C 
BRANCH   2   3
HETATM    3  C   UNL     1      40.254 -13.875   3.080  1.00  0.00     0.009 C 
BRANCH   3   4
HETATM    4  C   UNL     1      40.908 -13.481   4.402  1.00  0.00     0.103 C 
BRANCH   4   5
HETATM    5  C   UNL     1      42.165 -12.678   4.151  1.00  0.00     0.217 C 
HETATM    6  N   UNL     1      42.809 -12.267   5.293  1.00  0.00    -0.360 N 
HETATM    7  H   UNL     1      42.382 -12.422   6.196  1.00  0.00     0.162 HD
HETATM    8  O   UNL     1      42.546 -12.393   3.020  1.00  0.00    -0.274 OA
BRANCH   6   9
HETATM    9  C   UNL     1      43.966 -11.388   5.240  1.00  0.00     0.142 C 
BRANCH   9  10
HETATM   10  C   UNL     1      45.042 -11.770   6.266  1.00  0.00     0.142 C 
BRANCH  10  11
HETATM   11  N   UNL     1      44.680 -11.435   7.636  1.00  0.00    -0.360 N 
HETATM   12  C   UNL     1      45.211 -10.342   8.275  1.00  0.00     0.213 C 
HETATM   13  C   UNL     1      44.648 -10.091   9.650  1.00  0.00     0.117 C 
HETATM   14  O   UNL     1      46.070  -9.618   7.783  1.00  0.00    -0.274 OA
HETATM   15  H   UNL     1      43.903 -11.934   8.051  1.00  0.00     0.162 HD
ENDBRANCH  10  11
ENDBRANCH   9  10
ENDBRANCH   6   9
ENDBRANCH   4   5
ENDBRANCH   3   4
ENDBRANCH   2   3
ENDBRANCH   1   2
BRANCH   1  16
HETATM   16  C   UNL     1      42.133 -15.380   1.438  1.00  0.00     0.121 C 
BRANCH  16  17
HETATM   17  N   UNL     1      43.173 -16.374   1.666  1.00  0.00    -0.374 N 
HETATM   18  H   UNL     1      43.992 -16.250   1.084  1.00  0.00     0.161 HD
BRANCH  17  19
HETATM   19  C   UNL     1      43.395 -16.883   2.935  1.00  0.00     0.139 A 
HETATM   20  N   UNL     1      43.469 -16.064   3.946  1.00  0.00    -0.202 NA
HETATM   21  C   UNL     1      43.728 -16.509   5.215  1.00  0.00     0.200 A 
HETATM   22  S   UNL     1      43.819 -15.491   6.545  1.00  0.00    -0.039 SA
HETATM   23  N   UNL     1      43.946 -17.844   5.430  1.00  0.00    -0.331 N 
HETATM   24  C   UNL     1      43.865 -18.783   4.407  1.00  0.00     0.048 A 
HETATM   25  H   UNL     1      44.141 -18.125   6.380  1.00  0.00     0.168 HD
HETATM   26  C   UNL     1      43.564 -18.354   3.117  1.00  0.00     0.036 A 
HETATM   27  C   UNL     1      44.067 -20.136   4.679  1.00  0.00     0.030 A 
HETATM   28  C   UNL     1      43.430 -19.288   2.087  1.00  0.00     0.017 A 
HETATM   29  C   UNL     1      43.629 -20.645   2.355  1.00  0.00     0.001 A 
HETATM   30  C   UNL     1      43.953 -21.067   3.647  1.00  0.00     0.002 A 
ENDBRANCH  17  19
ENDBRANCH  16  17
ENDBRANCH   1  16
TORSDOF 10
ENDMDL
MODEL 2
REMARK VINA RESULT:      -7.1      3.936      5.640
REMARK  10 active torsions:
REMARK  status: ('A' for Active; 'I' for Inactive)
REMARK       I    between atoms: C_2  and  N_3 
REMARK    1  A    between atoms: N_3  and  C_4 
REMARK    2  A    between atoms: C_4  and  C_5 
REMARK    3  A    between atoms: C_5  and  N_6 
REMARK       I    between atoms: N_6  and  C_7 
REMARK    4  A    between atoms: C_7  and  C_8 
REMARK    5  A    between atoms: C_8  and  C_9 
REMARK    6  A    between atoms: C_9  and  C_10 
REMARK    7  A    between atoms: C_10  and  C_11 
REMARK    8  A    between atoms: C_11  and  C_12 
REMARK    9  A    between atoms: C_12  and  N_13 
REMARK   10  A    between atoms: N_13  and  C_14 
ROOT
HETATM    1  C   UNL     1      41.868 -13.900   1.905  1.00  0.00     0.020 C 
ENDROOT
BRANCH   1   2
HETATM    2  C   UNL     1      40.958 -14.809   1.070  1.00  0.00     0.002 C 
BRANCH   2   3
HETATM    3  C   UNL     1      39.982 -14.033   0.185  1.00  0.00     0.009 C 
BRANCH   3   4
HETATM    4  C   UNL     1      39.769 -14.722  -1.161  1.00  0.00     0.103 C 
BRANCH   4   5
HETATM    5  C   UNL     1      40.005 -13.748  -2.295  1.00  0.00     0.217 C 
HETATM    6  N   UNL     1      40.937 -12.777  -2.019  1.00  0.00    -0.360 N 
HETATM    7  H   UNL     1      41.324 -12.699  -1.089  1.00  0.00     0.162 HD
HETATM    8  O   UNL     1      39.385 -13.809  -3.352  1.00  0.00    -0.274 OA
BRANCH   6   9
HETATM    9  C   UNL     1      41.203 -11.691  -2.949  1.00  0.00     0.142 C 
BRANCH   9  10
HETATM   10  C   UNL     1      40.545 -10.374  -2.516  1.00  0.00     0.142 C 
BRANCH  10  11
HETATM   11  N   UNL     1      41.463  -9.244  -2.505  1.00  0.00    -0.360 N 
HETATM   12  C   UNL     1      42.243  -8.960  -1.411  1.00  0.00     0.213 C 
HETATM   13  C   UNL     1      43.205  -7.819  -1.611  1.00  0.00     0.117 C 
HETATM   14  O   UNL     1      42.177  -9.574  -0.351  1.00  0.00    -0.274 OA
HETATM   15  H   UNL     1      41.633  -8.769  -3.382  1.00  0.00     0.162 HD
ENDBRANCH  10  11
ENDBRANCH   9  10
ENDBRANCH   6   9
ENDBRANCH   4   5
ENDBRANCH   3   4
ENDBRANCH   2   3
ENDBRANCH   1   2
BRANCH   1  16
HETATM   16  C   UNL     1      43.212 -14.540   2.251  1.00  0.00     0.121 C 
BRANCH  16  17
HETATM   17  N   UNL     1      43.096 -15.993   2.236  1.00  0.00    -0.374 N 
HETATM   18  H   UNL     1      43.369 -16.416   1.358  1.00  0.00     0.161 HD
BRANCH  17  19
HETATM   19  C   UNL     1      43.354 -16.731   3.379  1.00  0.00     0.139 A 
HETATM   20  N   UNL     1      43.475 -16.116   4.521  1.00  0.00    -0.202 NA
HETATM   21  C   UNL     1      43.771 -16.793   5.674  1.00  0.00     0.200 A 
HETATM   22  S   UNL     1      43.922 -16.042   7.167  1.00  0.00    -0.039 SA
HETATM   23  N   UNL     1      43.979 -18.145   5.628  1.00  0.00    -0.331 N 
HETATM   24  C   UNL     1      43.850 -18.876   4.451  1.00  0.00     0.048 A 
HETATM   25  H   UNL     1      44.203 -18.601   6.502  1.00  0.00     0.168 HD
HETATM   26  C   UNL     1      43.510 -18.211   3.276  1.00  0.00     0.036 A 
HETATM   27  C   UNL     1      44.043 -20.257   4.459  1.00  0.00     0.030 A 
HETATM   28  C   UNL     1      43.328 -18.936   2.096  1.00  0.00     0.017 A 
HETATM   29  C   UNL     1      43.517 -20.320   2.098  1.00  0.00     0.001 A 
HETATM   30  C   UNL     1      43.881 -20.978   3.275  1.00  0.00     0.002 A 
ENDBRANCH  17  19
ENDBRANCH  16  17
ENDBRANCH   1  16
TORSDOF 10
ENDMDL
MODEL 3
REMARK VINA RESULT:      -7.1      3.010      5.536
REMARK  10 active torsions:
REMARK  status: ('A' for Active; 'I' for Inactive)
REMARK       I    between atoms: C_2  and  N_3 
REMARK    1  A    between atoms: N_3  and  C_4 
REMARK    2  A    between atoms: C_4  and  C_5 
REMARK    3  A    between atoms: C_5  and  N_6 
REMARK       I    between atoms: N_6  and  C_7 
REMARK    4  A    between atoms: C_7  and  C_8 
REMARK    5  A    between atoms: C_8  and  C_9 
REMARK    6  A    between atoms: C_9  and  C_10 
REMARK    7  A    between atoms: C_10  and  C_11 
REMARK    8  A    between atoms: C_11  and  C_12 
REMARK    9  A    between atoms: C_12  and  N_13 
REMARK   10  A    between atoms: N_13  and  C_14 
ROOT
HETATM    1  C   UNL     1      44.441 -12.400   6.686  1.00  0.00     0.020 C 
ENDROOT
BRANCH   1   2
HETATM    2  C   UNL     1      45.441 -11.256   6.482  1.00  0.00     0.002 C 
BRANCH   2   3
HETATM    3  C   UNL     1      46.122 -10.815   7.778  1.00  0.00     0.009 C 
BRANCH   3   4
HETATM    4  C   UNL     1      46.316  -9.301   7.829  1.00  0.00     0.103 C 
BRANCH   4   5
HETATM    5  C   UNL     1      45.268  -8.664   8.715  1.00  0.00     0.217 C 
HETATM    6  N   UNL     1      44.761  -9.501   9.680  1.00  0.00    -0.360 N 
HETATM    7  H   UNL     1      45.020 -10.478   9.686  1.00  0.00     0.162 HD
HETATM    8  O   UNL     1      44.886  -7.509   8.553  1.00  0.00    -0.274 OA
BRANCH   6   9
HETATM    9  C   UNL     1      43.663  -9.093  10.542  1.00  0.00     0.142 C 
BRANCH   9  10
HETATM   10  C   UNL     1      43.348 -10.135  11.623  1.00  0.00     0.142 C 
BRANCH  10  11
HETATM   11  N   UNL     1      41.926 -10.421  11.754  1.00  0.00    -0.360 N 
HETATM   12  C   UNL     1      41.198  -9.983  12.833  1.00  0.00     0.213 C 
HETATM   13  C   UNL     1      39.724 -10.283  12.752  1.00  0.00     0.117 C 
HETATM   14  O   UNL     1      41.690  -9.394  13.789  1.00  0.00    -0.274 OA
HETATM   15  H   UNL     1      41.451 -10.810  10.949  1.00  0.00     0.162 HD
ENDBRANCH  10  11
ENDBRANCH   9  10
ENDBRANCH   6   9
ENDBRANCH   4   5
ENDBRANCH   3   4
ENDBRANCH   2   3
ENDBRANCH   1   2
BRANCH   1  16
HETATM   16  C   UNL     1      43.463 -12.564   5.522  1.00  0.00     0.121 C 
BRANCH  16  17
HETATM   17  N   UNL     1      43.057 -13.958   5.400  1.00  0.00    -0.374 N 
HETATM   18  H   UNL     1      42.486 -14.286   6.169  1.00  0.00     0.161 HD
BRANCH  17  19
HETATM   19  C   UNL     1      42.787 -14.506   4.157  1.00  0.00     0.139 A 
HETATM   20  N   UNL     1      42.194 -13.777   3.254  1.00  0.00    -0.202 NA
HETATM   21  C   UNL     1      41.867 -14.281   2.024  1.00  0.00     0.200 A 
HETATM   22  S   UNL     1      41.116 -13.373   0.829  1.00  0.00    -0.039 SA
HETATM   23  N   UNL     1      42.137 -15.593   1.740  1.00  0.00    -0.331 N 
HETATM   24  C   UNL     1      42.784 -16.431   2.643  1.00  0.00     0.048 A 
HETATM   25  H   UNL     1      41.870 -15.923   0.823  1.00  0.00     0.168 HD
HETATM   26  C   UNL     1      43.160 -15.924   3.884  1.00  0.00     0.036 A 
HETATM   27  C   UNL     1      43.063 -17.752   2.297  1.00  0.00     0.030 A 
HETATM   28  C   UNL     1      43.854 -16.737   4.784  1.00  0.00     0.017 A 
HETATM   29  C   UNL     1      44.140 -18.061   4.441  1.00  0.00     0.001 A 
HETATM   30  C   UNL     1      43.739 -18.570   3.204  1.00  0.00     0.002 A 
ENDBRANCH  17  19
ENDBRANCH  16  17
ENDBRANCH   1  16
TORSDOF 10
ENDMDL
MODEL 4
REMARK VINA RESULT:      -6.9      1.997      3.048
REMARK  10 active torsions:
REMARK  status: ('A' for Active; 'I' for Inactive)
REMARK       I    between atoms: C_2  and  N_3 
REMARK    1  A    between atoms: N_3  and  C_4 
REMARK    2  A    between atoms: C_4  and  C_5 
REMARK    3  A    between atoms: C_5  and  N_6 
REMARK       I    between atoms: N_6  and  C_7 
REMARK    4  A    between atoms: C_7  and  C_8 
REMARK    5  A    between atoms: C_8  and  C_9 
REMARK    6  A    between atoms: C_9  and  C_10 
REMARK    7  A    between atoms: C_10  and  C_11 
REMARK    8  A    between atoms: C_11  and  C_12 
REMARK    9  A    between atoms: C_12  and  N_13 
REMARK   10  A    between atoms: N_13  and  C_14 
ROOT
HETATM    1  C   UNL     1      43.162 -13.382   2.748  1.00  0.00     0.020 C 
ENDROOT
BRANCH   1   2
HETATM    2  C   UNL     1      42.654 -12.369   3.780  1.00  0.00     0.002 C 
BRANCH   2   3
HETATM    3  C   UNL     1      43.752 -11.857   4.713  1.00  0.00     0.009 C 
BRANCH   3   4
HETATM    4  C   UNL     1      43.728 -12.572   6.061  1.00  0.00     0.103 C 
BRANCH   4   5
HETATM    5  C   UNL     1      44.196 -11.643   7.160  1.00  0.00     0.217 C 
HETATM    6  N   UNL     1      43.179 -11.007   7.832  1.00  0.00    -0.360 N 
HETATM    7  H   UNL     1      42.225 -11.104   7.511  1.00  0.00     0.162 HD
HETATM    8  O   UNL     1      45.385 -11.453   7.397  1.00  0.00    -0.274 OA
BRANCH   6   9
HETATM    9  C   UNL     1      43.449  -9.992   8.837  1.00  0.00     0.142 C 
BRANCH   9  10
HETATM   10  C   UNL     1      43.895 -10.596  10.176  1.00  0.00     0.142 C 
BRANCH  10  11
HETATM   11  N   UNL     1      42.859 -10.566  11.199  1.00  0.00    -0.360 N 
HETATM   12  C   UNL     1      42.784  -9.549  12.118  1.00  0.00     0.213 C 
HETATM   13  C   UNL     1      41.592  -9.627  13.036  1.00  0.00     0.117 C 
HETATM   14  O   UNL     1      43.608  -8.644  12.200  1.00  0.00    -0.274 OA
HETATM   15  H   UNL     1      42.097 -11.226  11.114  1.00  0.00     0.162 HD
ENDBRANCH  10  11
ENDBRANCH   9  10
ENDBRANCH   6   9
ENDBRANCH   4   5
ENDBRANCH   3   4
ENDBRANCH   2   3
ENDBRANCH   1   2
BRANCH   1  16
HETATM   16  C   UNL     1      42.362 -14.683   2.729  1.00  0.00     0.121 C 
BRANCH  16  17
HETATM   17  N   UNL     1      43.262 -15.828   2.768  1.00  0.00    -0.374 N 
HETATM   18  H   UNL     1      44.117 -15.694   2.242  1.00  0.00     0.161 HD
BRANCH  17  19
HETATM   19  C   UNL     1      43.360 -16.608   3.908  1.00  0.00     0.139 A 
HETATM   20  N   UNL     1      43.301 -16.038   5.078  1.00  0.00    -0.202 NA
HETATM   21  C   UNL     1      43.434 -16.756   6.236  1.00  0.00     0.200 A 
HETATM   22  S   UNL     1      43.351 -16.063   7.762  1.00  0.00    -0.039 SA
HETATM   23  N   UNL     1      43.667 -18.104   6.170  1.00  0.00    -0.331 N 
HETATM   24  C   UNL     1      43.724 -18.789   4.961  1.00  0.00     0.048 A 
HETATM   25  H   UNL     1      43.766 -18.591   7.050  1.00  0.00     0.168 HD
HETATM   26  C   UNL     1      43.551 -18.081   3.774  1.00  0.00     0.036 A 
HETATM   27  C   UNL     1      43.934 -20.168   4.946  1.00  0.00     0.030 A 
HETATM   28  C   UNL     1      43.557 -18.761   2.554  1.00  0.00     0.017 A 
HETATM   29  C   UNL     1      43.765 -20.143   2.532  1.00  0.00     0.001 A 
HETATM   30  C   UNL     1      43.960 -20.843   3.725  1.00  0.00     0.002 A 
ENDBRANCH  17  19
ENDBRANCH  16  17
ENDBRANCH   1  16
TORSDOF 10
ENDMDL
MODEL 5
REMARK VINA RESULT:      -6.9      4.300      7.302
REMARK  10 active torsions:
REMARK  status: ('A' for Active; 'I' for Inactive)
REMARK       I    between atoms: C_2  and  N_3 
REMARK    1  A    between atoms: N_3  and  C_4 
REMARK    2  A    between atoms: C_4  and  C_5 
REMARK    3  A    between atoms: C_5  and  N_6 
REMARK       I    between atoms: N_6  and  C_7 
REMARK    4  A    between atoms: C_7  and  C_8 
REMARK    5  A    between atoms: C_8  and  C_9 
REMARK    6  A    between atoms: C_9  and  C_10 
REMARK    7  A    between atoms: C_10  and  C_11 
REMARK    8  A    between atoms: C_11  and  C_12 
REMARK    9  A    between atoms: C_12  and  N_13 
REMARK   10  A    between atoms: N_13  and  C_14 
ROOT
HETATM    1  C   UNL     1      42.741 -14.962   1.933  1.00  0.00     0.020 C 
ENDROOT
BRANCH   1   2
HETATM    2  C   UNL     1      43.400 -16.309   1.612  1.00  0.00     0.002 C 
BRANCH   2   3
HETATM    3  C   UNL     1      42.830 -17.468   2.430  1.00  0.00     0.009 C 
BRANCH   3   4
HETATM    4  C   UNL     1      43.927 -18.415   2.910  1.00  0.00     0.103 C 
BRANCH   4   5
HETATM    5  C   UNL     1      44.065 -18.345   4.415  1.00  0.00     0.217 C 
HETATM    6  N   UNL     1      44.031 -17.069   4.924  1.00  0.00    -0.360 N 
HETATM    7  H   UNL     1      44.022 -16.276   4.297  1.00  0.00     0.162 HD
HETATM    8  O   UNL     1      44.229 -19.345   5.106  1.00  0.00    -0.274 OA
BRANCH   6   9
HETATM    9  C   UNL     1      44.267 -16.806   6.335  1.00  0.00     0.142 C 
BRANCH   9  10
HETATM   10  C   UNL     1      42.982 -16.888   7.170  1.00  0.00     0.142 C 
BRANCH  10  11
HETATM   11  N   UNL     1      42.160 -15.689   7.088  1.00  0.00    -0.360 N 
HETATM   12  C   UNL     1      41.154 -15.567   6.161  1.00  0.00     0.213 C 
HETATM   13  C   UNL     1      40.344 -14.303   6.286  1.00  0.00     0.117 C 
HETATM   14  O   UNL     1      40.920 -16.406   5.298  1.00  0.00    -0.274 OA
HETATM   15  H   UNL     1      42.241 -15.014   7.837  1.00  0.00     0.162 HD
ENDBRANCH  10  11
ENDBRANCH   9  10
ENDBRANCH   6   9
ENDBRANCH   4   5
ENDBRANCH   3   4
ENDBRANCH   2   3
ENDBRANCH   1   2
BRANCH   1  16
HETATM   16  C   UNL     1      41.340 -14.816   1.343  1.00  0.00     0.121 C 
BRANCH  16  17
HETATM   17  N   UNL     1      41.307 -13.713   0.392  1.00  0.00    -0.374 N 
HETATM   18  H   UNL     1      41.953 -13.819  -0.380  1.00  0.00     0.161 HD
BRANCH  17  19
HETATM   19  C   UNL     1      40.118 -13.060   0.111  1.00  0.00     0.139 A 
HETATM   20  N   UNL     1      39.693 -12.131   0.920  1.00  0.00    -0.202 NA
HETATM   21  C   UNL     1      38.505 -11.484   0.712  1.00  0.00     0.200 A 
HETATM   22  S   UNL     1      37.929 -10.274   1.722  1.00  0.00    -0.039 SA
HETATM   23  N   UNL     1      37.722 -11.839  -0.353  1.00  0.00    -0.331 N 
HETATM   24  C   UNL     1      38.113 -12.807  -1.272  1.00  0.00     0.048 A 
HETATM   25  H   UNL     1      36.850 -11.340  -0.462  1.00  0.00     0.168 HD
HETATM   26  C   UNL     1      39.337 -13.448  -1.099  1.00  0.00     0.036 A 
HETATM   27  C   UNL     1      37.294 -13.114  -2.358  1.00  0.00     0.030 A 
HETATM   28  C   UNL     1      39.768 -14.387  -2.040  1.00  0.00     0.017 A 
HETATM   29  C   UNL     1      38.953 -14.696  -3.132  1.00  0.00     0.001 A 
HETATM   30  C   UNL     1      37.716 -14.067  -3.287  1.00  0.00     0.002 A 
ENDBRANCH  17  19
ENDBRANCH  16  17
ENDBRANCH   1  16
TORSDOF 10
ENDMDL
MODEL 6
REMARK VINA RESULT:      -6.8      2.297      3.998
REMARK  10 active torsions:
REMARK  status: ('A' for Active; 'I' for Inactive)
REMARK       I    between atoms: C_2  and  N_3 
REMARK    1  A    between atoms: N_3  and  C_4 
REMARK    2  A    between atoms: C_4  and  C_5 
REMARK    3  A    between atoms: C_5  and  N_6 
REMARK       I    between atoms: N_6  and  C_7 
REMARK    4  A    between atoms: C_7  and  C_8 
REMARK    5  A    between atoms: C_8  and  C_9 
REMARK    6  A    between atoms: C_9  and  C_10 
REMARK    7  A    between atoms: C_10  and  C_11 
REMARK    8  A    between atoms: C_11  and  C_12 
REMARK    9  A    between atoms: C_12  and  N_13 
REMARK   10  A    between atoms: N_13  and  C_14 
ROOT
HETATM    1  C   UNL     1      43.165 -15.334   7.885  1.00  0.00     0.020 C 
ENDROOT
BRANCH   1   2
HETATM    2  C   UNL     1      42.881 -14.041   7.113  1.00  0.00     0.002 C 
BRANCH   2   3
HETATM    3  C   UNL     1      44.147 -13.362   6.589  1.00  0.00     0.009 C 
BRANCH   3   4
HETATM    4  C   UNL     1      43.924 -11.876   6.323  1.00  0.00     0.103 C 
BRANCH   4   5
HETATM    5  C   UNL     1      44.898 -11.043   7.129  1.00  0.00     0.217 C 
HETATM    6  N   UNL     1      44.306 -10.260   8.091  1.00  0.00    -0.360 N 
HETATM    7  H   UNL     1      43.299 -10.201   8.143  1.00  0.00     0.162 HD
HETATM    8  O   UNL     1      46.104 -11.048   6.908  1.00  0.00    -0.274 OA
BRANCH   6   9
HETATM    9  C   UNL     1      45.077  -9.310   8.877  1.00  0.00     0.142 C 
BRANCH   9  10
HETATM   10  C   UNL     1      44.184  -8.344   9.669  1.00  0.00     0.142 C 
BRANCH  10  11
HETATM   11  N   UNL     1      43.847  -8.826  11.001  1.00  0.00    -0.360 N 
HETATM   12  C   UNL     1      42.703  -9.547  11.238  1.00  0.00     0.213 C 
HETATM   13  C   UNL     1      42.566 -10.049  12.651  1.00  0.00     0.117 C 
HETATM   14  O   UNL     1      41.853  -9.772  10.383  1.00  0.00    -0.274 OA
HETATM   15  H   UNL     1      44.559  -8.759  11.717  1.00  0.00     0.162 HD
ENDBRANCH  10  11
ENDBRANCH   9  10
ENDBRANCH   6   9
ENDBRANCH   4   5
ENDBRANCH   3   4
ENDBRANCH   2   3
ENDBRANCH   1   2
BRANCH   1  16
HETATM   16  C   UNL     1      42.765 -16.596   7.122  1.00  0.00     0.121 C 
BRANCH  16  17
HETATM   17  N   UNL     1      43.862 -17.037   6.269  1.00  0.00    -0.374 N 
HETATM   18  H   UNL     1      44.447 -17.747   6.691  1.00  0.00     0.161 HD
BRANCH  17  19
HETATM   19  C   UNL     1      43.700 -17.111   4.896  1.00  0.00     0.139 A 
HETATM   20  N   UNL     1      43.492 -16.017   4.218  1.00  0.00    -0.202 NA
HETATM   21  C   UNL     1      43.284 -16.038   2.865  1.00  0.00     0.200 A 
HETATM   22  S   UNL     1      43.025 -14.652   1.954  1.00  0.00    -0.039 SA
HETATM   23  N   UNL     1      43.262 -17.237   2.205  1.00  0.00    -0.331 N 
HETATM   24  C   UNL     1      43.494 -18.446   2.853  1.00  0.00     0.048 A 
HETATM   25  H   UNL     1      43.097 -17.204   1.208  1.00  0.00     0.168 HD
HETATM   26  C   UNL     1      43.747 -18.441   4.222  1.00  0.00     0.036 A 
HETATM   27  C   UNL     1      43.490 -19.639   2.133  1.00  0.00     0.030 A 
HETATM   28  C   UNL     1      44.031 -19.640   4.880  1.00  0.00     0.017 A 
HETATM   29  C   UNL     1      44.031 -20.839   4.163  1.00  0.00     0.001 A 
HETATM   30  C   UNL     1      43.754 -20.840   2.794  1.00  0.00     0.002 A 
ENDBRANCH  17  19
ENDBRANCH  16  17
ENDBRANCH   1  16
TORSDOF 10
ENDMDL
MODEL 7
REMARK VINA RESULT:      -6.6      3.009      7.867
REMARK  10 active torsions:
REMARK  status: ('A' for Active; 'I' for Inactive)
REMARK       I    between atoms: C_2  and  N_3 
REMARK    1  A    between atoms: N_3  and  C_4 
REMARK    2  A    between atoms: C_4  and  C_5 
REMARK    3  A    between atoms: C_5  and  N_6 
REMARK       I    between atoms: N_6  and  C_7 
REMARK    4  A    between atoms: C_7  and  C_8 
REMARK    5  A    between atoms: C_8  and  C_9 
REMARK    6  A    between atoms: C_9  and  C_10 
REMARK    7  A    between atoms: C_10  and  C_11 
REMARK    8  A    between atoms: C_11  and  C_12 
REMARK    9  A    between atoms: C_12  and  N_13 
REMARK   10  A    between atoms: N_13  and  C_14 
ROOT
HETATM    1  C   UNL     1      42.530 -16.577   5.296  1.00  0.00     0.020 C 
ENDROOT
BRANCH   1   2
HETATM    2  C   UNL     1      43.418 -16.890   4.086  1.00  0.00     0.002 C 
BRANCH   2   3
HETATM    3  C   UNL     1      42.676 -16.791   2.753  1.00  0.00     0.009 C 
BRANCH   3   4
HETATM    4  C   UNL     1      43.410 -15.891   1.762  1.00  0.00     0.103 C 
BRANCH   4   5
HETATM    5  C   UNL     1      42.801 -14.505   1.756  1.00  0.00     0.217 C 
HETATM    6  N   UNL     1      41.826 -14.323   0.804  1.00  0.00    -0.360 N 
HETATM    7  H   UNL     1      41.644 -15.047   0.124  1.00  0.00     0.162 HD
HETATM    8  O   UNL     1      43.180 -13.619   2.515  1.00  0.00    -0.274 OA
BRANCH   6   9
HETATM    9  C   UNL     1      41.218 -13.021   0.579  1.00  0.00     0.142 C 
BRANCH   9  10
HETATM   10  C   UNL     1      39.693 -13.105   0.423  1.00  0.00     0.142 C 
BRANCH  10  11
HETATM   11  N   UNL     1      39.263 -14.129  -0.519  1.00  0.00    -0.360 N 
HETATM   12  C   UNL     1      39.118 -13.861  -1.858  1.00  0.00     0.213 C 
HETATM   13  C   UNL     1      38.763 -15.061  -2.697  1.00  0.00     0.117 C 
HETATM   14  O   UNL     1      39.261 -12.746  -2.347  1.00  0.00    -0.274 OA
HETATM   15  H   UNL     1      39.231 -15.085  -0.189  1.00  0.00     0.162 HD
ENDBRANCH  10  11
ENDBRANCH   9  10
ENDBRANCH   6   9
ENDBRANCH   4   5
ENDBRANCH   3   4
ENDBRANCH   2   3
ENDBRANCH   1   2
BRANCH   1  16
HETATM   16  C   UNL     1      43.059 -15.428   6.155  1.00  0.00     0.121 C 
BRANCH  16  17
HETATM   17  N   UNL     1      43.099 -14.196   5.378  1.00  0.00    -0.374 N 
HETATM   18  H   UNL     1      43.000 -14.339   4.380  1.00  0.00     0.161 HD
BRANCH  17  19
HETATM   19  C   UNL     1      42.560 -13.026   5.885  1.00  0.00     0.139 A 
HETATM   20  N   UNL     1      41.282 -12.804   5.757  1.00  0.00    -0.202 NA
HETATM   21  C   UNL     1      40.705 -11.645   6.203  1.00  0.00     0.200 A 
HETATM   22  S   UNL     1      39.063 -11.326   6.069  1.00  0.00    -0.039 SA
HETATM   23  N   UNL     1      41.488 -10.678   6.773  1.00  0.00    -0.331 N 
HETATM   24  C   UNL     1      42.856 -10.847   6.963  1.00  0.00     0.048 A 
HETATM   25  H   UNL     1      41.020  -9.836   7.080  1.00  0.00     0.168 HD
HETATM   26  C   UNL     1      43.454 -12.035   6.551  1.00  0.00     0.036 A 
HETATM   27  C   UNL     1      43.608  -9.844   7.574  1.00  0.00     0.030 A 
HETATM   28  C   UNL     1      44.817 -12.242   6.779  1.00  0.00     0.017 A 
HETATM   29  C   UNL     1      45.575 -11.242   7.394  1.00  0.00     0.001 A 
HETATM   30  C   UNL     1      44.973 -10.043   7.783  1.00  0.00     0.002 A 
ENDBRANCH  17  19
ENDBRANCH  16  17
ENDBRANCH   1  16
TORSDOF 10
ENDMDL
MODEL 8
REMARK VINA RESULT:      -6.5      1.792      2.271
REMARK  10 active torsions:
REMARK  status: ('A' for Active; 'I' for Inactive)
REMARK       I    between atoms: C_2  and  N_3 
REMARK    1  A    between atoms: N_3  and  C_4 
REMARK    2  A    between atoms: C_4  and  C_5 
REMARK    3  A    between atoms: C_5  and  N_6 
REMARK       I    between atoms: N_6  and  C_7 
REMARK    4  A    between atoms: C_7  and  C_8 
REMARK    5  A    between atoms: C_8  and  C_9 
REMARK    6  A    between atoms: C_9  and  C_10 
REMARK    7  A    between atoms: C_10  and  C_11 
REMARK    8  A    between atoms: C_11  and  C_12 
REMARK    9  A    between atoms: C_12  and  N_13 
REMARK   10  A    between atoms: N_13  and  C_14 
ROOT
HETATM    1  C   UNL     1      39.933 -15.431   1.776  1.00  0.00     0.020 C 
ENDROOT
BRANCH   1   2
HETATM    2  C   UNL     1      40.607 -14.989   0.472  1.00  0.00     0.002 C 
BRANCH   2   3
HETATM    3  C   UNL     1      40.865 -13.483   0.408  1.00  0.00     0.009 C 
BRANCH   3   4
HETATM    4  C   UNL     1      39.764 -12.690   1.108  1.00  0.00     0.103 C 
BRANCH   4   5
HETATM    5  C   UNL     1      40.358 -11.763   2.146  1.00  0.00     0.217 C 
HETATM    6  N   UNL     1      41.724 -11.856   2.268  1.00  0.00    -0.360 N 
HETATM    7  H   UNL     1      42.228 -12.571   1.762  1.00  0.00     0.162 HD
HETATM    8  O   UNL     1      39.666 -11.025   2.839  1.00  0.00    -0.274 OA
BRANCH   6   9
HETATM    9  C   UNL     1      42.448 -11.126   3.297  1.00  0.00     0.142 C 
BRANCH   9  10
HETATM   10  C   UNL     1      43.819 -11.744   3.601  1.00  0.00     0.142 C 
BRANCH  10  11
HETATM   11  N   UNL     1      44.334 -11.392   4.916  1.00  0.00    -0.360 N 
HETATM   12  C   UNL     1      44.038 -12.138   6.030  1.00  0.00     0.213 C 
HETATM   13  C   UNL     1      44.737 -11.686   7.286  1.00  0.00     0.117 C 
HETATM   14  O   UNL     1      43.272 -13.096   6.023  1.00  0.00    -0.274 OA
HETATM   15  H   UNL     1      45.050 -10.677   4.963  1.00  0.00     0.162 HD
ENDBRANCH  10  11
ENDBRANCH   9  10
ENDBRANCH   6   9
ENDBRANCH   4   5
ENDBRANCH   3   4
ENDBRANCH   2   3
ENDBRANCH   1   2
BRANCH   1  16
HETATM   16  C   UNL     1      40.850 -15.341   2.994  1.00  0.00     0.121 C 
BRANCH  16  17
HETATM   17  N   UNL     1      42.092 -16.061   2.743  1.00  0.00    -0.374 N 
HETATM   18  H   UNL     1      42.731 -15.572   2.130  1.00  0.00     0.161 HD
BRANCH  17  19
HETATM   19  C   UNL     1      42.667 -16.839   3.734  1.00  0.00     0.139 A 
HETATM   20  N   UNL     1      42.834 -16.336   4.924  1.00  0.00    -0.202 NA
HETATM   21  C   UNL     1      43.434 -17.046   5.929  1.00  0.00     0.200 A 
HETATM   22  S   UNL     1      43.657 -16.440   7.477  1.00  0.00    -0.039 SA
HETATM   23  N   UNL     1      43.902 -18.308   5.675  1.00  0.00    -0.331 N 
HETATM   24  C   UNL     1      43.745 -18.923   4.437  1.00  0.00     0.048 A 
HETATM   25  H   UNL     1      44.345 -18.791   6.444  1.00  0.00     0.168 HD
HETATM   26  C   UNL     1      43.101 -18.230   3.415  1.00  0.00     0.036 A 
HETATM   27  C   UNL     1      44.212 -20.221   4.235  1.00  0.00     0.030 A 
HETATM   28  C   UNL     1      42.891 -18.851   2.181  1.00  0.00     0.017 A 
HETATM   29  C   UNL     1      43.355 -20.152   1.974  1.00  0.00     0.001 A 
HETATM   30  C   UNL     1      44.021 -20.833   2.996  1.00  0.00     0.002 A 
ENDBRANCH  17  19
ENDBRANCH  16  17
ENDBRANCH   1  16
TORSDOF 10
ENDMDL
MODEL 9
REMARK VINA RESULT:      -6.5      2.444      4.119
REMARK  10 active torsions:
REMARK  status: ('A' for Active; 'I' for Inactive)
REMARK       I    between atoms: C_2  and  N_3 
REMARK    1  A    between atoms: N_3  and  C_4 
REMARK    2  A    between atoms: C_4  and  C_5 
REMARK    3  A    between atoms: C_5  and  N_6 
REMARK       I    between atoms: N_6  and  C_7 
REMARK    4  A    between atoms: C_7  and  C_8 
REMARK    5  A    between atoms: C_8  and  C_9 
REMARK    6  A    between atoms: C_9  and  C_10 
REMARK    7  A    between atoms: C_10  and  C_11 
REMARK    8  A    between atoms: C_11  and  C_12 
REMARK    9  A    between atoms: C_12  and  N_13 
REMARK   10  A    between atoms: N_13  and  C_14 
ROOT
HETATM    1  C   UNL     1      42.793 -14.063   7.238  1.00  0.00     0.020 C 
ENDROOT
BRANCH   1   2
HETATM    2  C   UNL     1      44.038 -13.287   6.794  1.00  0.00     0.002 C 
BRANCH   2   3
HETATM    3  C   UNL     1      43.718 -12.113   5.868  1.00  0.00     0.009 C 
BRANCH   3   4
HETATM    4  C   UNL     1      42.223 -11.806   5.840  1.00  0.00     0.103 C 
BRANCH   4   5
HETATM    5  C   UNL     1      41.965 -10.397   6.327  1.00  0.00     0.217 C 
HETATM    6  N   UNL     1      41.510 -10.322   7.623  1.00  0.00    -0.360 N 
HETATM    7  H   UNL     1      41.284 -11.169   8.126  1.00  0.00     0.162 HD
HETATM    8  O   UNL     1      42.116  -9.415   5.607  1.00  0.00    -0.274 OA
BRANCH   6   9
HETATM    9  C   UNL     1      41.100  -9.059   8.214  1.00  0.00     0.142 C 
BRANCH   9  10
HETATM   10  C   UNL     1      42.049  -8.596   9.327  1.00  0.00     0.142 C 
BRANCH  10  11
HETATM   11  N   UNL     1      43.374  -9.194   9.244  1.00  0.00    -0.360 N 
HETATM   12  C   UNL     1      44.467  -8.471   8.833  1.00  0.00     0.213 C 
HETATM   13  C   UNL     1      45.771  -9.221   8.904  1.00  0.00     0.117 C 
HETATM   14  O   UNL     1      44.405  -7.312   8.438  1.00  0.00    -0.274 OA
HETATM   15  H   UNL     1      43.501 -10.111   9.654  1.00  0.00     0.162 HD
ENDBRANCH  10  11
ENDBRANCH   9  10
ENDBRANCH   6   9
ENDBRANCH   4   5
ENDBRANCH   3   4
ENDBRANCH   2   3
ENDBRANCH   1   2
BRANCH   1  16
HETATM   16  C   UNL     1      43.017 -15.572   7.324  1.00  0.00     0.121 C 
BRANCH  16  17
HETATM   17  N   UNL     1      44.113 -15.968   6.449  1.00  0.00    -0.374 N 
HETATM   18  H   UNL     1      45.020 -15.955   6.899  1.00  0.00     0.161 HD
BRANCH  17  19
HETATM   19  C   UNL     1      43.924 -16.937   5.478  1.00  0.00     0.139 A 
HETATM   20  N   UNL     1      44.108 -18.191   5.784  1.00  0.00    -0.202 NA
HETATM   21  C   UNL     1      43.974 -19.185   4.853  1.00  0.00     0.200 A 
HETATM   22  S   UNL     1      44.189 -20.812   5.208  1.00  0.00    -0.039 SA
HETATM   23  N   UNL     1      43.672 -18.860   3.558  1.00  0.00    -0.331 N 
HETATM   24  C   UNL     1      43.442 -17.548   3.156  1.00  0.00     0.048 A 
HETATM   25  H   UNL     1      43.591 -19.626   2.904  1.00  0.00     0.168 HD
HETATM   26  C   UNL     1      43.534 -16.527   4.098  1.00  0.00     0.036 A 
HETATM   27  C   UNL     1      43.108 -17.269   1.831  1.00  0.00     0.030 A 
HETATM   28  C   UNL     1      43.258 -15.210   3.723  1.00  0.00     0.017 A 
HETATM   29  C   UNL     1      42.920 -14.924   2.398  1.00  0.00     0.001 A 
HETATM   30  C   UNL     1      42.852 -15.950   1.453  1.00  0.00     0.002 A 
ENDBRANCH  17  19
ENDBRANCH  16  17
ENDBRANCH   1  16
TORSDOF 10
ENDMDL
MODEL 10
REMARK VINA RESULT:      -6.5      3.646      6.439
REMARK  10 active torsions:
REMARK  status: ('A' for Active; 'I' for Inactive)
REMARK       I    between atoms: C_2  and  N_3 
REMARK    1  A    between atoms: N_3  and  C_4 
REMARK    2  A    between atoms: C_4  and  C_5 
REMARK    3  A    between atoms: C_5  and  N_6 
REMARK       I    between atoms: N_6  and  C_7 
REMARK    4  A    between atoms: C_7  and  C_8 
REMARK    5  A    between atoms: C_8  and  C_9 
REMARK    6  A    between atoms: C_9  and  C_10 
REMARK    7  A    between atoms: C_10  and  C_11 
REMARK    8  A    between atoms: C_11  and  C_12 
REMARK    9  A    between atoms: C_12  and  N_13 
REMARK   10  A    between atoms: N_13  and  C_14 
ROOT
HETATM    1  C   UNL     1      41.316 -14.832   1.570  1.00  0.00     0.020 C 
ENDROOT
BRANCH   1   2
HETATM    2  C   UNL     1      42.062 -13.651   2.202  1.00  0.00     0.002 C 
BRANCH   2   3
HETATM    3  C   UNL     1      41.554 -12.291   1.722  1.00  0.00     0.009 C 
BRANCH   3   4
HETATM    4  C   UNL     1      40.066 -12.331   1.381  1.00  0.00     0.103 C 
BRANCH   4   5
HETATM    5  C   UNL     1      39.828 -11.776  -0.007  1.00  0.00     0.217 C 
HETATM    6  N   UNL     1      38.504 -11.566  -0.309  1.00  0.00    -0.360 N 
HETATM    7  H   UNL     1      37.785 -11.871   0.333  1.00  0.00     0.162 HD
HETATM    8  O   UNL     1      40.743 -11.571  -0.798  1.00  0.00    -0.274 OA
BRANCH   6   9
HETATM    9  C   UNL     1      38.083 -11.148  -1.637  1.00  0.00     0.142 C 
BRANCH   9  10
HETATM   10  C   UNL     1      37.262 -12.225  -2.358  1.00  0.00     0.142 C 
BRANCH  10  11
HETATM   11  N   UNL     1      37.635 -13.583  -1.987  1.00  0.00    -0.360 N 
HETATM   12  C   UNL     1      38.551 -14.303  -2.713  1.00  0.00     0.213 C 
HETATM   13  C   UNL     1      38.890 -15.649  -2.128  1.00  0.00     0.117 C 
HETATM   14  O   UNL     1      39.062 -13.900  -3.753  1.00  0.00    -0.274 OA
HETATM   15  H   UNL     1      37.324 -13.924  -1.086  1.00  0.00     0.162 HD
ENDBRANCH  10  11
ENDBRANCH   9  10
ENDBRANCH   6   9
ENDBRANCH   4   5
ENDBRANCH   3   4
ENDBRANCH   2   3
ENDBRANCH   1   2
BRANCH   1  16
HETATM   16  C   UNL     1      41.997 -16.178   1.810  1.00  0.00     0.121 C 
BRANCH  16  17
HETATM   17  N   UNL     1      43.170 -16.005   2.657  1.00  0.00    -0.374 N 
HETATM   18  H   UNL     1      43.573 -15.077   2.613  1.00  0.00     0.161 HD
BRANCH  17  19
HETATM   19  C   UNL     1      43.258 -16.653   3.878  1.00  0.00     0.139 A 
HETATM   20  N   UNL     1      43.132 -15.965   4.977  1.00  0.00    -0.202 NA
HETATM   21  C   UNL     1      43.252 -16.549   6.209  1.00  0.00     0.200 A 
HETATM   22  S   UNL     1      43.083 -15.701   7.648  1.00  0.00    -0.039 SA
HETATM   23  N   UNL     1      43.544 -17.883   6.297  1.00  0.00    -0.331 N 
HETATM   24  C   UNL     1      43.675 -18.690   5.172  1.00  0.00     0.048 A 
HETATM   25  H   UNL     1      43.631 -18.269   7.227  1.00  0.00     0.168 HD
HETATM   26  C   UNL     1      43.517 -18.122   3.911  1.00  0.00     0.036 A 
HETATM   27  C   UNL     1      43.945 -20.051   5.313  1.00  0.00     0.030 A 
HETATM   28  C   UNL     1      43.597 -18.927   2.771  1.00  0.00     0.017 A 
HETATM   29  C   UNL     1      43.864 -20.292   2.907  1.00  0.00     0.001 A 
HETATM   30  C   UNL     1      44.045 -20.851   4.174  1.00  0.00     0.002 A 
ENDBRANCH  17  19
ENDBRANCH  16  17
ENDBRANCH   1  16
TORSDOF 10
ENDMDL
