MODEL 1
REMARK VINA RESULT:      -9.0      0.000      0.000
REMARK  5 active torsions:
REMARK  status: ('A' for Active; 'I' for Inactive)
REMARK    1  A    between atoms: O_2  and  C_3 
REMARK    2  A    between atoms: C_4  and  C_5 
REMARK    3  A    between atoms: C_5  and  C_6 
REMARK       I    between atoms: C_6  and  N_7 
REMARK    4  A    between atoms: N_7  and  C_8 
REMARK    5  A    between atoms: C_9  and  O_10 
ROOT
HETATM    1  C   UNL     1      42.657 -14.929   2.057  1.00  0.00     0.071 A 
HETATM    2  C   UNL     1      42.887 -14.788   3.439  1.00  0.00     0.096 A 
HETATM    3  C   UNL     1      43.252 -15.875   4.246  1.00  0.00     0.054 A 
HETATM    4  C   UNL     1      43.323 -17.148   3.656  1.00  0.00     0.014 A 
HETATM    5  C   UNL     1      43.026 -17.270   2.303  1.00  0.00     0.089 A 
HETATM    6  O   UNL     1      43.137 -18.571   1.911  1.00  0.00    -0.309 OA
HETATM    7  C   UNL     1      43.503 -19.291   3.009  1.00  0.00     0.087 A 
HETATM    8  C   UNL     1      43.627 -18.460   4.118  1.00  0.00     0.011 A 
HETATM    9  C   UNL     1      43.725 -20.666   3.039  1.00  0.00     0.038 A 
HETATM   10  C   UNL     1      44.089 -21.216   4.273  1.00  0.00     0.003 A 
HETATM   11  C   UNL     1      44.218 -20.416   5.412  1.00  0.00     0.001 A 
HETATM   12  C   UNL     1      43.990 -19.034   5.351  1.00  0.00     0.015 A 
HETATM   13  C   UNL     1      42.672 -16.203   1.474  1.00  0.00     0.070 A 
ENDROOT
BRANCH   1  14
HETATM   14  N   UNL     1      42.322 -13.830   1.236  1.00  0.00    -0.324 N 
HETATM   15  C   UNL     1      41.022 -13.405   1.012  1.00  0.00     0.226 C 
HETATM   16  O   UNL     1      40.052 -13.703   1.709  1.00  0.00    -0.273 OA
HETATM   17  H   UNL     1      43.053 -13.163   1.011  1.00  0.00     0.169 HD
BRANCH  15  18
HETATM   18  C   UNL     1      40.847 -12.559  -0.232  1.00  0.00     0.144 C 
BRANCH  18  19
HETATM   19  C   UNL     1      39.732 -12.971  -1.159  1.00  0.00    -0.016 A 
HETATM   20  C   UNL     1      38.581 -12.187  -1.320  1.00  0.00     0.074 A 
HETATM   21  C   UNL     1      37.566 -12.569  -2.199  1.00  0.00     0.037 A 
HETATM   22  C   UNL     1      37.706 -13.730  -2.956  1.00  0.00     0.003 A 
HETATM   23  C   UNL     1      38.845 -14.521  -2.811  1.00  0.00     0.001 A 
HETATM   24  C   UNL     1      39.849 -14.149  -1.913  1.00  0.00     0.010 A 
BRANCH  20  25
HETATM   25  O   UNL     1      38.410 -11.079  -0.533  1.00  0.00    -0.355 OA
HETATM   26  C   UNL     1      37.397 -11.314   0.448  1.00  0.00     0.210 C 
ENDBRANCH  20  25
ENDBRANCH  18  19
ENDBRANCH  15  18
ENDBRANCH   1  14
BRANCH   2  27
HETATM   27  O   UNL     1      42.703 -13.587   4.085  1.00  0.00    -0.354 OA
HETATM   28  C   UNL     1      41.578 -13.668   4.961  1.00  0.00     0.210 C 
ENDBRANCH   2  27
TORSDOF 5
ENDMDL
MODEL 2
REMARK VINA RESULT:      -8.5      3.045      6.328
REMARK  5 active torsions:
REMARK  status: ('A' for Active; 'I' for Inactive)
REMARK    1  A    between atoms: O_2  and  C_3 
REMARK    2  A    between atoms: C_4  and  C_5 
REMARK    3  A    between atoms: C_5  and  C_6 
REMARK       I    between atoms: C_6  and  N_7 
REMARK    4  A    between atoms: N_7  and  C_8 
REMARK    5  A    between atoms: C_9  and  O_10 
ROOT
HETATM    1  C   UNL     1      42.433 -14.299   3.623  1.00  0.00     0.071 A 
HETATM    2  C   UNL     1      42.209 -14.778   2.317  1.00  0.00     0.096 A 
HETATM    3  C   UNL     1      42.420 -16.121   1.973  1.00  0.00     0.054 A 
HETATM    4  C   UNL     1      42.931 -16.988   2.952  1.00  0.00     0.014 A 
HETATM    5  C   UNL     1      43.206 -16.474   4.215  1.00  0.00     0.089 A 
HETATM    6  O   UNL     1      43.702 -17.452   5.025  1.00  0.00    -0.309 OA
HETATM    7  C   UNL     1      43.749 -18.597   4.288  1.00  0.00     0.087 A 
HETATM    8  C   UNL     1      43.289 -18.365   2.996  1.00  0.00     0.011 A 
HETATM    9  C   UNL     1      44.195 -19.837   4.743  1.00  0.00     0.038 A 
HETATM   10  C   UNL     1      44.170 -20.890   3.822  1.00  0.00     0.003 A 
HETATM   11  C   UNL     1      43.720 -20.696   2.513  1.00  0.00     0.001 A 
HETATM   12  C   UNL     1      43.275 -19.438   2.083  1.00  0.00     0.015 A 
HETATM   13  C   UNL     1      42.995 -15.145   4.589  1.00  0.00     0.070 A 
ENDROOT
BRANCH   1  14
HETATM   14  N   UNL     1      42.190 -12.955   3.982  1.00  0.00    -0.324 N 
HETATM   15  C   UNL     1      43.106 -11.932   3.795  1.00  0.00     0.226 C 
HETATM   16  O   UNL     1      44.077 -11.983   3.041  1.00  0.00    -0.273 OA
HETATM   17  H   UNL     1      41.229 -12.669   4.135  1.00  0.00     0.169 HD
BRANCH  15  18
HETATM   18  C   UNL     1      42.862 -10.710   4.657  1.00  0.00     0.144 C 
BRANCH  18  19
HETATM   19  C   UNL     1      43.548 -10.702   5.999  1.00  0.00    -0.016 A 
HETATM   20  C   UNL     1      42.922 -10.185   7.142  1.00  0.00     0.074 A 
HETATM   21  C   UNL     1      43.559 -10.203   8.383  1.00  0.00     0.037 A 
HETATM   22  C   UNL     1      44.825 -10.773   8.503  1.00  0.00     0.003 A 
HETATM   23  C   UNL     1      45.462 -11.295   7.379  1.00  0.00     0.001 A 
HETATM   24  C   UNL     1      44.831 -11.252   6.132  1.00  0.00     0.010 A 
BRANCH  20  25
HETATM   25  O   UNL     1      41.705  -9.567   7.017  1.00  0.00    -0.355 OA
HETATM   26  C   UNL     1      41.839  -8.156   7.202  1.00  0.00     0.210 C 
ENDBRANCH  20  25
ENDBRANCH  18  19
ENDBRANCH  15  18
ENDBRANCH   1  14
BRANCH   2  27
HETATM   27  O   UNL     1      41.833 -13.940   1.293  1.00  0.00    -0.354 OA
HETATM   28  C   UNL     1      40.774 -14.532   0.540  1.00  0.00     0.210 C 
ENDBRANCH   2  27
TORSDOF 5
ENDMDL
MODEL 3
REMARK VINA RESULT:      -8.4      4.393      7.738
REMARK  5 active torsions:
REMARK  status: ('A' for Active; 'I' for Inactive)
REMARK    1  A    between atoms: O_2  and  C_3 
REMARK    2  A    between atoms: C_4  and  C_5 
REMARK    3  A    between atoms: C_5  and  C_6 
REMARK       I    between atoms: C_6  and  N_7 
REMARK    4  A    between atoms: N_7  and  C_8 
REMARK    5  A    between atoms: C_9  and  O_10 
ROOT
HETATM    1  C   UNL     1      43.176 -13.871   6.086  1.00  0.00     0.071 A 
HETATM    2  C   UNL     1      42.759 -13.721   4.750  1.00  0.00     0.096 A 
HETATM    3  C   UNL     1      42.728 -14.801   3.856  1.00  0.00     0.054 A 
HETATM    4  C   UNL     1      43.191 -16.049   4.303  1.00  0.00     0.014 A 
HETATM    5  C   UNL     1      43.659 -16.155   5.609  1.00  0.00     0.089 A 
HETATM    6  O   UNL     1      44.073 -17.430   5.860  1.00  0.00    -0.309 OA
HETATM    7  C   UNL     1      43.875 -18.148   4.719  1.00  0.00     0.087 A 
HETATM    8  C   UNL     1      43.336 -17.341   3.722  1.00  0.00     0.011 A 
HETATM    9  C   UNL     1      44.166 -19.500   4.551  1.00  0.00     0.038 A 
HETATM   10  C   UNL     1      43.894 -20.050   3.294  1.00  0.00     0.003 A 
HETATM   11  C   UNL     1      43.358 -19.271   2.264  1.00  0.00     0.001 A 
HETATM   12  C   UNL     1      43.072 -17.913   2.462  1.00  0.00     0.015 A 
HETATM   13  C   UNL     1      43.689 -15.100   6.523  1.00  0.00     0.070 A 
ENDROOT
BRANCH   1  14
HETATM   14  N   UNL     1      43.176 -12.793   6.999  1.00  0.00    -0.324 N 
HETATM   15  C   UNL     1      44.252 -11.938   7.176  1.00  0.00     0.226 C 
HETATM   16  O   UNL     1      45.185 -11.802   6.386  1.00  0.00    -0.273 OA
HETATM   17  H   UNL     1      42.282 -12.462   7.346  1.00  0.00     0.169 HD
BRANCH  15  18
HETATM   18  C   UNL     1      44.240 -11.184   8.491  1.00  0.00     0.144 C 
BRANCH  18  19
HETATM   19  C   UNL     1      43.624  -9.808   8.457  1.00  0.00    -0.016 A 
HETATM   20  C   UNL     1      43.796  -8.900   9.511  1.00  0.00     0.074 A 
HETATM   21  C   UNL     1      43.239  -7.621   9.458  1.00  0.00     0.037 A 
HETATM   22  C   UNL     1      42.528  -7.223   8.328  1.00  0.00     0.003 A 
HETATM   23  C   UNL     1      42.349  -8.111   7.269  1.00  0.00     0.001 A 
HETATM   24  C   UNL     1      42.887  -9.400   7.336  1.00  0.00     0.010 A 
BRANCH  20  25
HETATM   25  O   UNL     1      44.440  -9.309  10.649  1.00  0.00    -0.355 OA
HETATM   26  C   UNL     1      43.510  -9.451  11.726  1.00  0.00     0.210 C 
ENDBRANCH  20  25
ENDBRANCH  18  19
ENDBRANCH  15  18
ENDBRANCH   1  14
BRANCH   2  27
HETATM   27  O   UNL     1      42.421 -12.492   4.230  1.00  0.00    -0.354 OA
HETATM   28  C   UNL     1      43.437 -12.044   3.332  1.00  0.00     0.210 C 
ENDBRANCH   2  27
TORSDOF 5
ENDMDL
MODEL 4
REMARK VINA RESULT:      -8.4      4.283      7.242
REMARK  5 active torsions:
REMARK  status: ('A' for Active; 'I' for Inactive)
REMARK    1  A    between atoms: O_2  and  C_3 
REMARK    2  A    between atoms: C_4  and  C_5 
REMARK    3  A    between atoms: C_5  and  C_6 
REMARK       I    between atoms: C_6  and  N_7 
REMARK    4  A    between atoms: N_7  and  C_8 
REMARK    5  A    between atoms: C_9  and  O_10 
ROOT
HETATM    1  C   UNL     1      43.210 -13.925   6.067  1.00  0.00     0.071 A 
HETATM    2  C   UNL     1      42.789 -13.777   4.731  1.00  0.00     0.096 A 
HETATM    3  C   UNL     1      42.752 -14.860   3.840  1.00  0.00     0.054 A 
HETATM    4  C   UNL     1      43.214 -16.107   4.289  1.00  0.00     0.014 A 
HETATM    5  C   UNL     1      43.686 -16.211   5.593  1.00  0.00     0.089 A 
HETATM    6  O   UNL     1      44.099 -17.486   5.845  1.00  0.00    -0.309 OA
HETATM    7  C   UNL     1      43.895 -18.206   4.707  1.00  0.00     0.087 A 
HETATM    8  C   UNL     1      43.354 -17.401   3.710  1.00  0.00     0.011 A 
HETATM    9  C   UNL     1      44.183 -19.560   4.542  1.00  0.00     0.038 A 
HETATM   10  C   UNL     1      43.905 -20.112   3.286  1.00  0.00     0.003 A 
HETATM   11  C   UNL     1      43.367 -19.334   2.257  1.00  0.00     0.001 A 
HETATM   12  C   UNL     1      43.085 -17.975   2.453  1.00  0.00     0.015 A 
HETATM   13  C   UNL     1      43.722 -15.154   6.505  1.00  0.00     0.070 A 
ENDROOT
BRANCH   1  14
HETATM   14  N   UNL     1      43.215 -12.845   6.976  1.00  0.00    -0.324 N 
HETATM   15  C   UNL     1      44.266 -11.950   7.099  1.00  0.00     0.226 C 
HETATM   16  O   UNL     1      45.152 -11.782   6.262  1.00  0.00    -0.273 OA
HETATM   17  H   UNL     1      42.328 -12.546   7.368  1.00  0.00     0.169 HD
BRANCH  15  18
HETATM   18  C   UNL     1      44.292 -11.193   8.412  1.00  0.00     0.144 C 
BRANCH  18  19
HETATM   19  C   UNL     1      43.814  -9.764   8.359  1.00  0.00    -0.016 A 
HETATM   20  C   UNL     1      42.584  -9.421   7.782  1.00  0.00     0.074 A 
HETATM   21  C   UNL     1      42.142  -8.097   7.759  1.00  0.00     0.037 A 
HETATM   22  C   UNL     1      42.917  -7.099   8.347  1.00  0.00     0.003 A 
HETATM   23  C   UNL     1      44.142  -7.422   8.929  1.00  0.00     0.001 A 
HETATM   24  C   UNL     1      44.592  -8.745   8.928  1.00  0.00     0.010 A 
BRANCH  20  25
HETATM   25  O   UNL     1      41.849 -10.388   7.147  1.00  0.00    -0.355 OA
HETATM   26  C   UNL     1      40.784  -9.796   6.399  1.00  0.00     0.210 C 
ENDBRANCH  20  25
ENDBRANCH  18  19
ENDBRANCH  15  18
ENDBRANCH   1  14
BRANCH   2  27
HETATM   27  O   UNL     1      42.451 -12.549   4.210  1.00  0.00    -0.354 OA
HETATM   28  C   UNL     1      43.281 -12.249   3.087  1.00  0.00     0.210 C 
ENDBRANCH   2  27
TORSDOF 5
ENDMDL
MODEL 5
REMARK VINA RESULT:      -8.2      3.237      6.732
REMARK  5 active torsions:
REMARK  status: ('A' for Active; 'I' for Inactive)
REMARK    1  A    between atoms: O_2  and  C_3 
REMARK    2  A    between atoms: C_4  and  C_5 
REMARK    3  A    between atoms: C_5  and  C_6 
REMARK       I    between atoms: C_6  and  N_7 
REMARK    4  A    between atoms: N_7  and  C_8 
REMARK    5  A    between atoms: C_9  and  O_10 
ROOT
HETATM    1  C   UNL     1      43.136 -14.213   4.533  1.00  0.00     0.071 A 
HETATM    2  C   UNL     1      42.931 -14.462   3.162  1.00  0.00     0.096 A 
HETATM    3  C   UNL     1      42.982 -15.757   2.627  1.00  0.00     0.054 A 
HETATM    4  C   UNL     1      43.312 -16.819   3.484  1.00  0.00     0.014 A 
HETATM    5  C   UNL     1      43.575 -16.537   4.820  1.00  0.00     0.089 A 
HETATM    6  O   UNL     1      43.886 -17.682   5.493  1.00  0.00    -0.309 OA
HETATM    7  C   UNL     1      43.826 -18.703   4.593  1.00  0.00     0.087 A 
HETATM    8  C   UNL     1      43.481 -18.225   3.333  1.00  0.00     0.011 A 
HETATM    9  C   UNL     1      44.074 -20.046   4.873  1.00  0.00     0.038 A 
HETATM   10  C   UNL     1      43.967 -20.941   3.803  1.00  0.00     0.003 A 
HETATM   11  C   UNL     1      43.628 -20.498   2.521  1.00  0.00     0.001 A 
HETATM   12  C   UNL     1      43.381 -19.142   2.269  1.00  0.00     0.015 A 
HETATM   13  C   UNL     1      43.519 -15.259   5.382  1.00  0.00     0.070 A 
ENDROOT
BRANCH   1  14
HETATM   14  N   UNL     1      43.051 -12.913   5.081  1.00  0.00    -0.324 N 
HETATM   15  C   UNL     1      41.855 -12.287   5.390  1.00  0.00     0.226 C 
HETATM   16  O   UNL     1      40.774 -12.857   5.528  1.00  0.00    -0.273 OA
HETATM   17  H   UNL     1      43.883 -12.522   5.510  1.00  0.00     0.169 HD
BRANCH  15  18
HETATM   18  C   UNL     1      41.951 -10.778   5.500  1.00  0.00     0.144 C 
BRANCH  18  19
HETATM   19  C   UNL     1      42.187 -10.231   6.885  1.00  0.00    -0.016 A 
HETATM   20  C   UNL     1      43.460 -10.236   7.471  1.00  0.00     0.074 A 
HETATM   21  C   UNL     1      43.669  -9.706   8.745  1.00  0.00     0.037 A 
HETATM   22  C   UNL     1      42.606  -9.132   9.439  1.00  0.00     0.003 A 
HETATM   23  C   UNL     1      41.333  -9.116   8.871  1.00  0.00     0.001 A 
HETATM   24  C   UNL     1      41.122  -9.669   7.605  1.00  0.00     0.010 A 
BRANCH  20  25
HETATM   25  O   UNL     1      44.494 -10.856   6.820  1.00  0.00    -0.355 OA
HETATM   26  C   UNL     1      45.677 -10.830   7.622  1.00  0.00     0.210 C 
ENDBRANCH  20  25
ENDBRANCH  18  19
ENDBRANCH  15  18
ENDBRANCH   1  14
BRANCH   2  27
HETATM   27  O   UNL     1      42.733 -13.440   2.262  1.00  0.00    -0.354 OA
HETATM   28  C   UNL     1      41.632 -13.748   1.405  1.00  0.00     0.210 C 
ENDBRANCH   2  27
TORSDOF 5
ENDMDL
MODEL 6
REMARK VINA RESULT:      -8.2      4.154      7.775
REMARK  5 active torsions:
REMARK  status: ('A' for Active; 'I' for Inactive)
REMARK    1  A    between atoms: O_2  and  C_3 
REMARK    2  A    between atoms: C_4  and  C_5 
REMARK    3  A    between atoms: C_5  and  C_6 
REMARK       I    between atoms: C_6  and  N_7 
REMARK    4  A    between atoms: N_7  and  C_8 
REMARK    5  A    between atoms: C_9  and  O_10 
ROOT
HETATM    1  C   UNL     1      41.642 -13.090   5.596  1.00  0.00     0.071 A 
HETATM    2  C   UNL     1      40.956 -13.337   4.391  1.00  0.00     0.096 A 
HETATM    3  C   UNL     1      41.178 -14.497   3.635  1.00  0.00     0.054 A 
HETATM    4  C   UNL     1      42.162 -15.398   4.070  1.00  0.00     0.014 A 
HETATM    5  C   UNL     1      42.872 -15.098   5.228  1.00  0.00     0.089 A 
HETATM    6  O   UNL     1      43.787 -16.074   5.488  1.00  0.00    -0.309 OA
HETATM    7  C   UNL     1      43.671 -17.006   4.500  1.00  0.00     0.087 A 
HETATM    8  C   UNL     1      42.684 -16.634   3.593  1.00  0.00     0.011 A 
HETATM    9  C   UNL     1      44.426 -18.172   4.393  1.00  0.00     0.038 A 
HETATM   10  C   UNL     1      44.157 -18.996   3.295  1.00  0.00     0.003 A 
HETATM   11  C   UNL     1      43.177 -18.654   2.358  1.00  0.00     0.001 A 
HETATM   12  C   UNL     1      42.430 -17.475   2.493  1.00  0.00     0.015 A 
HETATM   13  C   UNL     1      42.664 -13.957   6.007  1.00  0.00     0.070 A 
ENDROOT
BRANCH   1  14
HETATM   14  N   UNL     1      41.397 -11.940   6.378  1.00  0.00    -0.324 N 
HETATM   15  C   UNL     1      42.032 -10.725   6.177  1.00  0.00     0.226 C 
HETATM   16  O   UNL     1      42.627 -10.400   5.150  1.00  0.00    -0.273 OA
HETATM   17  H   UNL     1      40.546 -11.911   6.930  1.00  0.00     0.169 HD
BRANCH  15  18
HETATM   18  C   UNL     1      41.999  -9.797   7.375  1.00  0.00     0.144 C 
BRANCH  18  19
HETATM   19  C   UNL     1      43.182  -9.880   8.306  1.00  0.00    -0.016 A 
HETATM   20  C   UNL     1      43.070  -9.559   9.666  1.00  0.00     0.074 A 
HETATM   21  C   UNL     1      44.167  -9.661  10.523  1.00  0.00     0.037 A 
HETATM   22  C   UNL     1      45.388 -10.120  10.032  1.00  0.00     0.003 A 
HETATM   23  C   UNL     1      45.517 -10.447   8.683  1.00  0.00     0.001 A 
HETATM   24  C   UNL     1      44.423 -10.320   7.823  1.00  0.00     0.010 A 
BRANCH  20  25
HETATM   25  O   UNL     1      41.890  -9.047  10.139  1.00  0.00    -0.355 OA
HETATM   26  C   UNL     1      41.534  -9.671  11.375  1.00  0.00     0.210 C 
ENDBRANCH  20  25
ENDBRANCH  18  19
ENDBRANCH  15  18
ENDBRANCH   1  14
BRANCH   2  27
HETATM   27  O   UNL     1      40.076 -12.423   3.858  1.00  0.00    -0.354 OA
HETATM   28  C   UNL     1      40.565 -11.948   2.603  1.00  0.00     0.210 C 
ENDBRANCH   2  27
TORSDOF 5
ENDMDL
MODEL 7
REMARK VINA RESULT:      -7.9      2.538      4.732
REMARK  5 active torsions:
REMARK  status: ('A' for Active; 'I' for Inactive)
REMARK    1  A    between atoms: O_2  and  C_3 
REMARK    2  A    between atoms: C_4  and  C_5 
REMARK    3  A    between atoms: C_5  and  C_6 
REMARK       I    between atoms: C_6  and  N_7 
REMARK    4  A    between atoms: N_7  and  C_8 
REMARK    5  A    between atoms: C_9  and  O_10 
ROOT
HETATM    1  C   UNL     1      42.305 -14.025   3.384  1.00  0.00     0.071 A 
HETATM    2  C   UNL     1      42.110 -14.584   2.106  1.00  0.00     0.096 A 
HETATM    3  C   UNL     1      42.345 -15.941   1.846  1.00  0.00     0.054 A 
HETATM    4  C   UNL     1      42.851 -16.741   2.883  1.00  0.00     0.014 A 
HETATM    5  C   UNL     1      43.097 -16.149   4.117  1.00  0.00     0.089 A 
HETATM    6  O   UNL     1      43.592 -17.070   4.992  1.00  0.00    -0.309 OA
HETATM    7  C   UNL     1      43.668 -18.256   4.325  1.00  0.00     0.087 A 
HETATM    8  C   UNL     1      43.227 -18.108   3.015  1.00  0.00     0.011 A 
HETATM    9  C   UNL     1      44.123 -19.459   4.861  1.00  0.00     0.038 A 
HETATM   10  C   UNL     1      44.129 -20.566   4.005  1.00  0.00     0.003 A 
HETATM   11  C   UNL     1      43.699 -20.456   2.679  1.00  0.00     0.001 A 
HETATM   12  C   UNL     1      43.244 -19.233   2.168  1.00  0.00     0.015 A 
HETATM   13  C   UNL     1      42.861 -14.803   4.408  1.00  0.00     0.070 A 
ENDROOT
BRANCH   1  14
HETATM   14  N   UNL     1      42.037 -12.665   3.657  1.00  0.00    -0.324 N 
HETATM   15  C   UNL     1      43.012 -11.682   3.692  1.00  0.00     0.226 C 
HETATM   16  O   UNL     1      44.136 -11.784   3.201  1.00  0.00    -0.273 OA
HETATM   17  H   UNL     1      41.080 -12.340   3.566  1.00  0.00     0.169 HD
BRANCH  15  18
HETATM   18  C   UNL     1      42.614 -10.434   4.454  1.00  0.00     0.144 C 
BRANCH  18  19
HETATM   19  C   UNL     1      41.180 -10.372   4.915  1.00  0.00    -0.016 A 
HETATM   20  C   UNL     1      40.126 -10.173   4.012  1.00  0.00     0.074 A 
HETATM   21  C   UNL     1      38.801 -10.139   4.448  1.00  0.00     0.037 A 
HETATM   22  C   UNL     1      38.510 -10.339   5.796  1.00  0.00     0.003 A 
HETATM   23  C   UNL     1      39.545 -10.541   6.708  1.00  0.00     0.001 A 
HETATM   24  C   UNL     1      40.873 -10.550   6.272  1.00  0.00     0.010 A 
BRANCH  20  25
HETATM   25  O   UNL     1      40.411  -9.913   2.697  1.00  0.00    -0.355 OA
HETATM   26  C   UNL     1      39.547 -10.665   1.841  1.00  0.00     0.210 C 
ENDBRANCH  20  25
ENDBRANCH  18  19
ENDBRANCH  15  18
ENDBRANCH   1  14
BRANCH   2  27
HETATM   27  O   UNL     1      41.740 -13.813   1.027  1.00  0.00    -0.354 OA
HETATM   28  C   UNL     1      40.439 -14.194   0.577  1.00  0.00     0.210 C 
ENDBRANCH   2  27
TORSDOF 5
ENDMDL
MODEL 8
REMARK VINA RESULT:      -7.9      2.700      8.974
REMARK  5 active torsions:
REMARK  status: ('A' for Active; 'I' for Inactive)
REMARK    1  A    between atoms: O_2  and  C_3 
REMARK    2  A    between atoms: C_4  and  C_5 
REMARK    3  A    between atoms: C_5  and  C_6 
REMARK       I    between atoms: C_6  and  N_7 
REMARK    4  A    between atoms: N_7  and  C_8 
REMARK    5  A    between atoms: C_9  and  O_10 
ROOT
HETATM    1  C   UNL     1      40.823 -13.169   0.651  1.00  0.00     0.071 A 
HETATM    2  C   UNL     1      40.264 -13.390  -0.623  1.00  0.00     0.096 A 
HETATM    3  C   UNL     1      40.356 -12.439  -1.649  1.00  0.00     0.054 A 
HETATM    4  C   UNL     1      40.969 -11.209  -1.365  1.00  0.00     0.014 A 
HETATM    5  C   UNL     1      41.455 -10.991  -0.080  1.00  0.00     0.089 A 
HETATM    6  O   UNL     1      42.004  -9.746   0.012  1.00  0.00    -0.309 OA
HETATM    7  C   UNL     1      41.873  -9.159  -1.211  1.00  0.00     0.087 A 
HETATM    8  C   UNL     1      41.236 -10.018  -2.099  1.00  0.00     0.011 A 
HETATM    9  C   UNL     1      42.309  -7.878  -1.545  1.00  0.00     0.038 A 
HETATM   10  C   UNL     1      42.072  -7.457  -2.859  1.00  0.00     0.003 A 
HETATM   11  C   UNL     1      41.428  -8.290  -3.780  1.00  0.00     0.001 A 
HETATM   12  C   UNL     1      41.003  -9.575  -3.415  1.00  0.00     0.015 A 
HETATM   13  C   UNL     1      41.388 -11.923   0.958  1.00  0.00     0.070 A 
ENDROOT
BRANCH   1  14
HETATM   14  N   UNL     1      40.762 -14.138   1.677  1.00  0.00    -0.324 N 
HETATM   15  C   UNL     1      41.797 -15.011   1.971  1.00  0.00     0.226 C 
HETATM   16  O   UNL     1      42.967 -14.863   1.620  1.00  0.00    -0.273 OA
HETATM   17  H   UNL     1      40.055 -14.027   2.395  1.00  0.00     0.169 HD
BRANCH  15  18
HETATM   18  C   UNL     1      41.372 -16.245   2.741  1.00  0.00     0.144 C 
BRANCH  18  19
HETATM   19  C   UNL     1      42.488 -17.123   3.247  1.00  0.00    -0.016 A 
HETATM   20  C   UNL     1      43.027 -16.962   4.530  1.00  0.00     0.074 A 
HETATM   21  C   UNL     1      44.045 -17.795   4.995  1.00  0.00     0.037 A 
HETATM   22  C   UNL     1      44.516 -18.829   4.188  1.00  0.00     0.003 A 
HETATM   23  C   UNL     1      43.990 -19.008   2.910  1.00  0.00     0.001 A 
HETATM   24  C   UNL     1      42.988 -18.155   2.438  1.00  0.00     0.010 A 
BRANCH  20  25
HETATM   25  O   UNL     1      42.613 -15.908   5.303  1.00  0.00    -0.355 OA
HETATM   26  C   UNL     1      42.153 -16.371   6.575  1.00  0.00     0.210 C 
ENDBRANCH  20  25
ENDBRANCH  18  19
ENDBRANCH  15  18
ENDBRANCH   1  14
BRANCH   2  27
HETATM   27  O   UNL     1      39.541 -14.526  -0.909  1.00  0.00    -0.354 OA
HETATM   28  C   UNL     1      39.159 -14.529  -2.285  1.00  0.00     0.210 C 
ENDBRANCH   2  27
TORSDOF 5
ENDMDL
MODEL 9
REMARK VINA RESULT:      -7.7      3.039      5.000
REMARK  5 active torsions:
REMARK  status: ('A' for Active; 'I' for Inactive)
REMARK    1  A    between atoms: O_2  and  C_3 
REMARK    2  A    between atoms: C_4  and  C_5 
REMARK    3  A    between atoms: C_5  and  C_6 
REMARK       I    between atoms: C_6  and  N_7 
REMARK    4  A    between atoms: N_7  and  C_8 
REMARK    5  A    between atoms: C_9  and  O_10 
ROOT
HETATM    1  C   UNL     1      42.944 -14.341   4.640  1.00  0.00     0.071 A 
HETATM    2  C   UNL     1      42.706 -14.545   3.267  1.00  0.00     0.096 A 
HETATM    3  C   UNL     1      42.799 -15.814   2.678  1.00  0.00     0.054 A 
HETATM    4  C   UNL     1      43.207 -16.892   3.480  1.00  0.00     0.014 A 
HETATM    5  C   UNL     1      43.501 -16.651   4.818  1.00  0.00     0.089 A 
HETATM    6  O   UNL     1      43.887 -17.805   5.432  1.00  0.00    -0.309 OA
HETATM    7  C   UNL     1      43.845 -18.792   4.493  1.00  0.00     0.087 A 
HETATM    8  C   UNL     1      43.435 -18.282   3.266  1.00  0.00     0.011 A 
HETATM    9  C   UNL     1      44.165 -20.131   4.711  1.00  0.00     0.038 A 
HETATM   10  C   UNL     1      44.063 -20.988   3.609  1.00  0.00     0.003 A 
HETATM   11  C   UNL     1      43.661 -20.512   2.357  1.00  0.00     0.001 A 
HETATM   12  C   UNL     1      43.343 -19.159   2.169  1.00  0.00     0.015 A 
HETATM   13  C   UNL     1      43.405 -15.400   5.433  1.00  0.00     0.070 A 
ENDROOT
BRANCH   1  14
HETATM   14  N   UNL     1      42.818 -13.070   5.243  1.00  0.00    -0.324 N 
HETATM   15  C   UNL     1      41.639 -12.595   5.794  1.00  0.00     0.226 C 
HETATM   16  O   UNL     1      40.676 -13.292   6.110  1.00  0.00    -0.273 OA
HETATM   17  H   UNL     1      43.666 -12.589   5.524  1.00  0.00     0.169 HD
BRANCH  15  18
HETATM   18  C   UNL     1      41.581 -11.088   5.942  1.00  0.00     0.144 C 
BRANCH  18  19
HETATM   19  C   UNL     1      40.428 -10.402   5.253  1.00  0.00    -0.016 A 
HETATM   20  C   UNL     1      39.359  -9.856   5.977  1.00  0.00     0.074 A 
HETATM   21  C   UNL     1      38.309  -9.204   5.330  1.00  0.00     0.037 A 
HETATM   22  C   UNL     1      38.333  -9.059   3.944  1.00  0.00     0.003 A 
HETATM   23  C   UNL     1      39.390  -9.593   3.208  1.00  0.00     0.001 A 
HETATM   24  C   UNL     1      40.428 -10.267   3.857  1.00  0.00     0.010 A 
BRANCH  20  25
HETATM   25  O   UNL     1      39.300 -10.051   7.332  1.00  0.00    -0.355 OA
HETATM   26  C   UNL     1      39.499  -8.815   8.024  1.00  0.00     0.210 C 
ENDBRANCH  20  25
ENDBRANCH  18  19
ENDBRANCH  15  18
ENDBRANCH   1  14
BRANCH   2  27
HETATM   27  O   UNL     1      42.430 -13.499   2.416  1.00  0.00    -0.354 OA
HETATM   28  C   UNL     1      41.046 -13.508   2.062  1.00  0.00     0.210 C 
ENDBRANCH   2  27
TORSDOF 5
ENDMDL
MODEL 10
REMARK VINA RESULT:      -7.4      1.997      3.302
REMARK  5 active torsions:
REMARK  status: ('A' for Active; 'I' for Inactive)
REMARK    1  A    between atoms: O_2  and  C_3 
REMARK    2  A    between atoms: C_4  and  C_5 
REMARK    3  A    between atoms: C_5  and  C_6 
REMARK       I    between atoms: C_6  and  N_7 
REMARK    4  A    between atoms: N_7  and  C_8 
REMARK    5  A    between atoms: C_9  and  O_10 
ROOT
HETATM    1  C   UNL     1      41.870 -13.442   2.433  1.00  0.00     0.071 A 
HETATM    2  C   UNL     1      41.623 -14.286   1.333  1.00  0.00     0.096 A 
HETATM    3  C   UNL     1      41.950 -15.649   1.356  1.00  0.00     0.054 A 
HETATM    4  C   UNL     1      42.601 -16.159   2.490  1.00  0.00     0.014 A 
HETATM    5  C   UNL     1      42.892 -15.290   3.536  1.00  0.00     0.089 A 
HETATM    6  O   UNL     1      43.530 -15.956   4.540  1.00  0.00    -0.309 OA
HETATM    7  C   UNL     1      43.653 -17.254   4.145  1.00  0.00     0.087 A 
HETATM    8  C   UNL     1      43.099 -17.435   2.882  1.00  0.00     0.011 A 
HETATM    9  C   UNL     1      44.248 -18.274   4.886  1.00  0.00     0.038 A 
HETATM   10  C   UNL     1      44.279 -19.542   4.296  1.00  0.00     0.003 A 
HETATM   11  C   UNL     1      43.739 -19.763   3.025  1.00  0.00     0.001 A 
HETATM   12  C   UNL     1      43.144 -18.718   2.304  1.00  0.00     0.015 A 
HETATM   13  C   UNL     1      42.568 -13.931   3.545  1.00  0.00     0.070 A 
ENDROOT
BRANCH   1  14
HETATM   14  N   UNL     1      41.511 -12.075   2.427  1.00  0.00    -0.324 N 
HETATM   15  C   UNL     1      40.202 -11.625   2.489  1.00  0.00     0.226 C 
HETATM   16  O   UNL     1      39.241 -12.296   2.862  1.00  0.00    -0.273 OA
HETATM   17  H   UNL     1      42.227 -11.393   2.650  1.00  0.00     0.169 HD
BRANCH  15  18
HETATM   18  C   UNL     1      40.006 -10.206   1.994  1.00  0.00     0.144 C 
BRANCH  18  19
HETATM   19  C   UNL     1      40.331  -9.963   0.542  1.00  0.00    -0.016 A 
HETATM   20  C   UNL     1      39.385 -10.177  -0.469  1.00  0.00     0.074 A 
HETATM   21  C   UNL     1      39.691  -9.928  -1.808  1.00  0.00     0.037 A 
HETATM   22  C   UNL     1      40.945  -9.426  -2.149  1.00  0.00     0.003 A 
HETATM   23  C   UNL     1      41.899  -9.204  -1.156  1.00  0.00     0.001 A 
HETATM   24  C   UNL     1      41.597  -9.478   0.181  1.00  0.00     0.010 A 
BRANCH  20  25
HETATM   25  O   UNL     1      38.173 -10.730  -0.146  1.00  0.00    -0.355 OA
HETATM   26  C   UNL     1      37.786 -11.694  -1.129  1.00  0.00     0.210 C 
ENDBRANCH  20  25
ENDBRANCH  18  19
ENDBRANCH  15  18
ENDBRANCH   1  14
BRANCH   2  27
HETATM   27  O   UNL     1      41.106 -13.804   0.152  1.00  0.00    -0.354 OA
HETATM   28  C   UNL     1      39.941 -14.546  -0.211  1.00  0.00     0.210 C 
ENDBRANCH   2  27
TORSDOF 5
ENDMDL
