MODEL 1
REMARK VINA RESULT:      -8.9      0.000      0.000
REMARK  3 active torsions:
REMARK  status: ('A' for Active; 'I' for Inactive)
REMARK    1  A    between atoms: C_7  and  C_8 
REMARK    2  A    between atoms: C_17  and  C_18 
REMARK       I    between atoms: C_18  and  N_19 
REMARK    3  A    between atoms: N_19  and  C_20 
ROOT
HETATM    1  C   UNL     1      42.911 -13.781   4.430  1.00  0.00     0.206 C 
HETATM    2  N   UNL     1      42.821 -12.435   5.014  1.00  0.00    -0.084 N 
HETATM    3  C   UNL     1      42.998 -12.174   6.349  1.00  0.00     0.725 A 
HETATM    4  N   UNL     1      42.955 -10.883   6.553  1.00  0.00    -0.054 NA
HETATM    5  C   UNL     1      42.793 -10.382   5.290  1.00  0.00     0.275 A 
HETATM    6  N   UNL     1      42.765 -11.286   4.305  1.00  0.00    -0.149 NA
HETATM    7  N   UNL     1      43.188 -13.196   7.203  1.00  0.00    -0.192 N 
HETATM    8  C   UNL     1      43.092 -14.530   6.826  1.00  0.00     0.037 C 
HETATM    9  C   UNL     1      43.177 -15.532   7.952  1.00  0.00     0.070 C 
HETATM   10  C   UNL     1      42.938 -14.852   5.517  1.00  0.00     0.063 C 
HETATM   11  H   UNL     1      43.241 -12.992   8.198  1.00  0.00     0.184 HD
ENDROOT
BRANCH  10  12
HETATM   12  C   UNL     1      42.656 -16.261   5.142  1.00  0.00     0.256 C 
HETATM   13  N   UNL     1      43.756 -16.948   4.680  1.00  0.00    -0.323 N 
HETATM   14  H   UNL     1      44.653 -16.485   4.705  1.00  0.00     0.169 HD
HETATM   15  O   UNL     1      41.514 -16.689   5.274  1.00  0.00    -0.267 OA
BRANCH  13  16
HETATM   16  C   UNL     1      43.767 -18.269   4.174  1.00  0.00     0.035 A 
HETATM   17  C   UNL     1      43.564 -18.592   2.830  1.00  0.00     0.029 A 
HETATM   18  C   UNL     1      43.600 -19.924   2.403  1.00  0.00     0.002 A 
HETATM   19  C   UNL     1      43.840 -20.946   3.316  1.00  0.00     0.000 A 
HETATM   20  C   UNL     1      44.047 -20.636   4.657  1.00  0.00     0.002 A 
HETATM   21  C   UNL     1      44.013 -19.305   5.085  1.00  0.00     0.029 A 
ENDBRANCH  13  16
ENDBRANCH  10  12
BRANCH   1  22
HETATM   22  C   UNL     1      41.870 -13.979   3.359  1.00  0.00     0.015 A 
HETATM   23  C   UNL     1      40.471 -13.710   3.467  1.00  0.00     0.061 A 
HETATM   24  C   UNL     1      39.703 -13.257   4.657  1.00  0.00     0.073 C 
HETATM   25  N   UNL     1      39.834 -13.897   2.306  1.00  0.00    -0.178 NA
HETATM   26  N   UNL     1      40.792 -14.320   1.469  1.00  0.00    -0.284 N 
HETATM   27  C   UNL     1      40.471 -14.562   0.084  1.00  0.00     0.179 C 
HETATM   28  C   UNL     1      42.018 -14.419   2.055  1.00  0.00     0.123 A 
ENDBRANCH   1  22
TORSDOF 3
ENDMDL
MODEL 2
REMARK VINA RESULT:      -8.3      2.051      4.386
REMARK  3 active torsions:
REMARK  status: ('A' for Active; 'I' for Inactive)
REMARK    1  A    between atoms: C_7  and  C_8 
REMARK    2  A    between atoms: C_17  and  C_18 
REMARK       I    between atoms: C_18  and  N_19 
REMARK    3  A    between atoms: N_19  and  C_20 
ROOT
HETATM    1  C   UNL     1      41.008 -12.938   5.403  1.00  0.00     0.206 C 
HETATM    2  N   UNL     1      40.185 -11.729   5.549  1.00  0.00    -0.084 N 
HETATM    3  C   UNL     1      39.293 -11.299   4.600  1.00  0.00     0.725 A 
HETATM    4  N   UNL     1      38.642 -10.257   5.049  1.00  0.00    -0.054 NA
HETATM    5  C   UNL     1      39.143 -10.109   6.314  1.00  0.00     0.275 A 
HETATM    6  N   UNL     1      40.047 -11.020   6.692  1.00  0.00    -0.149 NA
HETATM    7  N   UNL     1      39.203 -11.959   3.431  1.00  0.00    -0.192 N 
HETATM    8  C   UNL     1      40.060 -12.991   3.072  1.00  0.00     0.037 C 
HETATM    9  C   UNL     1      39.908 -13.501   1.659  1.00  0.00     0.070 C 
HETATM   10  C   UNL     1      40.950 -13.473   3.975  1.00  0.00     0.063 C 
HETATM   11  H   UNL     1      38.592 -11.583   2.709  1.00  0.00     0.184 HD
ENDROOT
BRANCH  10  12
HETATM   12  C   UNL     1      41.980 -14.448   3.533  1.00  0.00     0.256 C 
HETATM   13  N   UNL     1      41.703 -15.751   3.878  1.00  0.00    -0.323 N 
HETATM   14  H   UNL     1      40.817 -15.949   4.320  1.00  0.00     0.169 HD
HETATM   15  O   UNL     1      42.955 -14.035   2.913  1.00  0.00    -0.267 OA
BRANCH  13  16
HETATM   16  C   UNL     1      42.541 -16.871   3.667  1.00  0.00     0.035 A 
HETATM   17  C   UNL     1      43.516 -17.299   4.571  1.00  0.00     0.029 A 
HETATM   18  C   UNL     1      44.301 -18.424   4.295  1.00  0.00     0.002 A 
HETATM   19  C   UNL     1      44.117 -19.133   3.112  1.00  0.00     0.000 A 
HETATM   20  C   UNL     1      43.146 -18.717   2.204  1.00  0.00     0.002 A 
HETATM   21  C   UNL     1      42.360 -17.594   2.480  1.00  0.00     0.029 A 
ENDBRANCH  13  16
ENDBRANCH  10  12
BRANCH   1  22
HETATM   22  C   UNL     1      42.393 -12.722   5.952  1.00  0.00     0.015 A 
HETATM   23  C   UNL     1      43.141 -13.628   6.766  1.00  0.00     0.061 A 
HETATM   24  C   UNL     1      42.716 -14.938   7.326  1.00  0.00     0.073 C 
HETATM   25  N   UNL     1      44.379 -13.182   7.004  1.00  0.00    -0.178 NA
HETATM   26  N   UNL     1      44.423 -11.990   6.393  1.00  0.00    -0.284 N 
HETATM   27  C   UNL     1      45.654 -11.238   6.388  1.00  0.00     0.179 C 
HETATM   28  C   UNL     1      43.255 -11.652   5.779  1.00  0.00     0.123 A 
ENDBRANCH   1  22
TORSDOF 3
ENDMDL
MODEL 3
REMARK VINA RESULT:      -8.0      2.033      4.542
REMARK  3 active torsions:
REMARK  status: ('A' for Active; 'I' for Inactive)
REMARK    1  A    between atoms: C_7  and  C_8 
REMARK    2  A    between atoms: C_17  and  C_18 
REMARK       I    between atoms: C_18  and  N_19 
REMARK    3  A    between atoms: N_19  and  C_20 
ROOT
HETATM    1  C   UNL     1      40.478 -13.165   3.663  1.00  0.00     0.206 C 
HETATM    2  N   UNL     1      39.597 -12.021   3.389  1.00  0.00    -0.084 N 
HETATM    3  C   UNL     1      38.884 -11.874   2.227  1.00  0.00     0.725 A 
HETATM    4  N   UNL     1      38.121 -10.814   2.311  1.00  0.00    -0.054 NA
HETATM    5  C   UNL     1      38.370 -10.362   3.579  1.00  0.00     0.275 A 
HETATM    6  N   UNL     1      39.221 -11.098   4.302  1.00  0.00    -0.149 NA
HETATM    7  N   UNL     1      39.040 -12.771   1.237  1.00  0.00    -0.192 N 
HETATM    8  C   UNL     1      39.987 -13.786   1.273  1.00  0.00     0.037 C 
HETATM    9  C   UNL     1      40.124 -14.594   0.005  1.00  0.00     0.070 C 
HETATM   10  C   UNL     1      40.710 -13.994   2.402  1.00  0.00     0.063 C 
HETATM   11  H   UNL     1      38.562 -12.606   0.355  1.00  0.00     0.184 HD
ENDROOT
BRANCH  10  12
HETATM   12  C   UNL     1      41.841 -14.957   2.375  1.00  0.00     0.256 C 
HETATM   13  N   UNL     1      41.569 -16.157   2.991  1.00  0.00    -0.323 N 
HETATM   14  H   UNL     1      40.632 -16.317   3.333  1.00  0.00     0.169 HD
HETATM   15  O   UNL     1      42.885 -14.625   1.823  1.00  0.00    -0.267 OA
BRANCH  13  16
HETATM   16  C   UNL     1      42.480 -17.222   3.193  1.00  0.00     0.035 A 
HETATM   17  C   UNL     1      42.681 -18.260   2.280  1.00  0.00     0.029 A 
HETATM   18  C   UNL     1      43.608 -19.274   2.546  1.00  0.00     0.002 A 
HETATM   19  C   UNL     1      44.343 -19.258   3.728  1.00  0.00     0.000 A 
HETATM   20  C   UNL     1      44.152 -18.227   4.644  1.00  0.00     0.002 A 
HETATM   21  C   UNL     1      43.227 -17.212   4.378  1.00  0.00     0.029 A 
ENDBRANCH  13  16
ENDBRANCH  10  12
BRANCH   1  22
HETATM   22  C   UNL     1      41.727 -12.730   4.383  1.00  0.00     0.015 A 
HETATM   23  C   UNL     1      42.672 -11.753   3.941  1.00  0.00     0.061 A 
HETATM   24  C   UNL     1      42.700 -11.004   2.658  1.00  0.00     0.073 C 
HETATM   25  N   UNL     1      43.619 -11.523   4.857  1.00  0.00    -0.178 NA
HETATM   26  N   UNL     1      43.320 -12.363   5.859  1.00  0.00    -0.284 N 
HETATM   27  C   UNL     1      44.110 -12.340   7.065  1.00  0.00     0.179 C 
HETATM   28  C   UNL     1      42.221 -13.129   5.613  1.00  0.00     0.123 A 
ENDBRANCH   1  22
TORSDOF 3
ENDMDL
MODEL 4
REMARK VINA RESULT:      -7.9      2.303      5.774
REMARK  3 active torsions:
REMARK  status: ('A' for Active; 'I' for Inactive)
REMARK    1  A    between atoms: C_7  and  C_8 
REMARK    2  A    between atoms: C_17  and  C_18 
REMARK       I    between atoms: C_18  and  N_19 
REMARK    3  A    between atoms: N_19  and  C_20 
ROOT
HETATM    1  C   UNL     1      42.378 -14.625   4.289  1.00  0.00     0.206 C 
HETATM    2  N   UNL     1      43.259 -15.254   5.284  1.00  0.00    -0.084 N 
HETATM    3  C   UNL     1      43.826 -16.492   5.121  1.00  0.00     0.725 A 
HETATM    4  N   UNL     1      44.632 -16.741   6.121  1.00  0.00    -0.054 NA
HETATM    5  C   UNL     1      44.560 -15.592   6.861  1.00  0.00     0.275 A 
HETATM    6  N   UNL     1      43.781 -14.627   6.362  1.00  0.00    -0.149 NA
HETATM    7  N   UNL     1      43.515 -17.224   4.036  1.00  0.00    -0.192 N 
HETATM    8  C   UNL     1      42.543 -16.848   3.118  1.00  0.00     0.037 C 
HETATM    9  C   UNL     1      42.219 -17.871   2.055  1.00  0.00     0.070 C 
HETATM   10  C   UNL     1      41.960 -15.626   3.215  1.00  0.00     0.063 C 
HETATM   11  H   UNL     1      43.884 -18.169   3.968  1.00  0.00     0.184 HD
ENDROOT
BRANCH  10  12
HETATM   12  C   UNL     1      40.800 -15.301   2.345  1.00  0.00     0.256 C 
HETATM   13  N   UNL     1      41.118 -14.522   1.256  1.00  0.00    -0.323 N 
HETATM   14  H   UNL     1      42.091 -14.303   1.093  1.00  0.00     0.169 HD
HETATM   15  O   UNL     1      39.696 -15.740   2.647  1.00  0.00    -0.267 OA
BRANCH  13  16
HETATM   16  C   UNL     1      40.209 -13.990   0.312  1.00  0.00     0.035 A 
HETATM   17  C   UNL     1      39.824 -14.649  -0.859  1.00  0.00     0.029 A 
HETATM   18  C   UNL     1      38.911 -14.061  -1.741  1.00  0.00     0.002 A 
HETATM   19  C   UNL     1      38.373 -12.810  -1.461  1.00  0.00     0.000 A 
HETATM   20  C   UNL     1      38.746 -12.144  -0.296  1.00  0.00     0.002 A 
HETATM   21  C   UNL     1      39.658 -12.731   0.588  1.00  0.00     0.029 A 
ENDBRANCH  13  16
ENDBRANCH  10  12
BRANCH   1  22
HETATM   22  C   UNL     1      41.247 -13.887   4.954  1.00  0.00     0.015 A 
HETATM   23  C   UNL     1      40.350 -14.406   5.939  1.00  0.00     0.061 A 
HETATM   24  C   UNL     1      40.262 -15.789   6.476  1.00  0.00     0.073 C 
HETATM   25  N   UNL     1      39.519 -13.467   6.403  1.00  0.00    -0.178 NA
HETATM   26  N   UNL     1      39.840 -12.368   5.705  1.00  0.00    -0.284 N 
HETATM   27  C   UNL     1      39.176 -11.121   5.995  1.00  0.00     0.179 C 
HETATM   28  C   UNL     1      40.841 -12.573   4.804  1.00  0.00     0.123 A 
ENDBRANCH   1  22
TORSDOF 3
ENDMDL
MODEL 5
REMARK VINA RESULT:      -7.7      2.054      5.678
REMARK  3 active torsions:
REMARK  status: ('A' for Active; 'I' for Inactive)
REMARK    1  A    between atoms: C_7  and  C_8 
REMARK    2  A    between atoms: C_17  and  C_18 
REMARK       I    between atoms: C_18  and  N_19 
REMARK    3  A    between atoms: N_19  and  C_20 
ROOT
HETATM    1  C   UNL     1      43.132 -14.723   4.895  1.00  0.00     0.206 C 
HETATM    2  N   UNL     1      43.181 -15.632   6.049  1.00  0.00    -0.084 N 
HETATM    3  C   UNL     1      43.228 -16.998   5.937  1.00  0.00     0.725 A 
HETATM    4  N   UNL     1      43.363 -17.531   7.124  1.00  0.00    -0.054 NA
HETATM    5  C   UNL     1      43.440 -16.436   7.941  1.00  0.00     0.275 A 
HETATM    6  N   UNL     1      43.394 -15.248   7.327  1.00  0.00    -0.149 NA
HETATM    7  N   UNL     1      43.148 -17.565   4.719  1.00  0.00    -0.192 N 
HETATM    8  C   UNL     1      42.893 -16.844   3.560  1.00  0.00     0.037 C 
HETATM    9  C   UNL     1      42.680 -17.669   2.314  1.00  0.00     0.070 C 
HETATM   10  C   UNL     1      42.855 -15.488   3.603  1.00  0.00     0.063 C 
HETATM   11  H   UNL     1      43.108 -18.579   4.660  1.00  0.00     0.184 HD
ENDROOT
BRANCH  10  12
HETATM   12  C   UNL     1      42.406 -14.734   2.405  1.00  0.00     0.256 C 
HETATM   13  N   UNL     1      41.039 -14.695   2.248  1.00  0.00    -0.323 N 
HETATM   14  H   UNL     1      40.463 -15.099   2.973  1.00  0.00     0.169 HD
HETATM   15  O   UNL     1      43.252 -14.218   1.682  1.00  0.00    -0.267 OA
BRANCH  13  16
HETATM   16  C   UNL     1      40.336 -14.126   1.160  1.00  0.00     0.035 A 
HETATM   17  C   UNL     1      39.866 -12.810   1.136  1.00  0.00     0.029 A 
HETATM   18  C   UNL     1      39.187 -12.315   0.017  1.00  0.00     0.002 A 
HETATM   19  C   UNL     1      38.971 -13.131  -1.088  1.00  0.00     0.000 A 
HETATM   20  C   UNL     1      39.437 -14.444  -1.077  1.00  0.00     0.002 A 
HETATM   21  C   UNL     1      40.118 -14.939   0.040  1.00  0.00     0.029 A 
ENDBRANCH  13  16
ENDBRANCH  10  12
BRANCH   1  22
HETATM   22  C   UNL     1      42.215 -13.558   5.159  1.00  0.00     0.015 A 
HETATM   23  C   UNL     1      42.484 -12.180   4.890  1.00  0.00     0.061 A 
HETATM   24  C   UNL     1      43.734 -11.564   4.372  1.00  0.00     0.073 C 
HETATM   25  N   UNL     1      41.426 -11.404   5.147  1.00  0.00    -0.178 NA
HETATM   26  N   UNL     1      40.500 -12.254   5.614  1.00  0.00    -0.284 N 
HETATM   27  C   UNL     1      39.183 -11.762   5.938  1.00  0.00     0.179 C 
HETATM   28  C   UNL     1      40.930 -13.544   5.674  1.00  0.00     0.123 A 
ENDBRANCH   1  22
TORSDOF 3
ENDMDL
MODEL 6
REMARK VINA RESULT:      -7.4      2.359      5.463
REMARK  3 active torsions:
REMARK  status: ('A' for Active; 'I' for Inactive)
REMARK    1  A    between atoms: C_7  and  C_8 
REMARK    2  A    between atoms: C_17  and  C_18 
REMARK       I    between atoms: C_18  and  N_19 
REMARK    3  A    between atoms: N_19  and  C_20 
ROOT
HETATM    1  C   UNL     1      41.833 -13.161   4.896  1.00  0.00     0.206 C 
HETATM    2  N   UNL     1      43.041 -12.615   5.531  1.00  0.00    -0.084 N 
HETATM    3  C   UNL     1      43.406 -11.295   5.457  1.00  0.00     0.725 A 
HETATM    4  N   UNL     1      44.466 -11.090   6.196  1.00  0.00    -0.054 NA
HETATM    5  C   UNL     1      44.691 -12.322   6.749  1.00  0.00     0.275 A 
HETATM    6  N   UNL     1      43.813 -13.276   6.422  1.00  0.00    -0.149 NA
HETATM    7  N   UNL     1      42.679 -10.449   4.703  1.00  0.00    -0.192 N 
HETATM    8  C   UNL     1      41.636 -10.864   3.885  1.00  0.00     0.037 C 
HETATM    9  C   UNL     1      41.044  -9.798   2.995  1.00  0.00     0.070 C 
HETATM   10  C   UNL     1      41.216 -12.153   3.930  1.00  0.00     0.063 C 
HETATM   11  H   UNL     1      43.007  -9.492   4.598  1.00  0.00     0.184 HD
ENDROOT
BRANCH  10  12
HETATM   12  C   UNL     1      40.227 -12.632   2.929  1.00  0.00     0.256 C 
HETATM   13  N   UNL     1      40.697 -12.637   1.636  1.00  0.00    -0.323 N 
HETATM   14  H   UNL     1      41.666 -12.398   1.479  1.00  0.00     0.169 HD
HETATM   15  O   UNL     1      39.117 -12.979   3.317  1.00  0.00    -0.267 OA
BRANCH  13  16
HETATM   16  C   UNL     1      39.955 -12.958   0.475  1.00  0.00     0.035 A 
HETATM   17  C   UNL     1      39.101 -12.065  -0.178  1.00  0.00     0.029 A 
HETATM   18  C   UNL     1      38.406 -12.454  -1.329  1.00  0.00     0.002 A 
HETATM   19  C   UNL     1      38.560 -13.739  -1.838  1.00  0.00     0.000 A 
HETATM   20  C   UNL     1      39.410 -14.637  -1.198  1.00  0.00     0.002 A 
HETATM   21  C   UNL     1      40.106 -14.249  -0.048  1.00  0.00     0.029 A 
ENDBRANCH  13  16
ENDBRANCH  10  12
BRANCH   1  22
HETATM   22  C   UNL     1      42.094 -14.527   4.317  1.00  0.00     0.015 A 
HETATM   23  C   UNL     1      41.473 -15.754   4.708  1.00  0.00     0.061 A 
HETATM   24  C   UNL     1      40.502 -15.991   5.808  1.00  0.00     0.073 C 
HETATM   25  N   UNL     1      41.850 -16.775   3.932  1.00  0.00    -0.178 NA
HETATM   26  N   UNL     1      42.731 -16.233   3.079  1.00  0.00    -0.284 N 
HETATM   27  C   UNL     1      43.304 -17.048   2.036  1.00  0.00     0.179 C 
HETATM   28  C   UNL     1      42.938 -14.903   3.287  1.00  0.00     0.123 A 
ENDBRANCH   1  22
TORSDOF 3
ENDMDL
MODEL 7
REMARK VINA RESULT:      -7.3      2.268      4.646
REMARK  3 active torsions:
REMARK  status: ('A' for Active; 'I' for Inactive)
REMARK    1  A    between atoms: C_7  and  C_8 
REMARK    2  A    between atoms: C_17  and  C_18 
REMARK       I    between atoms: C_18  and  N_19 
REMARK    3  A    between atoms: N_19  and  C_20 
ROOT
HETATM    1  C   UNL     1      40.607 -12.060   3.020  1.00  0.00     0.206 C 
HETATM    2  N   UNL     1      40.609 -10.879   2.145  1.00  0.00    -0.084 N 
HETATM    3  C   UNL     1      40.443 -10.942   0.785  1.00  0.00     0.725 A 
HETATM    4  N   UNL     1      40.394  -9.731   0.292  1.00  0.00    -0.054 NA
HETATM    5  C   UNL     1      40.490  -8.946   1.409  1.00  0.00     0.275 A 
HETATM    6  N   UNL     1      40.564  -9.598   2.574  1.00  0.00    -0.149 NA
HETATM    7  N   UNL     1      40.348 -12.143   0.185  1.00  0.00    -0.192 N 
HETATM    8  C   UNL     1      40.535 -13.344   0.856  1.00  0.00     0.037 C 
HETATM    9  C   UNL     1      40.548 -14.580  -0.012  1.00  0.00     0.070 C 
HETATM   10  C   UNL     1      40.684 -13.348   2.205  1.00  0.00     0.063 C 
HETATM   11  H   UNL     1      40.301 -12.174  -0.830  1.00  0.00     0.184 HD
ENDROOT
BRANCH  10  12
HETATM   12  C   UNL     1      41.061 -14.610   2.892  1.00  0.00     0.256 C 
HETATM   13  N   UNL     1      42.389 -14.945   2.758  1.00  0.00    -0.323 N 
HETATM   14  H   UNL     1      43.001 -14.294   2.286  1.00  0.00     0.169 HD
HETATM   15  O   UNL     1      40.198 -15.227   3.508  1.00  0.00    -0.267 OA
BRANCH  13  16
HETATM   16  C   UNL     1      43.008 -16.127   3.229  1.00  0.00     0.035 A 
HETATM   17  C   UNL     1      43.494 -16.289   4.529  1.00  0.00     0.029 A 
HETATM   18  C   UNL     1      44.085 -17.493   4.925  1.00  0.00     0.002 A 
HETATM   19  C   UNL     1      44.195 -18.548   4.025  1.00  0.00     0.000 A 
HETATM   20  C   UNL     1      43.712 -18.400   2.728  1.00  0.00     0.002 A 
HETATM   21  C   UNL     1      43.119 -17.197   2.331  1.00  0.00     0.029 A 
ENDBRANCH  13  16
ENDBRANCH  10  12
BRANCH   1  22
HETATM   22  C   UNL     1      41.636 -11.929   4.112  1.00  0.00     0.015 A 
HETATM   23  C   UNL     1      41.470 -12.275   5.489  1.00  0.00     0.061 A 
HETATM   24  C   UNL     1      40.247 -12.759   6.182  1.00  0.00     0.073 C 
HETATM   25  N   UNL     1      42.605 -12.133   6.181  1.00  0.00    -0.178 NA
HETATM   26  N   UNL     1      43.483 -11.665   5.282  1.00  0.00    -0.284 N 
HETATM   27  C   UNL     1      44.855 -11.454   5.672  1.00  0.00     0.179 C 
HETATM   28  C   UNL     1      42.948 -11.493   4.041  1.00  0.00     0.123 A 
ENDBRANCH   1  22
TORSDOF 3
ENDMDL
MODEL 8
REMARK VINA RESULT:      -7.3     14.844     16.360
REMARK  3 active torsions:
REMARK  status: ('A' for Active; 'I' for Inactive)
REMARK    1  A    between atoms: C_7  and  C_8 
REMARK    2  A    between atoms: C_17  and  C_18 
REMARK       I    between atoms: C_18  and  N_19 
REMARK    3  A    between atoms: N_19  and  C_20 
ROOT
HETATM    1  C   UNL     1      44.864 -29.005   0.150  1.00  0.00     0.206 C 
HETATM    2  N   UNL     1      43.761 -29.377   1.047  1.00  0.00    -0.084 N 
HETATM    3  C   UNL     1      43.887 -29.459   2.410  1.00  0.00     0.725 A 
HETATM    4  N   UNL     1      42.720 -29.716   2.944  1.00  0.00    -0.054 NA
HETATM    5  C   UNL     1      41.889 -29.739   1.857  1.00  0.00     0.275 A 
HETATM    6  N   UNL     1      42.465 -29.479   0.678  1.00  0.00    -0.149 NA
HETATM    7  N   UNL     1      45.093 -29.268   2.976  1.00  0.00    -0.192 N 
HETATM    8  C   UNL     1      46.261 -29.112   2.241  1.00  0.00     0.037 C 
HETATM    9  C   UNL     1      47.537 -29.070   3.048  1.00  0.00     0.070 C 
HETATM   10  C   UNL     1      46.199 -29.004   0.890  1.00  0.00     0.063 C 
HETATM   11  H   UNL     1      45.184 -29.406   3.979  1.00  0.00     0.184 HD
ENDROOT
BRANCH  10  12
HETATM   12  C   UNL     1      47.457 -29.019   0.100  1.00  0.00     0.256 C 
HETATM   13  N   UNL     1      48.078 -30.247   0.058  1.00  0.00    -0.323 N 
HETATM   14  H   UNL     1      47.609 -31.033   0.485  1.00  0.00     0.169 HD
HETATM   15  O   UNL     1      47.827 -27.981  -0.439  1.00  0.00    -0.267 OA
BRANCH  13  16
HETATM   16  C   UNL     1      49.326 -30.535  -0.543  1.00  0.00     0.035 A 
HETATM   17  C   UNL     1      49.669 -30.166  -1.846  1.00  0.00     0.029 A 
HETATM   18  C   UNL     1      50.929 -30.479  -2.368  1.00  0.00     0.002 A 
HETATM   19  C   UNL     1      51.857 -31.165  -1.591  1.00  0.00     0.000 A 
HETATM   20  C   UNL     1      51.528 -31.536  -0.290  1.00  0.00     0.002 A 
HETATM   21  C   UNL     1      50.269 -31.221   0.233  1.00  0.00     0.029 A 
ENDBRANCH  13  16
ENDBRANCH  10  12
BRANCH   1  22
HETATM   22  C   UNL     1      44.833 -29.818  -1.117  1.00  0.00     0.015 A 
HETATM   23  C   UNL     1      45.007 -29.332  -2.450  1.00  0.00     0.061 A 
HETATM   24  C   UNL     1      45.176 -27.929  -2.910  1.00  0.00     0.073 C 
HETATM   25  N   UNL     1      45.025 -30.325  -3.346  1.00  0.00    -0.178 NA
HETATM   26  N   UNL     1      44.824 -31.431  -2.616  1.00  0.00    -0.284 N 
HETATM   27  C   UNL     1      44.848 -32.722  -3.261  1.00  0.00     0.179 C 
HETATM   28  C   UNL     1      44.670 -31.182  -1.286  1.00  0.00     0.123 A 
ENDBRANCH   1  22
TORSDOF 3
ENDMDL
MODEL 9
REMARK VINA RESULT:      -7.2      2.059      2.340
REMARK  3 active torsions:
REMARK  status: ('A' for Active; 'I' for Inactive)
REMARK    1  A    between atoms: C_7  and  C_8 
REMARK    2  A    between atoms: C_17  and  C_18 
REMARK       I    between atoms: C_18  and  N_19 
REMARK    3  A    between atoms: N_19  and  C_20 
ROOT
HETATM    1  C   UNL     1      41.302 -12.711   3.968  1.00  0.00     0.206 C 
HETATM    2  N   UNL     1      40.187 -12.033   4.645  1.00  0.00    -0.084 N 
HETATM    3  C   UNL     1      39.788 -12.322   5.925  1.00  0.00     0.725 A 
HETATM    4  N   UNL     1      38.842 -11.494   6.287  1.00  0.00    -0.054 NA
HETATM    5  C   UNL     1      38.723 -10.674   5.197  1.00  0.00     0.275 A 
HETATM    6  N   UNL     1      39.565 -10.923   4.188  1.00  0.00    -0.149 NA
HETATM    7  N   UNL     1      40.382 -13.329   6.591  1.00  0.00    -0.192 N 
HETATM    8  C   UNL     1      41.304 -14.187   6.007  1.00  0.00     0.037 C 
HETATM    9  C   UNL     1      41.740 -15.353   6.862  1.00  0.00     0.070 C 
HETATM   10  C   UNL     1      41.753 -13.942   4.751  1.00  0.00     0.063 C 
HETATM   11  H   UNL     1      40.023 -13.579   7.509  1.00  0.00     0.184 HD
ENDROOT
BRANCH  10  12
HETATM   12  C   UNL     1      42.597 -14.956   4.067  1.00  0.00     0.256 C 
HETATM   13  N   UNL     1      42.126 -16.245   4.181  1.00  0.00    -0.323 N 
HETATM   14  H   UNL     1      41.236 -16.389   4.636  1.00  0.00     0.169 HD
HETATM   15  O   UNL     1      43.602 -14.582   3.473  1.00  0.00    -0.267 OA
BRANCH  13  16
HETATM   16  C   UNL     1      42.765 -17.415   3.709  1.00  0.00     0.035 A 
HETATM   17  C   UNL     1      42.577 -17.946   2.430  1.00  0.00     0.029 A 
HETATM   18  C   UNL     1      43.253 -19.104   2.032  1.00  0.00     0.002 A 
HETATM   19  C   UNL     1      44.125 -19.742   2.908  1.00  0.00     0.000 A 
HETATM   20  C   UNL     1      44.323 -19.221   4.184  1.00  0.00     0.002 A 
HETATM   21  C   UNL     1      43.649 -18.063   4.583  1.00  0.00     0.029 A 
ENDBRANCH  13  16
ENDBRANCH  10  12
BRANCH   1  22
HETATM   22  C   UNL     1      40.988 -12.954   2.515  1.00  0.00     0.015 A 
HETATM   23  C   UNL     1      40.063 -13.909   1.988  1.00  0.00     0.061 A 
HETATM   24  C   UNL     1      39.264 -14.926   2.720  1.00  0.00     0.073 C 
HETATM   25  N   UNL     1      39.941 -13.806   0.661  1.00  0.00    -0.178 NA
HETATM   26  N   UNL     1      40.800 -12.833   0.324  1.00  0.00    -0.284 N 
HETATM   27  C   UNL     1      40.885 -12.403  -1.050  1.00  0.00     0.179 C 
HETATM   28  C   UNL     1      41.474 -12.315   1.388  1.00  0.00     0.123 A 
ENDBRANCH   1  22
TORSDOF 3
ENDMDL
MODEL 10
REMARK VINA RESULT:      -7.0      2.523      5.768
REMARK  3 active torsions:
REMARK  status: ('A' for Active; 'I' for Inactive)
REMARK    1  A    between atoms: C_7  and  C_8 
REMARK    2  A    between atoms: C_17  and  C_18 
REMARK       I    between atoms: C_18  and  N_19 
REMARK    3  A    between atoms: N_19  and  C_20 
ROOT
HETATM    1  C   UNL     1      42.191 -13.084   3.675  1.00  0.00     0.206 C 
HETATM    2  N   UNL     1      42.855 -13.456   4.932  1.00  0.00    -0.084 N 
HETATM    3  C   UNL     1      43.168 -14.748   5.271  1.00  0.00     0.725 A 
HETATM    4  N   UNL     1      43.835 -14.757   6.396  1.00  0.00    -0.054 NA
HETATM    5  C   UNL     1      43.949 -13.426   6.692  1.00  0.00     0.275 A 
HETATM    6  N   UNL     1      43.418 -12.584   5.798  1.00  0.00    -0.149 NA
HETATM    7  N   UNL     1      42.789 -15.754   4.462  1.00  0.00    -0.192 N 
HETATM    8  C   UNL     1      41.979 -15.571   3.349  1.00  0.00     0.037 C 
HETATM    9  C   UNL     1      41.528 -16.835   2.657  1.00  0.00     0.070 C 
HETATM   10  C   UNL     1      41.652 -14.316   2.952  1.00  0.00     0.063 C 
HETATM   11  H   UNL     1      42.962 -16.709   4.765  1.00  0.00     0.184 HD
ENDROOT
BRANCH  10  12
HETATM   12  C   UNL     1      40.646 -14.131   1.875  1.00  0.00     0.256 C 
HETATM   13  N   UNL     1      41.190 -13.975   0.620  1.00  0.00    -0.323 N 
HETATM   14  H   UNL     1      42.190 -14.073   0.518  1.00  0.00     0.169 HD
HETATM   15  O   UNL     1      39.456 -14.138   2.173  1.00  0.00    -0.267 OA
BRANCH  13  16
HETATM   16  C   UNL     1      40.481 -13.697  -0.572  1.00  0.00     0.035 A 
HETATM   17  C   UNL     1      39.575 -14.580  -1.166  1.00  0.00     0.029 A 
HETATM   18  C   UNL     1      38.904 -14.229  -2.343  1.00  0.00     0.002 A 
HETATM   19  C   UNL     1      39.132 -12.992  -2.936  1.00  0.00     0.000 A 
HETATM   20  C   UNL     1      40.031 -12.103  -2.353  1.00  0.00     0.002 A 
HETATM   21  C   UNL     1      40.701 -12.452  -1.176  1.00  0.00     0.029 A 
ENDBRANCH  13  16
ENDBRANCH  10  12
BRANCH   1  22
HETATM   22  C   UNL     1      41.191 -11.980   3.895  1.00  0.00     0.015 A 
HETATM   23  C   UNL     1      40.965 -10.849   3.049  1.00  0.00     0.061 A 
HETATM   24  C   UNL     1      41.699 -10.452   1.819  1.00  0.00     0.073 C 
HETATM   25  N   UNL     1      39.938 -10.106   3.472  1.00  0.00    -0.178 NA
HETATM   26  N   UNL     1      39.528 -10.716   4.593  1.00  0.00    -0.284 N 
HETATM   27  C   UNL     1      38.373 -10.213   5.295  1.00  0.00     0.179 C 
HETATM   28  C   UNL     1      40.263 -11.818   4.909  1.00  0.00     0.123 A 
ENDBRANCH   1  22
TORSDOF 3
ENDMDL
