MODEL 1
REMARK VINA RESULT:      -8.1      0.000      0.000
REMARK  4 active torsions:
REMARK  status: ('A' for Active; 'I' for Inactive)
REMARK    1  A    between atoms: C_2  and  C_3 
REMARK    2  A    between atoms: C_3  and  C_4 
REMARK    3  A    between atoms: N_7  and  C_8 
REMARK    4  A    between atoms: C_13  and  C_14 
ROOT
HETATM    1  C   UNL     1      41.842 -15.045   2.399  1.00  0.00     0.017 A 
HETATM    2  C   UNL     1      42.155 -13.938   1.614  1.00  0.00     0.033 A 
HETATM    3  C   UNL     1      41.332 -13.587   0.551  1.00  0.00     0.099 A 
HETATM    4  N   UNL     1      40.213 -14.301   0.259  1.00  0.00    -0.318 N 
HETATM    5  C   UNL     1      39.911 -15.393   1.010  1.00  0.00     0.099 A 
HETATM    6  C   UNL     1      40.700 -15.776   2.093  1.00  0.00     0.033 A 
ENDROOT
BRANCH   1   7
HETATM    7  C   UNL     1      42.705 -15.333   3.575  1.00  0.00     0.192 C 
HETATM    8  O   UNL     1      43.019 -14.396   4.304  1.00  0.00    -0.287 OA
BRANCH   7   9
HETATM    9  C   UNL     1      43.164 -16.696   3.916  1.00  0.00     0.015 A 
HETATM   10  C   UNL     1      43.293 -17.033   5.268  1.00  0.00     0.017 A 
HETATM   11  C   UNL     1      43.727 -18.309   5.632  1.00  0.00     0.025 A 
HETATM   12  C   UNL     1      44.048 -19.239   4.643  1.00  0.00     0.034 A 
HETATM   13  C   UNL     1      43.948 -18.899   3.294  1.00  0.00     0.025 A 
HETATM   14 CL   UNL     1      44.578 -20.813   5.088  1.00  0.00    -0.084 Cl
HETATM   15  C   UNL     1      43.513 -17.622   2.925  1.00  0.00     0.017 A 
ENDBRANCH   7   9
ENDBRANCH   1   7
BRANCH   4  16
HETATM   16  C   UNL     1      39.414 -13.909  -0.834  1.00  0.00     0.135 A 
HETATM   17  N   UNL     1      39.340 -14.691  -1.963  1.00  0.00    -0.302 N 
HETATM   18  C   UNL     1      38.535 -14.229  -2.974  1.00  0.00     0.290 A 
HETATM   19  H   UNL     1      39.776 -15.594  -2.088  1.00  0.00     0.171 HD
HETATM   20  O   UNL     1      38.328 -14.787  -4.033  1.00  0.00    -0.260 OA
HETATM   21  S   UNL     1      37.845 -12.694  -2.469  1.00  0.00    -0.022 SA
HETATM   22  C   UNL     1      38.679 -12.788  -0.946  1.00  0.00     0.092 A 
BRANCH  22  23
HETATM   23  C   UNL     1      38.587 -11.638  -0.034  1.00  0.00     0.281 C 
HETATM   24  O   UNL     1      37.852 -11.657   0.945  1.00  0.00    -0.301 OA
ENDBRANCH  22  23
ENDBRANCH   4  16
TORSDOF 4
ENDMDL
MODEL 2
REMARK VINA RESULT:      -8.0      4.392      5.831
REMARK  4 active torsions:
REMARK  status: ('A' for Active; 'I' for Inactive)
REMARK    1  A    between atoms: C_2  and  C_3 
REMARK    2  A    between atoms: C_3  and  C_4 
REMARK    3  A    between atoms: N_7  and  C_8 
REMARK    4  A    between atoms: C_13  and  C_14 
ROOT
HETATM    1  C   UNL     1      42.633 -15.651   6.240  1.00  0.00     0.017 A 
HETATM    2  C   UNL     1      41.248 -15.726   6.374  1.00  0.00     0.033 A 
HETATM    3  C   UNL     1      40.482 -14.571   6.292  1.00  0.00     0.099 A 
HETATM    4  N   UNL     1      41.053 -13.357   6.076  1.00  0.00    -0.318 N 
HETATM    5  C   UNL     1      42.406 -13.274   5.963  1.00  0.00     0.099 A 
HETATM    6  C   UNL     1      43.215 -14.408   6.026  1.00  0.00     0.033 A 
ENDROOT
BRANCH   1   7
HETATM    7  C   UNL     1      43.405 -16.923   6.251  1.00  0.00     0.192 C 
HETATM    8  O   UNL     1      43.946 -17.260   7.300  1.00  0.00    -0.287 OA
BRANCH   7   9
HETATM    9  C   UNL     1      43.512 -17.803   5.068  1.00  0.00     0.015 A 
HETATM   10  C   UNL     1      43.978 -19.110   5.255  1.00  0.00     0.017 A 
HETATM   11  C   UNL     1      44.098 -19.972   4.164  1.00  0.00     0.025 A 
HETATM   12  C   UNL     1      43.768 -19.520   2.887  1.00  0.00     0.034 A 
HETATM   13  C   UNL     1      43.330 -18.210   2.691  1.00  0.00     0.025 A 
HETATM   14 CL   UNL     1      43.910 -20.581   1.541  1.00  0.00    -0.084 Cl
HETATM   15  C   UNL     1      43.209 -17.344   3.781  1.00  0.00     0.017 A 
ENDBRANCH   7   9
ENDBRANCH   1   7
BRANCH   4  16
HETATM   16  C   UNL     1      40.234 -12.213   6.007  1.00  0.00     0.135 A 
HETATM   17  N   UNL     1      39.889 -11.528   7.149  1.00  0.00    -0.302 N 
HETATM   18  C   UNL     1      39.088 -10.426   6.983  1.00  0.00     0.290 A 
HETATM   19  H   UNL     1      40.219 -11.731   8.083  1.00  0.00     0.171 HD
HETATM   20  O   UNL     1      38.700  -9.688   7.865  1.00  0.00    -0.260 OA
HETATM   21  S   UNL     1      38.731 -10.260   5.271  1.00  0.00    -0.022 SA
HETATM   22  C   UNL     1      39.681 -11.671   4.907  1.00  0.00     0.092 A 
BRANCH  22  23
HETATM   23  C   UNL     1      39.688 -12.162   3.521  1.00  0.00     0.281 C 
HETATM   24  O   UNL     1      39.083 -13.177   3.200  1.00  0.00    -0.301 OA
ENDBRANCH  22  23
ENDBRANCH   4  16
TORSDOF 4
ENDMDL
MODEL 3
REMARK VINA RESULT:      -7.8      1.145      1.559
REMARK  4 active torsions:
REMARK  status: ('A' for Active; 'I' for Inactive)
REMARK    1  A    between atoms: C_2  and  C_3 
REMARK    2  A    between atoms: C_3  and  C_4 
REMARK    3  A    between atoms: N_7  and  C_8 
REMARK    4  A    between atoms: C_13  and  C_14 
ROOT
HETATM    1  C   UNL     1      42.076 -14.729   3.621  1.00  0.00     0.017 A 
HETATM    2  C   UNL     1      40.852 -15.265   3.226  1.00  0.00     0.033 A 
HETATM    3  C   UNL     1      40.247 -14.822   2.057  1.00  0.00     0.099 A 
HETATM    4  N   UNL     1      40.828 -13.873   1.277  1.00  0.00    -0.318 N 
HETATM    5  C   UNL     1      42.014 -13.332   1.666  1.00  0.00     0.099 A 
HETATM    6  C   UNL     1      42.663 -13.754   2.824  1.00  0.00     0.033 A 
ENDROOT
BRANCH   1   7
HETATM    7  C   UNL     1      42.725 -15.294   4.834  1.00  0.00     0.192 C 
HETATM    8  O   UNL     1      42.880 -14.556   5.802  1.00  0.00    -0.287 OA
BRANCH   7   9
HETATM    9  C   UNL     1      43.155 -16.706   4.928  1.00  0.00     0.015 A 
HETATM   10  C   UNL     1      43.030 -17.355   6.161  1.00  0.00     0.017 A 
HETATM   11  C   UNL     1      43.428 -18.687   6.293  1.00  0.00     0.025 A 
HETATM   12  C   UNL     1      43.964 -19.360   5.196  1.00  0.00     0.034 A 
HETATM   13  C   UNL     1      44.116 -18.709   3.971  1.00  0.00     0.025 A 
HETATM   14 CL   UNL     1      44.449 -21.002   5.353  1.00  0.00    -0.084 Cl
HETATM   15  C   UNL     1      43.719 -17.375   3.835  1.00  0.00     0.017 A 
ENDBRANCH   7   9
ENDBRANCH   1   7
BRANCH   4  16
HETATM   16  C   UNL     1      40.172 -13.451   0.103  1.00  0.00     0.135 A 
HETATM   17  N   UNL     1      40.471 -14.023  -1.111  1.00  0.00    -0.302 N 
HETATM   18  C   UNL     1      39.782 -13.548  -2.198  1.00  0.00     0.290 A 
HETATM   19  H   UNL     1      41.107 -14.794  -1.261  1.00  0.00     0.171 HD
HETATM   20  O   UNL     1      39.893 -13.941  -3.341  1.00  0.00    -0.260 OA
HETATM   21  S   UNL     1      38.699 -12.278  -1.648  1.00  0.00    -0.022 SA
HETATM   22  C   UNL     1      39.246 -12.481  -0.010  1.00  0.00     0.092 A 
BRANCH  22  23
HETATM   23  C   UNL     1      38.747 -11.545   1.009  1.00  0.00     0.281 C 
HETATM   24  O   UNL     1      38.142 -11.939   1.997  1.00  0.00    -0.301 OA
ENDBRANCH  22  23
ENDBRANCH   4  16
TORSDOF 4
ENDMDL
MODEL 4
REMARK VINA RESULT:      -7.8      1.273      2.441
REMARK  4 active torsions:
REMARK  status: ('A' for Active; 'I' for Inactive)
REMARK    1  A    between atoms: C_2  and  C_3 
REMARK    2  A    between atoms: C_3  and  C_4 
REMARK    3  A    between atoms: N_7  and  C_8 
REMARK    4  A    between atoms: C_13  and  C_14 
ROOT
HETATM    1  C   UNL     1      41.878 -14.969   2.407  1.00  0.00     0.017 A 
HETATM    2  C   UNL     1      42.267 -13.790   1.776  1.00  0.00     0.033 A 
HETATM    3  C   UNL     1      41.407 -13.168   0.880  1.00  0.00     0.099 A 
HETATM    4  N   UNL     1      40.179 -13.683   0.605  1.00  0.00    -0.318 N 
HETATM    5  C   UNL     1      39.800 -14.844   1.204  1.00  0.00     0.099 A 
HETATM    6  C   UNL     1      40.625 -15.496   2.119  1.00  0.00     0.033 A 
ENDROOT
BRANCH   1   7
HETATM    7  C   UNL     1      42.796 -15.554   3.420  1.00  0.00     0.192 C 
HETATM    8  O   UNL     1      43.237 -14.814   4.295  1.00  0.00    -0.287 OA
BRANCH   7   9
HETATM    9  C   UNL     1      43.166 -16.985   3.434  1.00  0.00     0.015 A 
HETATM   10  C   UNL     1      42.956 -17.735   2.270  1.00  0.00     0.017 A 
HETATM   11  C   UNL     1      43.288 -19.090   2.243  1.00  0.00     0.025 A 
HETATM   12  C   UNL     1      43.813 -19.697   3.383  1.00  0.00     0.034 A 
HETATM   13  C   UNL     1      43.999 -18.961   4.554  1.00  0.00     0.025 A 
HETATM   14 CL   UNL     1      44.228 -21.365   3.351  1.00  0.00    -0.084 Cl
HETATM   15  C   UNL     1      43.668 -17.603   4.586  1.00  0.00     0.017 A 
ENDBRANCH   7   9
ENDBRANCH   1   7
BRANCH   4  16
HETATM   16  C   UNL     1      39.345 -13.019  -0.316  1.00  0.00     0.135 A 
HETATM   17  N   UNL     1      38.395 -12.124   0.117  1.00  0.00    -0.302 N 
HETATM   18  C   UNL     1      37.630 -11.527  -0.852  1.00  0.00     0.290 A 
HETATM   19  H   UNL     1      38.253 -11.829   1.073  1.00  0.00     0.171 HD
HETATM   20  O   UNL     1      36.761 -10.699  -0.667  1.00  0.00    -0.260 OA
HETATM   21  S   UNL     1      38.133 -12.157  -2.414  1.00  0.00    -0.022 SA
HETATM   22  C   UNL     1      39.328 -13.166  -1.653  1.00  0.00     0.092 A 
BRANCH  22  23
HETATM   23  C   UNL     1      40.079 -14.107  -2.498  1.00  0.00     0.281 C 
HETATM   24  O   UNL     1      40.902 -13.714  -3.316  1.00  0.00    -0.301 OA
ENDBRANCH  22  23
ENDBRANCH   4  16
TORSDOF 4
ENDMDL
MODEL 5
REMARK VINA RESULT:      -7.8      4.578      7.926
REMARK  4 active torsions:
REMARK  status: ('A' for Active; 'I' for Inactive)
REMARK    1  A    between atoms: C_2  and  C_3 
REMARK    2  A    between atoms: C_3  and  C_4 
REMARK    3  A    between atoms: N_7  and  C_8 
REMARK    4  A    between atoms: C_13  and  C_14 
ROOT
HETATM    1  C   UNL     1      41.597 -14.380   1.730  1.00  0.00     0.017 A 
HETATM    2  C   UNL     1      42.953 -14.670   1.604  1.00  0.00     0.033 A 
HETATM    3  C   UNL     1      43.455 -15.864   2.105  1.00  0.00     0.099 A 
HETATM    4  N   UNL     1      42.647 -16.770   2.716  1.00  0.00    -0.318 N 
HETATM    5  C   UNL     1      41.324 -16.485   2.859  1.00  0.00     0.099 A 
HETATM    6  C   UNL     1      40.774 -15.305   2.361  1.00  0.00     0.033 A 
ENDROOT
BRANCH   1   7
HETATM    7  C   UNL     1      41.090 -13.129   1.105  1.00  0.00     0.192 C 
HETATM    8  O   UNL     1      41.621 -12.069   1.423  1.00  0.00    -0.287 OA
BRANCH   7   9
HETATM    9  C   UNL     1      40.006 -13.119   0.099  1.00  0.00     0.015 A 
HETATM   10  C   UNL     1      39.998 -14.123  -0.875  1.00  0.00     0.017 A 
HETATM   11  C   UNL     1      38.994 -14.148  -1.845  1.00  0.00     0.025 A 
HETATM   12  C   UNL     1      38.011 -13.158  -1.847  1.00  0.00     0.034 A 
HETATM   13  C   UNL     1      38.031 -12.139  -0.895  1.00  0.00     0.025 A 
HETATM   14 CL   UNL     1      36.770 -13.189  -3.037  1.00  0.00    -0.084 Cl
HETATM   15  C   UNL     1      39.034 -12.111   0.078  1.00  0.00     0.017 A 
ENDBRANCH   7   9
ENDBRANCH   1   7
BRANCH   4  16
HETATM   16  C   UNL     1      43.204 -17.964   3.214  1.00  0.00     0.135 A 
HETATM   17  N   UNL     1      43.268 -19.089   2.425  1.00  0.00    -0.302 N 
HETATM   18  C   UNL     1      43.828 -20.205   2.996  1.00  0.00     0.290 A 
HETATM   19  H   UNL     1      42.995 -19.148   1.454  1.00  0.00     0.171 HD
HETATM   20  O   UNL     1      43.990 -21.279   2.453  1.00  0.00    -0.260 OA
HETATM   21  S   UNL     1      44.282 -19.808   4.646  1.00  0.00    -0.022 SA
HETATM   22  C   UNL     1      43.695 -18.183   4.447  1.00  0.00     0.092 A 
BRANCH  22  23
HETATM   23  C   UNL     1      43.694 -17.298   5.622  1.00  0.00     0.281 C 
HETATM   24  O   UNL     1      43.120 -17.613   6.657  1.00  0.00    -0.301 OA
ENDBRANCH  22  23
ENDBRANCH   4  16
TORSDOF 4
ENDMDL
MODEL 6
REMARK VINA RESULT:      -7.1      4.759      6.523
REMARK  4 active torsions:
REMARK  status: ('A' for Active; 'I' for Inactive)
REMARK    1  A    between atoms: C_2  and  C_3 
REMARK    2  A    between atoms: C_3  and  C_4 
REMARK    3  A    between atoms: N_7  and  C_8 
REMARK    4  A    between atoms: C_13  and  C_14 
ROOT
HETATM    1  C   UNL     1      42.722 -14.136   3.600  1.00  0.00     0.017 A 
HETATM    2  C   UNL     1      41.761 -14.087   4.608  1.00  0.00     0.033 A 
HETATM    3  C   UNL     1      41.610 -12.933   5.366  1.00  0.00     0.099 A 
HETATM    4  N   UNL     1      42.380 -11.835   5.143  1.00  0.00    -0.318 N 
HETATM    5  C   UNL     1      43.332 -11.882   4.173  1.00  0.00     0.099 A 
HETATM    6  C   UNL     1      43.512 -13.014   3.380  1.00  0.00     0.033 A 
ENDROOT
BRANCH   1   7
HETATM    7  C   UNL     1      42.791 -15.361   2.761  1.00  0.00     0.192 C 
HETATM    8  O   UNL     1      42.508 -15.262   1.571  1.00  0.00    -0.287 OA
BRANCH   7   9
HETATM    9  C   UNL     1      43.219 -16.673   3.294  1.00  0.00     0.015 A 
HETATM   10  C   UNL     1      43.784 -16.715   4.574  1.00  0.00     0.017 A 
HETATM   11  C   UNL     1      44.204 -17.933   5.112  1.00  0.00     0.025 A 
HETATM   12  C   UNL     1      44.073 -19.102   4.362  1.00  0.00     0.034 A 
HETATM   13  C   UNL     1      43.537 -19.061   3.075  1.00  0.00     0.025 A 
HETATM   14 CL   UNL     1      44.585 -20.604   5.025  1.00  0.00    -0.084 Cl
HETATM   15  C   UNL     1      43.115 -17.843   2.533  1.00  0.00     0.017 A 
ENDBRANCH   7   9
ENDBRANCH   1   7
BRANCH   4  16
HETATM   16  C   UNL     1      42.193 -10.690   5.942  1.00  0.00     0.135 A 
HETATM   17  N   UNL     1      41.142  -9.835   5.707  1.00  0.00    -0.302 N 
HETATM   18  C   UNL     1      41.041  -8.747   6.537  1.00  0.00     0.290 A 
HETATM   19  H   UNL     1      40.413  -9.969   5.021  1.00  0.00     0.171 HD
HETATM   20  O   UNL     1      40.173  -7.898   6.499  1.00  0.00    -0.260 OA
HETATM   21  S   UNL     1      42.378  -8.800   7.676  1.00  0.00    -0.022 SA
HETATM   22  C   UNL     1      42.967 -10.271   6.960  1.00  0.00     0.092 A 
BRANCH  22  23
HETATM   23  C   UNL     1      44.245 -10.814   7.445  1.00  0.00     0.281 C 
HETATM   24  O   UNL     1      44.295 -11.862   8.077  1.00  0.00    -0.301 OA
ENDBRANCH  22  23
ENDBRANCH   4  16
TORSDOF 4
ENDMDL
MODEL 7
REMARK VINA RESULT:      -7.1     14.045     16.163
REMARK  4 active torsions:
REMARK  status: ('A' for Active; 'I' for Inactive)
REMARK    1  A    between atoms: C_2  and  C_3 
REMARK    2  A    between atoms: C_3  and  C_4 
REMARK    3  A    between atoms: N_7  and  C_8 
REMARK    4  A    between atoms: C_13  and  C_14 
ROOT
HETATM    1  C   UNL     1      42.210  -8.579  13.315  1.00  0.00     0.017 A 
HETATM    2  C   UNL     1      41.229  -8.843  14.268  1.00  0.00     0.033 A 
HETATM    3  C   UNL     1      41.198  -8.114  15.450  1.00  0.00     0.099 A 
HETATM    4  N   UNL     1      42.105  -7.134  15.700  1.00  0.00    -0.318 N 
HETATM    5  C   UNL     1      43.077  -6.883  14.782  1.00  0.00     0.099 A 
HETATM    6  C   UNL     1      43.140  -7.581  13.577  1.00  0.00     0.033 A 
ENDROOT
BRANCH   1   7
HETATM    7  C   UNL     1      42.154  -9.327  12.031  1.00  0.00     0.192 C 
HETATM    8  O   UNL     1      41.137  -9.965  11.779  1.00  0.00    -0.287 OA
BRANCH   7   9
HETATM    9  C   UNL     1      43.253  -9.301  11.042  1.00  0.00     0.015 A 
HETATM   10  C   UNL     1      43.206  -8.341  10.024  1.00  0.00     0.017 A 
HETATM   11  C   UNL     1      44.222  -8.285   9.068  1.00  0.00     0.025 A 
HETATM   12  C   UNL     1      45.273  -9.200   9.122  1.00  0.00     0.034 A 
HETATM   13  C   UNL     1      45.310 -10.177  10.118  1.00  0.00     0.025 A 
HETATM   14 CL   UNL     1      46.528  -9.131   7.950  1.00  0.00    -0.084 Cl
HETATM   15  C   UNL     1      44.295 -10.236  11.077  1.00  0.00     0.017 A 
ENDBRANCH   7   9
ENDBRANCH   1   7
BRANCH   4  16
HETATM   16  C   UNL     1      42.036  -6.426  16.916  1.00  0.00     0.135 A 
HETATM   17  N   UNL     1      42.549  -6.968  18.072  1.00  0.00    -0.302 N 
HETATM   18  C   UNL     1      42.436  -6.205  19.207  1.00  0.00     0.290 A 
HETATM   19  H   UNL     1      43.047  -7.844  18.145  1.00  0.00     0.171 HD
HETATM   20  O   UNL     1      42.845  -6.503  20.311  1.00  0.00    -0.260 OA
HETATM   21  S   UNL     1      41.608  -4.714  18.786  1.00  0.00    -0.022 SA
HETATM   22  C   UNL     1      41.479  -5.220  17.127  1.00  0.00     0.092 A 
BRANCH  22  23
HETATM   23  C   UNL     1      40.715  -4.371  16.201  1.00  0.00     0.281 C 
HETATM   24  O   UNL     1      41.215  -3.938  15.171  1.00  0.00    -0.301 OA
ENDBRANCH  22  23
ENDBRANCH   4  16
TORSDOF 4
ENDMDL
MODEL 8
REMARK VINA RESULT:      -7.1      3.585      4.377
REMARK  4 active torsions:
REMARK  status: ('A' for Active; 'I' for Inactive)
REMARK    1  A    between atoms: C_2  and  C_3 
REMARK    2  A    between atoms: C_3  and  C_4 
REMARK    3  A    between atoms: N_7  and  C_8 
REMARK    4  A    between atoms: C_13  and  C_14 
ROOT
HETATM    1  C   UNL     1      42.505 -14.496   4.780  1.00  0.00     0.017 A 
HETATM    2  C   UNL     1      41.208 -14.446   5.285  1.00  0.00     0.033 A 
HETATM    3  C   UNL     1      40.349 -13.428   4.891  1.00  0.00     0.099 A 
HETATM    4  N   UNL     1      40.745 -12.472   4.009  1.00  0.00    -0.318 N 
HETATM    5  C   UNL     1      42.016 -12.504   3.525  1.00  0.00     0.099 A 
HETATM    6  C   UNL     1      42.908 -13.513   3.883  1.00  0.00     0.033 A 
ENDROOT
BRANCH   1   7
HETATM    7  C   UNL     1      43.360 -15.650   5.165  1.00  0.00     0.192 C 
HETATM    8  O   UNL     1      43.961 -15.591   6.233  1.00  0.00    -0.287 OA
BRANCH   7   9
HETATM    9  C   UNL     1      43.482 -16.867   4.335  1.00  0.00     0.015 A 
HETATM   10  C   UNL     1      42.791 -16.912   3.119  1.00  0.00     0.017 A 
HETATM   11  C   UNL     1      42.877 -18.045   2.307  1.00  0.00     0.025 A 
HETATM   12  C   UNL     1      43.640 -19.136   2.722  1.00  0.00     0.034 A 
HETATM   13  C   UNL     1      44.308 -19.108   3.946  1.00  0.00     0.025 A 
HETATM   14 CL   UNL     1      43.752 -20.530   1.722  1.00  0.00    -0.084 Cl
HETATM   15  C   UNL     1      44.225 -17.975   4.761  1.00  0.00     0.017 A 
ENDBRANCH   7   9
ENDBRANCH   1   7
BRANCH   4  16
HETATM   16  C   UNL     1      39.840 -11.455   3.645  1.00  0.00     0.135 A 
HETATM   17  N   UNL     1      38.980 -11.629   2.585  1.00  0.00    -0.302 N 
HETATM   18  C   UNL     1      38.135 -10.586   2.305  1.00  0.00     0.290 A 
HETATM   19  H   UNL     1      38.879 -12.473   2.038  1.00  0.00     0.171 HD
HETATM   20  O   UNL     1      37.297 -10.562   1.427  1.00  0.00    -0.260 OA
HETATM   21  S   UNL     1      38.467  -9.290   3.445  1.00  0.00    -0.022 SA
HETATM   22  C   UNL     1      39.704 -10.243   4.211  1.00  0.00     0.092 A 
BRANCH  22  23
HETATM   23  C   UNL     1      40.507  -9.612   5.270  1.00  0.00     0.281 C 
HETATM   24  O   UNL     1      40.450  -9.998   6.430  1.00  0.00    -0.301 OA
ENDBRANCH  22  23
ENDBRANCH   4  16
TORSDOF 4
ENDMDL
MODEL 9
REMARK VINA RESULT:      -7.0     10.967     12.866
REMARK  4 active torsions:
REMARK  status: ('A' for Active; 'I' for Inactive)
REMARK    1  A    between atoms: C_2  and  C_3 
REMARK    2  A    between atoms: C_3  and  C_4 
REMARK    3  A    between atoms: N_7  and  C_8 
REMARK    4  A    between atoms: C_13  and  C_14 
ROOT
HETATM    1  C   UNL     1      42.137  -9.072  12.027  1.00  0.00     0.017 A 
HETATM    2  C   UNL     1      41.743  -8.721  10.737  1.00  0.00     0.033 A 
HETATM    3  C   UNL     1      42.387  -9.281   9.641  1.00  0.00     0.099 A 
HETATM    4  N   UNL     1      43.397 -10.176   9.796  1.00  0.00    -0.318 N 
HETATM    5  C   UNL     1      43.799 -10.509  11.052  1.00  0.00     0.099 A 
HETATM    6  C   UNL     1      43.174  -9.983  12.181  1.00  0.00     0.033 A 
ENDROOT
BRANCH   1   7
HETATM    7  C   UNL     1      41.364  -8.512  13.168  1.00  0.00     0.192 C 
HETATM    8  O   UNL     1      41.689  -8.846  14.303  1.00  0.00    -0.287 OA
BRANCH   7   9
HETATM    9  C   UNL     1      40.255  -7.551  12.989  1.00  0.00     0.015 A 
HETATM   10  C   UNL     1      40.549  -6.184  13.033  1.00  0.00     0.017 A 
HETATM   11  C   UNL     1      39.530  -5.244  12.871  1.00  0.00     0.025 A 
HETATM   12  C   UNL     1      38.217  -5.674  12.683  1.00  0.00     0.034 A 
HETATM   13  C   UNL     1      37.914  -7.035  12.666  1.00  0.00     0.025 A 
HETATM   14 CL   UNL     1      36.960  -4.518  12.478  1.00  0.00    -0.084 Cl
HETATM   15  C   UNL     1      38.932  -7.980  12.827  1.00  0.00     0.017 A 
ENDBRANCH   7   9
ENDBRANCH   1   7
BRANCH   4  16
HETATM   16  C   UNL     1      44.024 -10.711   8.653  1.00  0.00     0.135 A 
HETATM   17  N   UNL     1      43.578 -11.886   8.095  1.00  0.00    -0.302 N 
HETATM   18  C   UNL     1      44.250 -12.329   6.984  1.00  0.00     0.290 A 
HETATM   19  H   UNL     1      42.772 -12.416   8.396  1.00  0.00     0.171 HD
HETATM   20  O   UNL     1      43.991 -13.329   6.345  1.00  0.00    -0.260 OA
HETATM   21  S   UNL     1      45.544 -11.193   6.636  1.00  0.00    -0.022 SA
HETATM   22  C   UNL     1      45.087 -10.212   7.997  1.00  0.00     0.092 A 
BRANCH  22  23
HETATM   23  C   UNL     1      45.936  -9.060   8.337  1.00  0.00     0.281 C 
HETATM   24  O   UNL     1      45.507  -7.914   8.291  1.00  0.00    -0.301 OA
ENDBRANCH  22  23
ENDBRANCH   4  16
TORSDOF 4
ENDMDL
MODEL 10
REMARK VINA RESULT:      -6.9     13.942     16.008
REMARK  4 active torsions:
REMARK  status: ('A' for Active; 'I' for Inactive)
REMARK    1  A    between atoms: C_2  and  C_3 
REMARK    2  A    between atoms: C_3  and  C_4 
REMARK    3  A    between atoms: N_7  and  C_8 
REMARK    4  A    between atoms: C_13  and  C_14 
ROOT
HETATM    1  C   UNL     1      41.961  -8.347  12.973  1.00  0.00     0.017 A 
HETATM    2  C   UNL     1      40.719  -8.052  13.532  1.00  0.00     0.033 A 
HETATM    3  C   UNL     1      40.640  -7.233  14.651  1.00  0.00     0.099 A 
HETATM    4  N   UNL     1      41.754  -6.701  15.217  1.00  0.00    -0.318 N 
HETATM    5  C   UNL     1      42.971  -6.999  14.688  1.00  0.00     0.099 A 
HETATM    6  C   UNL     1      43.099  -7.806  13.559  1.00  0.00     0.033 A 
ENDROOT
BRANCH   1   7
HETATM    7  C   UNL     1      41.990  -9.159  11.728  1.00  0.00     0.192 C 
HETATM    8  O   UNL     1      40.995  -9.818  11.445  1.00  0.00    -0.287 OA
BRANCH   7   9
HETATM    9  C   UNL     1      43.149  -9.173  10.809  1.00  0.00     0.015 A 
HETATM   10  C   UNL     1      43.206  -8.206   9.800  1.00  0.00     0.017 A 
HETATM   11  C   UNL     1      44.281  -8.187   8.910  1.00  0.00     0.025 A 
HETATM   12  C   UNL     1      45.288  -9.146   9.021  1.00  0.00     0.034 A 
HETATM   13  C   UNL     1      45.222 -10.130  10.008  1.00  0.00     0.025 A 
HETATM   14 CL   UNL     1      46.616  -9.122   7.930  1.00  0.00    -0.084 Cl
HETATM   15  C   UNL     1      44.147 -10.152  10.901  1.00  0.00     0.017 A 
ENDBRANCH   7   9
ENDBRANCH   1   7
BRANCH   4  16
HETATM   16  C   UNL     1      41.623  -5.881  16.355  1.00  0.00     0.135 A 
HETATM   17  N   UNL     1      41.754  -4.515  16.254  1.00  0.00    -0.302 N 
HETATM   18  C   UNL     1      41.609  -3.799  17.415  1.00  0.00     0.290 A 
HETATM   19  H   UNL     1      41.887  -3.996  15.397  1.00  0.00     0.171 HD
HETATM   20  O   UNL     1      41.669  -2.591  17.521  1.00  0.00    -0.260 OA
HETATM   21  S   UNL     1      41.311  -4.932  18.725  1.00  0.00    -0.022 SA
HETATM   22  C   UNL     1      41.397  -6.274  17.622  1.00  0.00     0.092 A 
BRANCH  22  23
HETATM   23  C   UNL     1      41.329  -7.633  18.178  1.00  0.00     0.281 C 
HETATM   24  O   UNL     1      40.260  -8.217  18.309  1.00  0.00    -0.301 OA
ENDBRANCH  22  23
ENDBRANCH   4  16
TORSDOF 4
ENDMDL
