MODEL 1
REMARK VINA RESULT:      -8.1      0.000      0.000
REMARK  7 active torsions:
REMARK  status: ('A' for Active; 'I' for Inactive)
REMARK    1  A    between atoms: C_2  and  C_3 
REMARK    2  A    between atoms: C_6  and  C_7 
REMARK    3  A    between atoms: C_7  and  N_8 
REMARK    4  A    between atoms: C_7  and  C_25 
REMARK    5  A    between atoms: N_8  and  C_11 
REMARK    6  A    between atoms: C_11  and  C_12 
REMARK       I    between atoms: C_12  and  N_13 
REMARK    7  A    between atoms: N_13  and  C_14 
ROOT
HETATM    1  N   UNL     1      43.336 -17.442   5.801  1.00  0.00    -0.054 N 
HETATM    2  H   UNL     1      42.369 -17.119   5.971  1.00  0.00     0.278 HD
HETATM    3  H   UNL     1      43.313 -18.434   6.055  1.00  0.00     0.278 HD
ENDROOT
BRANCH   1   4
HETATM    4  C   UNL     1      43.663 -17.279   4.353  1.00  0.00     0.259 C 
BRANCH   4   5
HETATM    5  C   UNL     1      42.767 -16.249   3.685  1.00  0.00    -0.023 A 
HETATM    6  C   UNL     1      41.415 -16.168   4.059  1.00  0.00     0.010 A 
HETATM    7  C   UNL     1      40.568 -15.212   3.491  1.00  0.00     0.007 A 
HETATM    8  C   UNL     1      41.053 -14.312   2.539  1.00  0.00    -0.059 A 
HETATM    9  C   UNL     1      42.398 -14.381   2.163  1.00  0.00     0.007 A 
HETATM   10  C   UNL     1      43.246 -15.339   2.726  1.00  0.00     0.010 A 
BRANCH   8  11
HETATM   11  C   UNL     1      40.149 -13.249   1.963  1.00  0.00     0.034 C 
HETATM   12  C   UNL     1      39.118 -12.775   2.977  1.00  0.00     0.010 C 
ENDBRANCH   8  11
ENDBRANCH   4   5
BRANCH   4  13
HETATM   13  C   UNL     1      43.667 -18.605   3.632  1.00  0.00     0.017 A 
HETATM   14  S   UNL     1      44.193 -20.012   4.472  1.00  0.00    -0.104 SA
HETATM   15  C   UNL     1      43.910 -21.012   3.119  1.00  0.00     0.050 A 
HETATM   16  C   UNL     1      43.417 -20.303   2.047  1.00  0.00     0.008 A 
HETATM   17  C   UNL     1      43.276 -18.916   2.341  1.00  0.00     0.017 A 
ENDBRANCH   4  13
ENDBRANCH   1   4
BRANCH   1  18
HETATM   18  C   UNL     1      44.231 -16.704   6.764  1.00  0.00     0.336 C 
BRANCH  18  19
HETATM   19  C   UNL     1      43.579 -15.385   7.176  1.00  0.00     0.248 C 
HETATM   20  N   UNL     1      43.961 -14.302   6.412  1.00  0.00    -0.326 N 
HETATM   21  H   UNL     1      44.655 -14.442   5.684  1.00  0.00     0.169 HD
HETATM   22  O   UNL     1      42.799 -15.401   8.127  1.00  0.00    -0.271 OA
BRANCH  20  23
HETATM   23  C   UNL     1      43.505 -12.968   6.537  1.00  0.00     0.037 A 
HETATM   24  C   UNL     1      44.184 -11.980   7.259  1.00  0.00     0.061 A 
HETATM   25  C   UNL     1      43.610 -10.727   7.299  1.00  0.00     0.065 A 
HETATM   26  C   UNL     1      42.412 -10.430   6.655  1.00  0.00     0.063 A 
HETATM   27  N   UNL     1      44.050  -9.571   7.935  1.00  0.00    -0.306 N 
HETATM   28  N   UNL     1      42.115  -9.095   6.892  1.00  0.00    -0.307 N 
HETATM   29  C   UNL     1      41.721 -11.371   5.937  1.00  0.00     0.034 A 
HETATM   30  C   UNL     1      43.127  -8.543   7.692  1.00  0.00     0.325 A 
HETATM   31  H   UNL     1      41.318  -8.571   6.568  1.00  0.00     0.170 HD
HETATM   32  O   UNL     1      43.193  -7.398   8.097  1.00  0.00    -0.247 OA
HETATM   33  C   UNL     1      42.280 -12.656   5.884  1.00  0.00     0.032 A 
HETATM   34  H   UNL     1      44.881  -9.447   8.491  1.00  0.00     0.170 HD
ENDBRANCH  20  23
ENDBRANCH  18  19
ENDBRANCH   1  18
TORSDOF 7
ENDMDL
MODEL 2
REMARK VINA RESULT:      -8.0      5.010      8.297
REMARK  7 active torsions:
REMARK  status: ('A' for Active; 'I' for Inactive)
REMARK    1  A    between atoms: C_2  and  C_3 
REMARK    2  A    between atoms: C_6  and  C_7 
REMARK    3  A    between atoms: C_7  and  N_8 
REMARK    4  A    between atoms: C_7  and  C_25 
REMARK    5  A    between atoms: N_8  and  C_11 
REMARK    6  A    between atoms: C_11  and  C_12 
REMARK       I    between atoms: C_12  and  N_13 
REMARK    7  A    between atoms: N_13  and  C_14 
ROOT
HETATM    1  N   UNL     1      41.458 -11.283   4.399  1.00  0.00    -0.054 N 
HETATM    2  H   UNL     1      40.851 -12.087   4.630  1.00  0.00     0.278 HD
HETATM    3  H   UNL     1      41.426 -10.701   5.242  1.00  0.00     0.278 HD
ENDROOT
BRANCH   1   4
HETATM    4  C   UNL     1      42.847 -11.771   4.151  1.00  0.00     0.259 C 
BRANCH   4   5
HETATM    5  C   UNL     1      42.863 -13.215   3.680  1.00  0.00    -0.023 A 
HETATM    6  C   UNL     1      42.254 -14.204   4.473  1.00  0.00     0.010 A 
HETATM    7  C   UNL     1      42.219 -15.537   4.058  1.00  0.00     0.007 A 
HETATM    8  C   UNL     1      42.788 -15.916   2.839  1.00  0.00    -0.059 A 
HETATM    9  C   UNL     1      43.392 -14.940   2.041  1.00  0.00     0.007 A 
HETATM   10  C   UNL     1      43.433 -13.606   2.456  1.00  0.00     0.010 A 
BRANCH   8  11
HETATM   11  C   UNL     1      42.706 -17.348   2.370  1.00  0.00     0.034 C 
HETATM   12  C   UNL     1      43.824 -18.198   2.956  1.00  0.00     0.010 C 
ENDBRANCH   8  11
ENDBRANCH   4   5
BRANCH   4  13
HETATM   13  C   UNL     1      43.740 -11.536   5.346  1.00  0.00     0.017 A 
HETATM   14  S   UNL     1      43.026 -11.120   6.855  1.00  0.00    -0.104 SA
HETATM   15  C   UNL     1      44.542 -11.050   7.634  1.00  0.00     0.050 A 
HETATM   16  C   UNL     1      45.577 -11.342   6.776  1.00  0.00     0.008 A 
HETATM   17  C   UNL     1      45.117 -11.623   5.456  1.00  0.00     0.017 A 
ENDBRANCH   4  13
ENDBRANCH   1   4
BRANCH   1  18
HETATM   18  C   UNL     1      40.808 -10.541   3.260  1.00  0.00     0.336 C 
BRANCH  18  19
HETATM   19  C   UNL     1      40.000 -11.511   2.399  1.00  0.00     0.248 C 
HETATM   20  N   UNL     1      40.633 -11.896   1.235  1.00  0.00    -0.326 N 
HETATM   21  H   UNL     1      41.538 -11.492   1.018  1.00  0.00     0.169 HD
HETATM   22  O   UNL     1      38.888 -11.849   2.802  1.00  0.00    -0.271 OA
BRANCH  20  23
HETATM   23  C   UNL     1      40.147 -12.802   0.262  1.00  0.00     0.037 A 
HETATM   24  C   UNL     1      39.688 -12.411  -1.001  1.00  0.00     0.061 A 
HETATM   25  C   UNL     1      39.236 -13.408  -1.839  1.00  0.00     0.065 A 
HETATM   26  C   UNL     1      39.229 -14.751  -1.472  1.00  0.00     0.063 A 
HETATM   27  N   UNL     1      38.723 -13.317  -3.129  1.00  0.00    -0.306 N 
HETATM   28  N   UNL     1      38.716 -15.485  -2.533  1.00  0.00    -0.307 N 
HETATM   29  C   UNL     1      39.673 -15.171  -0.245  1.00  0.00     0.034 A 
HETATM   30  C   UNL     1      38.393 -14.604  -3.576  1.00  0.00     0.325 A 
HETATM   31  H   UNL     1      38.578 -16.482  -2.587  1.00  0.00     0.170 HD
HETATM   32  O   UNL     1      37.919 -14.897  -4.658  1.00  0.00    -0.247 OA
HETATM   33  C   UNL     1      40.135 -14.176   0.629  1.00  0.00     0.032 A 
HETATM   34  H   UNL     1      38.589 -12.487  -3.685  1.00  0.00     0.170 HD
ENDBRANCH  20  23
ENDBRANCH  18  19
ENDBRANCH   1  18
TORSDOF 7
ENDMDL
MODEL 3
REMARK VINA RESULT:      -7.9      2.588      3.111
REMARK  7 active torsions:
REMARK  status: ('A' for Active; 'I' for Inactive)
REMARK    1  A    between atoms: C_2  and  C_3 
REMARK    2  A    between atoms: C_6  and  C_7 
REMARK    3  A    between atoms: C_7  and  N_8 
REMARK    4  A    between atoms: C_7  and  C_25 
REMARK    5  A    between atoms: N_8  and  C_11 
REMARK    6  A    between atoms: C_11  and  C_12 
REMARK       I    between atoms: C_12  and  N_13 
REMARK    7  A    between atoms: N_13  and  C_14 
ROOT
HETATM    1  N   UNL     1      42.618 -16.668   5.084  1.00  0.00    -0.054 N 
HETATM    2  H   UNL     1      41.627 -16.391   4.995  1.00  0.00     0.278 HD
HETATM    3  H   UNL     1      42.582 -17.548   5.606  1.00  0.00     0.278 HD
ENDROOT
BRANCH   1   4
HETATM    4  C   UNL     1      43.194 -16.886   3.724  1.00  0.00     0.259 C 
BRANCH   4   5
HETATM    5  C   UNL     1      42.346 -16.239   2.642  1.00  0.00    -0.023 A 
HETATM    6  C   UNL     1      40.971 -16.526   2.581  1.00  0.00     0.010 A 
HETATM    7  C   UNL     1      40.154 -15.925   1.622  1.00  0.00     0.007 A 
HETATM    8  C   UNL     1      40.688 -15.019   0.701  1.00  0.00    -0.059 A 
HETATM    9  C   UNL     1      42.053 -14.723   0.756  1.00  0.00     0.007 A 
HETATM   10  C   UNL     1      42.875 -15.327   1.712  1.00  0.00     0.010 A 
BRANCH   8  11
HETATM   11  C   UNL     1      39.794 -14.334  -0.303  1.00  0.00     0.034 C 
HETATM   12  C   UNL     1      40.070 -12.839  -0.377  1.00  0.00     0.010 C 
ENDBRANCH   8  11
ENDBRANCH   4   5
BRANCH   4  13
HETATM   13  C   UNL     1      43.458 -18.350   3.462  1.00  0.00     0.017 A 
HETATM   14  S   UNL     1      44.007 -19.345   4.754  1.00  0.00    -0.104 SA
HETATM   15  C   UNL     1      44.048 -20.732   3.761  1.00  0.00     0.050 A 
HETATM   16  C   UNL     1      43.648 -20.458   2.474  1.00  0.00     0.008 A 
HETATM   17  C   UNL     1      43.307 -19.085   2.299  1.00  0.00     0.017 A 
ENDBRANCH   4  13
ENDBRANCH   1   4
BRANCH   1  18
HETATM   18  C   UNL     1      43.302 -15.621   5.927  1.00  0.00     0.336 C 
BRANCH  18  19
HETATM   19  C   UNL     1      42.736 -14.240   5.603  1.00  0.00     0.248 C 
HETATM   20  N   UNL     1      41.389 -14.236   5.304  1.00  0.00    -0.326 N 
HETATM   21  H   UNL     1      40.895 -15.123   5.279  1.00  0.00     0.169 HD
HETATM   22  O   UNL     1      43.506 -13.281   5.630  1.00  0.00    -0.271 OA
BRANCH  20  23
HETATM   23  C   UNL     1      40.588 -13.111   4.995  1.00  0.00     0.037 A 
HETATM   24  C   UNL     1      40.164 -12.176   5.948  1.00  0.00     0.061 A 
HETATM   25  C   UNL     1      39.379 -11.136   5.497  1.00  0.00     0.065 A 
HETATM   26  C   UNL     1      39.013 -10.996   4.162  1.00  0.00     0.063 A 
HETATM   27  N   UNL     1      38.816 -10.080   6.206  1.00  0.00    -0.306 N 
HETATM   28  N   UNL     1      38.229  -9.856   4.047  1.00  0.00    -0.307 N 
HETATM   29  C   UNL     1      39.412 -11.890   3.202  1.00  0.00     0.034 A 
HETATM   30  C   UNL     1      38.094  -9.273   5.315  1.00  0.00     0.325 A 
HETATM   31  H   UNL     1      37.805  -9.477   3.215  1.00  0.00     0.170 HD
HETATM   32  O   UNL     1      37.472  -8.263   5.591  1.00  0.00    -0.247 OA
HETATM   33  C   UNL     1      40.208 -12.961   3.633  1.00  0.00     0.032 A 
HETATM   34  H   UNL     1      38.884  -9.890   7.193  1.00  0.00     0.170 HD
ENDBRANCH  20  23
ENDBRANCH  18  19
ENDBRANCH   1  18
TORSDOF 7
ENDMDL
MODEL 4
REMARK VINA RESULT:      -7.9      3.159      5.261
REMARK  7 active torsions:
REMARK  status: ('A' for Active; 'I' for Inactive)
REMARK    1  A    between atoms: C_2  and  C_3 
REMARK    2  A    between atoms: C_6  and  C_7 
REMARK    3  A    between atoms: C_7  and  N_8 
REMARK    4  A    between atoms: C_7  and  C_25 
REMARK    5  A    between atoms: N_8  and  C_11 
REMARK    6  A    between atoms: C_11  and  C_12 
REMARK       I    between atoms: C_12  and  N_13 
REMARK    7  A    between atoms: N_13  and  C_14 
ROOT
HETATM    1  N   UNL     1      40.337 -12.473   1.785  1.00  0.00    -0.054 N 
HETATM    2  H   UNL     1      41.353 -12.373   1.943  1.00  0.00     0.278 HD
HETATM    3  H   UNL     1      40.109 -11.702   1.150  1.00  0.00     0.278 HD
ENDROOT
BRANCH   1   4
HETATM    4  C   UNL     1      40.068 -13.788   1.131  1.00  0.00     0.259 C 
BRANCH   4   5
HETATM    5  C   UNL     1      41.039 -14.860   1.598  1.00  0.00    -0.023 A 
HETATM    6  C   UNL     1      40.573 -15.895   2.428  1.00  0.00     0.010 A 
HETATM    7  C   UNL     1      41.427 -16.916   2.851  1.00  0.00     0.007 A 
HETATM    8  C   UNL     1      42.766 -16.932   2.453  1.00  0.00    -0.059 A 
HETATM    9  C   UNL     1      43.238 -15.910   1.623  1.00  0.00     0.007 A 
HETATM   10  C   UNL     1      42.387 -14.883   1.203  1.00  0.00     0.010 A 
BRANCH   8  11
HETATM   11  C   UNL     1      43.675 -18.062   2.871  1.00  0.00     0.034 C 
HETATM   12  C   UNL     1      43.286 -19.374   2.205  1.00  0.00     0.010 C 
ENDBRANCH   8  11
ENDBRANCH   4   5
BRANCH   4  13
HETATM   13  C   UNL     1      40.017 -13.661  -0.372  1.00  0.00     0.017 A 
HETATM   14  S   UNL     1      40.651 -12.243  -1.114  1.00  0.00    -0.104 SA
HETATM   15  C   UNL     1      40.282 -12.812  -2.680  1.00  0.00     0.050 A 
HETATM   16  C   UNL     1      39.695 -14.056  -2.652  1.00  0.00     0.008 A 
HETATM   17  C   UNL     1      39.542 -14.548  -1.323  1.00  0.00     0.017 A 
ENDBRANCH   4  13
ENDBRANCH   1   4
BRANCH   1  18
HETATM   18  C   UNL     1      39.651 -12.244   3.108  1.00  0.00     0.336 C 
BRANCH  18  19
HETATM   19  C   UNL     1      40.653 -12.408   4.249  1.00  0.00     0.248 C 
HETATM   20  N   UNL     1      41.539 -11.358   4.380  1.00  0.00    -0.326 N 
HETATM   21  H   UNL     1      41.493 -10.597   3.709  1.00  0.00     0.169 HD
HETATM   22  O   UNL     1      40.591 -13.432   4.928  1.00  0.00    -0.271 OA
BRANCH  20  23
HETATM   23  C   UNL     1      42.552 -11.216   5.357  1.00  0.00     0.037 A 
HETATM   24  C   UNL     1      42.309 -10.811   6.675  1.00  0.00     0.061 A 
HETATM   25  C   UNL     1      43.401 -10.709   7.511  1.00  0.00     0.065 A 
HETATM   26  C   UNL     1      44.696 -10.993   7.090  1.00  0.00     0.063 A 
HETATM   27  N   UNL     1      43.461 -10.330   8.848  1.00  0.00    -0.306 N 
HETATM   28  N   UNL     1      45.553 -10.792   8.164  1.00  0.00    -0.307 N 
HETATM   29  C   UNL     1      44.973 -11.394   5.808  1.00  0.00     0.034 A 
HETATM   30  C   UNL     1      44.797 -10.375   9.270  1.00  0.00     0.325 A 
HETATM   31  H   UNL     1      46.553 -10.909   8.189  1.00  0.00     0.170 HD
HETATM   32  O   UNL     1      45.217 -10.105  10.380  1.00  0.00    -0.247 OA
HETATM   33  C   UNL     1      43.880 -11.501   4.935  1.00  0.00     0.032 A 
HETATM   34  H   UNL     1      42.700 -10.057   9.449  1.00  0.00     0.170 HD
ENDBRANCH  20  23
ENDBRANCH  18  19
ENDBRANCH   1  18
TORSDOF 7
ENDMDL
MODEL 5
REMARK VINA RESULT:      -7.8      4.188      7.245
REMARK  7 active torsions:
REMARK  status: ('A' for Active; 'I' for Inactive)
REMARK    1  A    between atoms: C_2  and  C_3 
REMARK    2  A    between atoms: C_6  and  C_7 
REMARK    3  A    between atoms: C_7  and  N_8 
REMARK    4  A    between atoms: C_7  and  C_25 
REMARK    5  A    between atoms: N_8  and  C_11 
REMARK    6  A    between atoms: C_11  and  C_12 
REMARK       I    between atoms: C_12  and  N_13 
REMARK    7  A    between atoms: N_13  and  C_14 
ROOT
HETATM    1  N   UNL     1      41.137 -13.810   6.416  1.00  0.00    -0.054 N 
HETATM    2  H   UNL     1      40.906 -14.803   6.586  1.00  0.00     0.278 HD
HETATM    3  H   UNL     1      41.461 -13.474   7.328  1.00  0.00     0.278 HD
ENDROOT
BRANCH   1   4
HETATM    4  C   UNL     1      42.234 -13.725   5.407  1.00  0.00     0.259 C 
BRANCH   4   5
HETATM    5  C   UNL     1      42.706 -15.102   4.969  1.00  0.00    -0.023 A 
HETATM    6  C   UNL     1      42.269 -15.618   3.736  1.00  0.00     0.010 A 
HETATM    7  C   UNL     1      42.707 -16.865   3.284  1.00  0.00     0.007 A 
HETATM    8  C   UNL     1      43.595 -17.625   4.049  1.00  0.00    -0.059 A 
HETATM    9  C   UNL     1      44.040 -17.118   5.274  1.00  0.00     0.007 A 
HETATM   10  C   UNL     1      43.599 -15.873   5.732  1.00  0.00     0.010 A 
BRANCH   8  11
HETATM   11  C   UNL     1      44.105 -18.950   3.537  1.00  0.00     0.034 C 
HETATM   12  C   UNL     1      43.377 -19.384   2.272  1.00  0.00     0.010 C 
ENDBRANCH   8  11
ENDBRANCH   4   5
BRANCH   4  13
HETATM   13  C   UNL     1      43.363 -12.845   5.886  1.00  0.00     0.017 A 
HETATM   14  S   UNL     1      44.115 -11.769   4.773  1.00  0.00    -0.104 SA
HETATM   15  C   UNL     1      45.176 -11.165   5.965  1.00  0.00     0.050 A 
HETATM   16  C   UNL     1      44.967 -11.757   7.190  1.00  0.00     0.008 A 
HETATM   17  C   UNL     1      43.922 -12.725   7.146  1.00  0.00     0.017 A 
ENDBRANCH   4  13
ENDBRANCH   1   4
BRANCH   1  18
HETATM   18  C   UNL     1      39.854 -13.105   6.055  1.00  0.00     0.336 C 
BRANCH  18  19
HETATM   19  C   UNL     1      39.953 -12.537   4.641  1.00  0.00     0.248 C 
HETATM   20  N   UNL     1      39.476 -13.381   3.658  1.00  0.00    -0.326 N 
HETATM   21  H   UNL     1      39.145 -14.302   3.927  1.00  0.00     0.169 HD
HETATM   22  O   UNL     1      40.438 -11.416   4.502  1.00  0.00    -0.271 OA
BRANCH  20  23
HETATM   23  C   UNL     1      39.410 -13.118   2.269  1.00  0.00     0.037 A 
HETATM   24  C   UNL     1      40.148 -13.822   1.310  1.00  0.00     0.061 A 
HETATM   25  C   UNL     1      39.985 -13.445  -0.006  1.00  0.00     0.065 A 
HETATM   26  C   UNL     1      39.129 -12.418  -0.392  1.00  0.00     0.063 A 
HETATM   27  N   UNL     1      40.585 -13.953  -1.154  1.00  0.00    -0.306 N 
HETATM   28  N   UNL     1      39.199 -12.294  -1.773  1.00  0.00    -0.307 N 
HETATM   29  C   UNL     1      38.389 -11.708   0.518  1.00  0.00     0.034 A 
HETATM   30  C   UNL     1      40.106 -13.245  -2.265  1.00  0.00     0.325 A 
HETATM   31  H   UNL     1      38.704 -11.644  -2.362  1.00  0.00     0.170 HD
HETATM   32  O   UNL     1      40.417 -13.422  -3.428  1.00  0.00    -0.247 OA
HETATM   33  C   UNL     1      38.539 -12.068   1.865  1.00  0.00     0.032 A 
HETATM   34  H   UNL     1      41.258 -14.700  -1.223  1.00  0.00     0.170 HD
ENDBRANCH  20  23
ENDBRANCH  18  19
ENDBRANCH   1  18
TORSDOF 7
ENDMDL
MODEL 6
REMARK VINA RESULT:      -7.6      5.585      8.506
REMARK  7 active torsions:
REMARK  status: ('A' for Active; 'I' for Inactive)
REMARK    1  A    between atoms: C_2  and  C_3 
REMARK    2  A    between atoms: C_6  and  C_7 
REMARK    3  A    between atoms: C_7  and  N_8 
REMARK    4  A    between atoms: C_7  and  C_25 
REMARK    5  A    between atoms: N_8  and  C_11 
REMARK    6  A    between atoms: C_11  and  C_12 
REMARK       I    between atoms: C_12  and  N_13 
REMARK    7  A    between atoms: N_13  and  C_14 
ROOT
HETATM    1  N   UNL     1      42.514 -14.696   1.644  1.00  0.00    -0.054 N 
HETATM    2  H   UNL     1      43.186 -15.001   0.922  1.00  0.00     0.278 HD
HETATM    3  H   UNL     1      41.684 -15.270   1.466  1.00  0.00     0.278 HD
ENDROOT
BRANCH   1   4
HETATM    4  C   UNL     1      43.075 -14.990   2.996  1.00  0.00     0.259 C 
BRANCH   4   5
HETATM    5  C   UNL     1      43.273 -16.481   3.213  1.00  0.00    -0.023 A 
HETATM    6  C   UNL     1      42.991 -17.372   2.162  1.00  0.00     0.010 A 
HETATM    7  C   UNL     1      43.192 -18.746   2.313  1.00  0.00     0.007 A 
HETATM    8  C   UNL     1      43.682 -19.264   3.514  1.00  0.00    -0.059 A 
HETATM    9  C   UNL     1      43.970 -18.386   4.564  1.00  0.00     0.007 A 
HETATM   10  C   UNL     1      43.765 -17.011   4.418  1.00  0.00     0.010 A 
BRANCH   8  11
HETATM   11  C   UNL     1      43.944 -20.743   3.658  1.00  0.00     0.034 C 
HETATM   12  C   UNL     1      43.905 -21.185   5.114  1.00  0.00     0.010 C 
ENDBRANCH   8  11
ENDBRANCH   4   5
BRANCH   4  13
HETATM   13  C   UNL     1      42.259 -14.344   4.089  1.00  0.00     0.017 A 
HETATM   14  S   UNL     1      42.924 -13.012   4.953  1.00  0.00    -0.104 SA
HETATM   15  C   UNL     1      41.521 -12.842   5.910  1.00  0.00     0.050 A 
HETATM   16  C   UNL     1      40.557 -13.768   5.583  1.00  0.00     0.008 A 
HETATM   17  C   UNL     1      40.980 -14.634   4.533  1.00  0.00     0.017 A 
ENDBRANCH   4  13
ENDBRANCH   1   4
BRANCH   1  18
HETATM   18  C   UNL     1      42.184 -13.251   1.369  1.00  0.00     0.336 C 
BRANCH  18  19
HETATM   19  C   UNL     1      40.760 -13.135   0.828  1.00  0.00     0.248 C 
HETATM   20  N   UNL     1      40.685 -13.006  -0.544  1.00  0.00    -0.326 N 
HETATM   21  H   UNL     1      41.549 -12.957  -1.075  1.00  0.00     0.169 HD
HETATM   22  O   UNL     1      39.834 -13.158   1.636  1.00  0.00    -0.271 OA
BRANCH  20  23
HETATM   23  C   UNL     1      39.510 -12.910  -1.327  1.00  0.00     0.037 A 
HETATM   24  C   UNL     1      38.746 -11.742  -1.439  1.00  0.00     0.061 A 
HETATM   25  C   UNL     1      37.621 -11.805  -2.232  1.00  0.00     0.065 A 
HETATM   26  C   UNL     1      37.240 -12.962  -2.906  1.00  0.00     0.063 A 
HETATM   27  N   UNL     1      36.682 -10.818  -2.519  1.00  0.00    -0.306 N 
HETATM   28  N   UNL     1      36.073 -12.689  -3.607  1.00  0.00    -0.307 N 
HETATM   29  C   UNL     1      37.965 -14.122  -2.822  1.00  0.00     0.034 A 
HETATM   30  C   UNL     1      35.710 -11.354  -3.374  1.00  0.00     0.325 A 
HETATM   31  H   UNL     1      35.542 -13.314  -4.192  1.00  0.00     0.170 HD
HETATM   32  O   UNL     1      34.740 -10.773  -3.826  1.00  0.00    -0.247 OA
HETATM   33  C   UNL     1      39.113 -14.088  -2.017  1.00  0.00     0.032 A 
HETATM   34  H   UNL     1      36.663  -9.867  -2.187  1.00  0.00     0.170 HD
ENDBRANCH  20  23
ENDBRANCH  18  19
ENDBRANCH   1  18
TORSDOF 7
ENDMDL
MODEL 7
REMARK VINA RESULT:      -7.4      2.867      5.167
REMARK  7 active torsions:
REMARK  status: ('A' for Active; 'I' for Inactive)
REMARK    1  A    between atoms: C_2  and  C_3 
REMARK    2  A    between atoms: C_6  and  C_7 
REMARK    3  A    between atoms: C_7  and  N_8 
REMARK    4  A    between atoms: C_7  and  C_25 
REMARK    5  A    between atoms: N_8  and  C_11 
REMARK    6  A    between atoms: C_11  and  C_12 
REMARK       I    between atoms: C_12  and  N_13 
REMARK    7  A    between atoms: N_13  and  C_14 
ROOT
HETATM    1  N   UNL     1      41.595 -12.431   2.657  1.00  0.00    -0.054 N 
HETATM    2  H   UNL     1      41.559 -11.574   2.082  1.00  0.00     0.278 HD
HETATM    3  H   UNL     1      41.078 -12.180   3.505  1.00  0.00     0.278 HD
ENDROOT
BRANCH   1   4
HETATM    4  C   UNL     1      40.906 -13.540   1.932  1.00  0.00     0.259 C 
BRANCH   4   5
HETATM    5  C   UNL     1      41.593 -14.876   2.160  1.00  0.00    -0.023 A 
HETATM    6  C   UNL     1      42.705 -15.220   1.371  1.00  0.00     0.010 A 
HETATM    7  C   UNL     1      43.383 -16.425   1.573  1.00  0.00     0.007 A 
HETATM    8  C   UNL     1      42.970 -17.313   2.570  1.00  0.00    -0.059 A 
HETATM    9  C   UNL     1      41.869 -16.977   3.363  1.00  0.00     0.007 A 
HETATM   10  C   UNL     1      41.185 -15.775   3.160  1.00  0.00     0.010 A 
BRANCH   8  11
HETATM   11  C   UNL     1      43.734 -18.590   2.819  1.00  0.00     0.034 C 
HETATM   12  C   UNL     1      44.313 -18.638   4.226  1.00  0.00     0.010 C 
ENDBRANCH   8  11
ENDBRANCH   4   5
BRANCH   4  13
HETATM   13  C   UNL     1      40.725 -13.218   0.468  1.00  0.00     0.017 A 
HETATM   14  S   UNL     1      39.835 -14.307  -0.524  1.00  0.00    -0.104 SA
HETATM   15  C   UNL     1      40.037 -13.325  -1.905  1.00  0.00     0.050 A 
HETATM   16  C   UNL     1      40.758 -12.187  -1.628  1.00  0.00     0.008 A 
HETATM   17  C   UNL     1      41.155 -12.123  -0.261  1.00  0.00     0.017 A 
ENDBRANCH   4  13
ENDBRANCH   1   4
BRANCH   1  18
HETATM   18  C   UNL     1      43.040 -12.675   3.011  1.00  0.00     0.336 C 
BRANCH  18  19
HETATM   19  C   UNL     1      43.228 -12.580   4.524  1.00  0.00     0.248 C 
HETATM   20  N   UNL     1      43.962 -11.486   4.936  1.00  0.00    -0.326 N 
HETATM   21  H   UNL     1      44.346 -10.866   4.230  1.00  0.00     0.169 HD
HETATM   22  O   UNL     1      42.732 -13.463   5.222  1.00  0.00    -0.271 OA
BRANCH  20  23
HETATM   23  C   UNL     1      44.272 -11.121   6.267  1.00  0.00     0.037 A 
HETATM   24  C   UNL     1      43.305 -10.859   7.245  1.00  0.00     0.061 A 
HETATM   25  C   UNL     1      43.761 -10.505   8.497  1.00  0.00     0.065 A 
HETATM   26  C   UNL     1      45.116 -10.409   8.803  1.00  0.00     0.063 A 
HETATM   27  N   UNL     1      43.042 -10.185   9.645  1.00  0.00    -0.306 N 
HETATM   28  N   UNL     1      45.232 -10.034  10.135  1.00  0.00    -0.307 N 
HETATM   29  C   UNL     1      46.090 -10.661   7.872  1.00  0.00     0.034 A 
HETATM   30  C   UNL     1      43.946  -9.888  10.675  1.00  0.00     0.325 A 
HETATM   31  H   UNL     1      46.076  -9.878  10.663  1.00  0.00     0.170 HD
HETATM   32  O   UNL     1      43.666  -9.567  11.815  1.00  0.00    -0.247 OA
HETATM   33  C   UNL     1      45.654 -11.019   6.588  1.00  0.00     0.032 A 
HETATM   34  H   UNL     1      42.042 -10.155   9.761  1.00  0.00     0.170 HD
ENDBRANCH  20  23
ENDBRANCH  18  19
ENDBRANCH   1  18
TORSDOF 7
ENDMDL
MODEL 8
REMARK VINA RESULT:      -7.4      4.209      9.501
REMARK  7 active torsions:
REMARK  status: ('A' for Active; 'I' for Inactive)
REMARK    1  A    between atoms: C_2  and  C_3 
REMARK    2  A    between atoms: C_6  and  C_7 
REMARK    3  A    between atoms: C_7  and  N_8 
REMARK    4  A    between atoms: C_7  and  C_25 
REMARK    5  A    between atoms: N_8  and  C_11 
REMARK    6  A    between atoms: C_11  and  C_12 
REMARK       I    between atoms: C_12  and  N_13 
REMARK    7  A    between atoms: N_13  and  C_14 
ROOT
HETATM    1  N   UNL     1      41.863  -8.690   8.350  1.00  0.00    -0.054 N 
HETATM    2  H   UNL     1      41.533  -7.839   8.835  1.00  0.00     0.278 HD
HETATM    3  H   UNL     1      42.389  -8.328   7.549  1.00  0.00     0.278 HD
ENDROOT
BRANCH   1   4
HETATM    4  C   UNL     1      42.758  -9.462   9.262  1.00  0.00     0.259 C 
BRANCH   4   5
HETATM    5  C   UNL     1      42.795  -8.862  10.658  1.00  0.00    -0.023 A 
HETATM    6  C   UNL     1      42.554  -7.487  10.822  1.00  0.00     0.010 A 
HETATM    7  C   UNL     1      42.546  -6.906  12.092  1.00  0.00     0.007 A 
HETATM    8  C   UNL     1      42.775  -7.684  13.230  1.00  0.00    -0.059 A 
HETATM    9  C   UNL     1      43.011  -9.054  13.078  1.00  0.00     0.007 A 
HETATM   10  C   UNL     1      43.024  -9.638  11.808  1.00  0.00     0.010 A 
BRANCH   8  11
HETATM   11  C   UNL     1      42.718  -7.063  14.604  1.00  0.00     0.034 C 
HETATM   12  C   UNL     1      41.657  -7.719  15.476  1.00  0.00     0.010 C 
ENDBRANCH   8  11
ENDBRANCH   4   5
BRANCH   4  13
HETATM   13  C   UNL     1      44.135  -9.642   8.667  1.00  0.00     0.017 A 
HETATM   14  S   UNL     1      44.477 -11.070   7.770  1.00  0.00    -0.104 SA
HETATM   15  C   UNL     1      46.074 -10.564   7.441  1.00  0.00     0.050 A 
HETATM   16  C   UNL     1      46.349  -9.333   7.990  1.00  0.00     0.008 A 
HETATM   17  C   UNL     1      45.232  -8.799   8.697  1.00  0.00     0.017 A 
ENDBRANCH   4  13
ENDBRANCH   1   4
BRANCH   1  18
HETATM   18  C   UNL     1      40.643  -9.422   7.851  1.00  0.00     0.336 C 
BRANCH  18  19
HETATM   19  C   UNL     1      40.992 -10.218   6.594  1.00  0.00     0.248 C 
HETATM   20  N   UNL     1      40.625 -11.547   6.646  1.00  0.00    -0.326 N 
HETATM   21  H   UNL     1      40.204 -11.902   7.499  1.00  0.00     0.169 HD
HETATM   22  O   UNL     1      41.557  -9.626   5.676  1.00  0.00    -0.271 OA
BRANCH  20  23
HETATM   23  C   UNL     1      40.790 -12.517   5.628  1.00  0.00     0.037 A 
HETATM   24  C   UNL     1      39.806 -12.821   4.680  1.00  0.00     0.061 A 
HETATM   25  C   UNL     1      40.109 -13.797   3.755  1.00  0.00     0.065 A 
HETATM   26  C   UNL     1      41.331 -14.462   3.739  1.00  0.00     0.063 A 
HETATM   27  N   UNL     1      39.335 -14.304   2.716  1.00  0.00    -0.306 N 
HETATM   28  N   UNL     1      41.312 -15.375   2.692  1.00  0.00    -0.307 N 
HETATM   29  C   UNL     1      42.319 -14.189   4.650  1.00  0.00     0.034 A 
HETATM   30  C   UNL     1      40.071 -15.290   2.044  1.00  0.00     0.325 A 
HETATM   31  H   UNL     1      42.041 -16.012   2.413  1.00  0.00     0.170 HD
HETATM   32  O   UNL     1      39.703 -15.944   1.086  1.00  0.00    -0.247 OA
HETATM   33  C   UNL     1      42.035 -13.203   5.606  1.00  0.00     0.032 A 
HETATM   34  H   UNL     1      38.398 -14.041   2.456  1.00  0.00     0.170 HD
ENDBRANCH  20  23
ENDBRANCH  18  19
ENDBRANCH   1  18
TORSDOF 7
ENDMDL
MODEL 9
REMARK VINA RESULT:      -7.3      3.515      5.925
REMARK  7 active torsions:
REMARK  status: ('A' for Active; 'I' for Inactive)
REMARK    1  A    between atoms: C_2  and  C_3 
REMARK    2  A    between atoms: C_6  and  C_7 
REMARK    3  A    between atoms: C_7  and  N_8 
REMARK    4  A    between atoms: C_7  and  C_25 
REMARK    5  A    between atoms: N_8  and  C_11 
REMARK    6  A    between atoms: C_11  and  C_12 
REMARK       I    between atoms: C_12  and  N_13 
REMARK    7  A    between atoms: N_13  and  C_14 
ROOT
HETATM    1  N   UNL     1      43.389 -13.114   7.306  1.00  0.00    -0.054 N 
HETATM    2  H   UNL     1      42.769 -12.638   7.982  1.00  0.00     0.278 HD
HETATM    3  H   UNL     1      43.748 -13.921   7.826  1.00  0.00     0.278 HD
ENDROOT
BRANCH   1   4
HETATM    4  C   UNL     1      42.584 -13.563   6.131  1.00  0.00     0.259 C 
BRANCH   4   5
HETATM    5  C   UNL     1      43.064 -14.902   5.596  1.00  0.00    -0.023 A 
HETATM    6  C   UNL     1      44.088 -15.586   6.275  1.00  0.00     0.010 A 
HETATM    7  C   UNL     1      44.532 -16.835   5.833  1.00  0.00     0.007 A 
HETATM    8  C   UNL     1      43.963 -17.432   4.705  1.00  0.00    -0.059 A 
HETATM    9  C   UNL     1      42.942 -16.762   4.026  1.00  0.00     0.007 A 
HETATM   10  C   UNL     1      42.498 -15.510   4.462  1.00  0.00     0.010 A 
BRANCH   8  11
HETATM   11  C   UNL     1      44.412 -18.802   4.258  1.00  0.00     0.034 C 
HETATM   12  C   UNL     1      43.908 -19.133   2.861  1.00  0.00     0.010 C 
ENDBRANCH   8  11
ENDBRANCH   4   5
BRANCH   4  13
HETATM   13  C   UNL     1      42.519 -12.497   5.063  1.00  0.00     0.017 A 
HETATM   14  S   UNL     1      41.441 -11.171   5.271  1.00  0.00    -0.104 SA
HETATM   15  C   UNL     1      41.922 -10.459   3.796  1.00  0.00     0.050 A 
HETATM   16  C   UNL     1      42.886 -11.201   3.154  1.00  0.00     0.008 A 
HETATM   17  C   UNL     1      43.232 -12.376   3.883  1.00  0.00     0.017 A 
ENDBRANCH   4  13
ENDBRANCH   1   4
BRANCH   1  18
HETATM   18  C   UNL     1      44.529 -12.175   7.002  1.00  0.00     0.336 C 
BRANCH  18  19
HETATM   19  C   UNL     1      44.660 -11.138   8.117  1.00  0.00     0.248 C 
HETATM   20  N   UNL     1      43.458 -10.750   8.673  1.00  0.00    -0.326 N 
HETATM   21  H   UNL     1      42.600 -11.134   8.290  1.00  0.00     0.169 HD
HETATM   22  O   UNL     1      45.788 -10.746   8.409  1.00  0.00    -0.271 OA
BRANCH  20  23
HETATM   23  C   UNL     1      43.268  -9.835   9.735  1.00  0.00     0.037 A 
HETATM   24  C   UNL     1      43.022 -10.221  11.058  1.00  0.00     0.061 A 
HETATM   25  C   UNL     1      42.847  -9.214  11.983  1.00  0.00     0.065 A 
HETATM   26  C   UNL     1      42.911  -7.866  11.644  1.00  0.00     0.063 A 
HETATM   27  N   UNL     1      42.586  -9.298  13.347  1.00  0.00    -0.306 N 
HETATM   28  N   UNL     1      42.693  -7.121  12.795  1.00  0.00    -0.307 N 
HETATM   29  C   UNL     1      43.152  -7.450  10.360  1.00  0.00     0.034 A 
HETATM   30  C   UNL     1      42.486  -8.001  13.868  1.00  0.00     0.325 A 
HETATM   31  H   UNL     1      42.674  -6.118  12.890  1.00  0.00     0.170 HD
HETATM   32  O   UNL     1      42.263  -7.699  15.026  1.00  0.00    -0.247 OA
HETATM   33  C   UNL     1      43.329  -8.454   9.398  1.00  0.00     0.032 A 
HETATM   34  H   UNL     1      42.475 -10.129  13.906  1.00  0.00     0.170 HD
ENDBRANCH  20  23
ENDBRANCH  18  19
ENDBRANCH   1  18
TORSDOF 7
ENDMDL
MODEL 10
REMARK VINA RESULT:      -7.2      5.205      7.951
REMARK  7 active torsions:
REMARK  status: ('A' for Active; 'I' for Inactive)
REMARK    1  A    between atoms: C_2  and  C_3 
REMARK    2  A    between atoms: C_6  and  C_7 
REMARK    3  A    between atoms: C_7  and  N_8 
REMARK    4  A    between atoms: C_7  and  C_25 
REMARK    5  A    between atoms: N_8  and  C_11 
REMARK    6  A    between atoms: C_11  and  C_12 
REMARK       I    between atoms: C_12  and  N_13 
REMARK    7  A    between atoms: N_13  and  C_14 
ROOT
HETATM    1  N   UNL     1      40.725 -13.801   3.883  1.00  0.00    -0.054 N 
HETATM    2  H   UNL     1      40.573 -14.399   4.711  1.00  0.00     0.278 HD
HETATM    3  H   UNL     1      40.432 -12.870   4.194  1.00  0.00     0.278 HD
ENDROOT
BRANCH   1   4
HETATM    4  C   UNL     1      42.176 -13.804   3.531  1.00  0.00     0.259 C 
BRANCH   4   5
HETATM    5  C   UNL     1      42.696 -15.212   3.292  1.00  0.00    -0.023 A 
HETATM    6  C   UNL     1      42.772 -16.109   4.372  1.00  0.00     0.010 A 
HETATM    7  C   UNL     1      43.213 -17.421   4.186  1.00  0.00     0.007 A 
HETATM    8  C   UNL     1      43.585 -17.871   2.916  1.00  0.00    -0.059 A 
HETATM    9  C   UNL     1      43.508 -16.988   1.834  1.00  0.00     0.007 A 
HETATM   10  C   UNL     1      43.072 -15.673   2.019  1.00  0.00     0.010 A 
BRANCH   8  11
HETATM   11  C   UNL     1      44.014 -19.303   2.708  1.00  0.00     0.034 C 
HETATM   12  C   UNL     1      42.992 -20.087   1.898  1.00  0.00     0.010 C 
ENDBRANCH   8  11
ENDBRANCH   4   5
BRANCH   4  13
HETATM   13  C   UNL     1      42.995 -13.043   4.547  1.00  0.00     0.017 A 
HETATM   14  S   UNL     1      43.830 -11.623   4.053  1.00  0.00    -0.104 SA
HETATM   15  C   UNL     1      44.445 -11.353   5.622  1.00  0.00     0.050 A 
HETATM   16  C   UNL     1      44.023 -12.313   6.513  1.00  0.00     0.008 A 
HETATM   17  C   UNL     1      43.187 -13.288   5.895  1.00  0.00     0.017 A 
ENDBRANCH   4  13
ENDBRANCH   1   4
BRANCH   1  18
HETATM   18  C   UNL     1      39.786 -14.279   2.804  1.00  0.00     0.336 C 
BRANCH  18  19
HETATM   19  C   UNL     1      39.491 -13.142   1.828  1.00  0.00     0.248 C 
HETATM   20  N   UNL     1      39.683 -13.471   0.502  1.00  0.00    -0.326 N 
HETATM   21  H   UNL     1      40.034 -14.397   0.277  1.00  0.00     0.169 HD
HETATM   22  O   UNL     1      39.126 -12.064   2.293  1.00  0.00    -0.271 OA
BRANCH  20  23
HETATM   23  C   UNL     1      39.463 -12.640  -0.622  1.00  0.00     0.037 A 
HETATM   24  C   UNL     1      40.435 -11.787  -1.159  1.00  0.00     0.061 A 
HETATM   25  C   UNL     1      40.069 -11.030  -2.251  1.00  0.00     0.065 A 
HETATM   26  C   UNL     1      38.800 -11.095  -2.818  1.00  0.00     0.063 A 
HETATM   27  N   UNL     1      40.813 -10.105  -2.977  1.00  0.00    -0.306 N 
HETATM   28  N   UNL     1      38.760 -10.214  -3.891  1.00  0.00    -0.307 N 
HETATM   29  C   UNL     1      37.824 -11.920  -2.322  1.00  0.00     0.034 A 
HETATM   30  C   UNL     1      40.010  -9.586  -4.003  1.00  0.00     0.325 A 
HETATM   31  H   UNL     1      37.987 -10.024  -4.508  1.00  0.00     0.170 HD
HETATM   32  O   UNL     1      40.336  -8.753  -4.829  1.00  0.00    -0.247 OA
HETATM   33  C   UNL     1      38.167 -12.698  -1.207  1.00  0.00     0.032 A 
HETATM   34  H   UNL     1      41.767  -9.821  -2.825  1.00  0.00     0.170 HD
ENDBRANCH  20  23
ENDBRANCH  18  19
ENDBRANCH   1  18
TORSDOF 7
ENDMDL
