MODEL 1
REMARK VINA RESULT:      -8.1      0.000      0.000
REMARK  3 active torsions:
REMARK  status: ('A' for Active; 'I' for Inactive)
REMARK    1  A    between atoms: O_2  and  C_3 
REMARK    2  A    between atoms: C_7  and  C_8 
REMARK    3  A    between atoms: C_19  and  N_20 
ROOT
HETATM    1  C   UNL     1      40.315 -14.813   3.866  1.00  0.00     0.244 A 
HETATM    2  N   UNL     1      41.498 -15.504   4.324  1.00  0.00    -0.151 N 
HETATM    3  C   UNL     1      42.058 -15.205   5.540  1.00  0.00     0.734 A 
HETATM    4  N   UNL     1      43.115 -15.963   5.734  1.00  0.00    -0.060 NA
HETATM    5  C   UNL     1      43.221 -16.775   4.632  1.00  0.00     0.103 A 
HETATM    6  C   UNL     1      42.195 -16.520   3.727  1.00  0.00     0.083 A 
HETATM    7  C   UNL     1      44.172 -17.761   4.337  1.00  0.00     0.034 A 
HETATM    8  C   UNL     1      44.057 -18.467   3.135  1.00  0.00     0.002 A 
HETATM    9  C   UNL     1      43.015 -18.199   2.246  1.00  0.00     0.002 A 
HETATM   10  C   UNL     1      42.056 -17.219   2.522  1.00  0.00     0.033 A 
HETATM   11  N   UNL     1      41.553 -14.262   6.367  1.00  0.00    -0.033 NA
HETATM   12  C   UNL     1      40.492 -13.630   6.020  1.00  0.00     0.193 A 
HETATM   13  N   UNL     1      39.800 -13.832   4.820  1.00  0.00    -0.339 N 
HETATM   14  H   UNL     1      39.041 -13.222   4.558  1.00  0.00     0.164 HD
ENDROOT
BRANCH   1  15
HETATM   15  C   UNL     1      40.555 -14.085   2.555  1.00  0.00    -0.014 A 
HETATM   16  C   UNL     1      39.989 -14.549   1.353  1.00  0.00     0.033 A 
HETATM   17  C   UNL     1      40.199 -13.859   0.154  1.00  0.00     0.044 A 
HETATM   18  C   UNL     1      40.967 -12.693   0.142  1.00  0.00     0.085 A 
HETATM   19 BR   UNL     1      39.399 -14.537  -1.425  1.00  0.00    -0.048 Br
HETATM   20  C   UNL     1      41.566 -12.246   1.321  1.00  0.00     0.039 A 
HETATM   21  C   UNL     1      41.363 -12.935   2.520  1.00  0.00     0.014 A 
BRANCH  18  22
HETATM   22  O   UNL     1      41.187 -12.038  -1.040  1.00  0.00    -0.355 OA
HETATM   23  C   UNL     1      41.309 -10.627  -0.856  1.00  0.00     0.210 C 
ENDBRANCH  18  22
ENDBRANCH   1  15
BRANCH  12  24
HETATM   24  N   UNL     1      39.930 -12.673   6.784  1.00  0.00    -0.272 NA
HETATM   25  H   UNL     1      39.036 -12.984   7.160  1.00  0.00     0.127 HD
HETATM   26  H   UNL     1      39.846 -11.752   6.373  1.00  0.00     0.127 HD
ENDBRANCH  12  24
TORSDOF 3
ENDMDL
MODEL 2
REMARK VINA RESULT:      -7.6      3.605      5.771
REMARK  3 active torsions:
REMARK  status: ('A' for Active; 'I' for Inactive)
REMARK    1  A    between atoms: O_2  and  C_3 
REMARK    2  A    between atoms: C_7  and  C_8 
REMARK    3  A    between atoms: C_19  and  N_20 
ROOT
HETATM    1  C   UNL     1      41.100 -14.589   3.723  1.00  0.00     0.244 A 
HETATM    2  N   UNL     1      41.890 -13.397   3.925  1.00  0.00    -0.151 N 
HETATM    3  C   UNL     1      41.764 -12.323   3.081  1.00  0.00     0.734 A 
HETATM    4  N   UNL     1      42.577 -11.364   3.468  1.00  0.00    -0.060 NA
HETATM    5  C   UNL     1      43.218 -11.825   4.590  1.00  0.00     0.103 A 
HETATM    6  C   UNL     1      42.787 -13.107   4.917  1.00  0.00     0.083 A 
HETATM    7  C   UNL     1      44.184 -11.198   5.389  1.00  0.00     0.034 A 
HETATM    8  C   UNL     1      44.685 -11.883   6.500  1.00  0.00     0.002 A 
HETATM    9  C   UNL     1      44.232 -13.166   6.813  1.00  0.00     0.002 A 
HETATM   10  C   UNL     1      43.269 -13.809   6.028  1.00  0.00     0.033 A 
HETATM   11  N   UNL     1      40.917 -12.314   2.027  1.00  0.00    -0.033 NA
HETATM   12  C   UNL     1      40.177 -13.339   1.812  1.00  0.00     0.193 A 
HETATM   13  N   UNL     1      40.180 -14.503   2.590  1.00  0.00    -0.339 N 
HETATM   14  H   UNL     1      39.659 -15.315   2.299  1.00  0.00     0.164 HD
ENDROOT
BRANCH   1  15
HETATM   15  C   UNL     1      41.969 -15.815   3.506  1.00  0.00    -0.014 A 
HETATM   16  C   UNL     1      42.353 -16.635   4.585  1.00  0.00     0.033 A 
HETATM   17  C   UNL     1      43.136 -17.773   4.372  1.00  0.00     0.044 A 
HETATM   18  C   UNL     1      43.538 -18.115   3.079  1.00  0.00     0.085 A 
HETATM   19 BR   UNL     1      43.606 -18.835   5.870  1.00  0.00    -0.048 Br
HETATM   20  C   UNL     1      43.199 -17.288   2.007  1.00  0.00     0.039 A 
HETATM   21  C   UNL     1      42.420 -16.146   2.217  1.00  0.00     0.014 A 
BRANCH  18  22
HETATM   22  O   UNL     1      44.325 -19.218   2.882  1.00  0.00    -0.355 OA
HETATM   23  C   UNL     1      43.644 -20.239   2.151  1.00  0.00     0.210 C 
ENDBRANCH  18  22
ENDBRANCH   1  15
BRANCH  12  24
HETATM   24  N   UNL     1      39.312 -13.412   0.781  1.00  0.00    -0.272 NA
HETATM   25  H   UNL     1      39.556 -14.175   0.153  1.00  0.00     0.127 HD
HETATM   26  H   UNL     1      39.148 -12.558   0.263  1.00  0.00     0.127 HD
ENDBRANCH  12  24
TORSDOF 3
ENDMDL
MODEL 3
REMARK VINA RESULT:      -7.6      3.596      6.116
REMARK  3 active torsions:
REMARK  status: ('A' for Active; 'I' for Inactive)
REMARK    1  A    between atoms: O_2  and  C_3 
REMARK    2  A    between atoms: C_7  and  C_8 
REMARK    3  A    between atoms: C_19  and  N_20 
ROOT
HETATM    1  C   UNL     1      41.269 -14.949   4.987  1.00  0.00     0.244 A 
HETATM    2  N   UNL     1      42.041 -13.769   4.674  1.00  0.00    -0.151 N 
HETATM    3  C   UNL     1      41.766 -13.030   3.552  1.00  0.00     0.734 A 
HETATM    4  N   UNL     1      42.593 -12.010   3.485  1.00  0.00    -0.060 NA
HETATM    5  C   UNL     1      43.398 -12.087   4.594  1.00  0.00     0.103 A 
HETATM    6  C   UNL     1      43.057 -13.183   5.380  1.00  0.00     0.083 A 
HETATM    7  C   UNL     1      44.444 -11.247   4.999  1.00  0.00     0.034 A 
HETATM    8  C   UNL     1      45.115 -11.537   6.192  1.00  0.00     0.002 A 
HETATM    9  C   UNL     1      44.751 -12.638   6.967  1.00  0.00     0.002 A 
HETATM   10  C   UNL     1      43.709 -13.489   6.580  1.00  0.00     0.033 A 
HETATM   11  N   UNL     1      40.782 -13.354   2.683  1.00  0.00    -0.033 NA
HETATM   12  C   UNL     1      40.052 -14.382   2.923  1.00  0.00     0.193 A 
HETATM   13  N   UNL     1      40.199 -15.225   4.030  1.00  0.00    -0.339 N 
HETATM   14  H   UNL     1      39.669 -16.080   4.097  1.00  0.00     0.164 HD
ENDROOT
BRANCH   1  15
HETATM   15  C   UNL     1      42.138 -16.192   5.064  1.00  0.00    -0.014 A 
HETATM   16  C   UNL     1      42.573 -16.847   3.896  1.00  0.00     0.033 A 
HETATM   17  C   UNL     1      43.391 -17.979   3.977  1.00  0.00     0.044 A 
HETATM   18  C   UNL     1      43.793 -18.465   5.223  1.00  0.00     0.085 A 
HETATM   19 BR   UNL     1      43.947 -18.803   2.363  1.00  0.00    -0.048 Br
HETATM   20  C   UNL     1      43.333 -17.849   6.388  1.00  0.00     0.039 A 
HETATM   21  C   UNL     1      42.513 -16.720   6.311  1.00  0.00     0.014 A 
BRANCH  18  22
HETATM   22  O   UNL     1      44.573 -19.588   5.293  1.00  0.00    -0.355 OA
HETATM   23  C   UNL     1      43.801 -20.762   5.545  1.00  0.00     0.210 C 
ENDBRANCH  18  22
ENDBRANCH   1  15
BRANCH  12  24
HETATM   24  N   UNL     1      39.055 -14.776   2.104  1.00  0.00    -0.272 NA
HETATM   25  H   UNL     1      38.302 -15.215   2.632  1.00  0.00     0.127 HD
HETATM   26  H   UNL     1      39.316 -15.344   1.309  1.00  0.00     0.127 HD
ENDBRANCH  12  24
TORSDOF 3
ENDMDL
MODEL 4
REMARK VINA RESULT:      -7.3      4.981      6.547
REMARK  3 active torsions:
REMARK  status: ('A' for Active; 'I' for Inactive)
REMARK    1  A    between atoms: O_2  and  C_3 
REMARK    2  A    between atoms: C_7  and  C_8 
REMARK    3  A    between atoms: C_19  and  N_20 
ROOT
HETATM    1  C   UNL     1      43.841 -12.178   4.493  1.00  0.00     0.244 A 
HETATM    2  N   UNL     1      42.802 -13.158   4.711  1.00  0.00    -0.151 N 
HETATM    3  C   UNL     1      41.650 -13.133   3.968  1.00  0.00     0.734 A 
HETATM    4  N   UNL     1      40.865 -14.120   4.343  1.00  0.00    -0.060 NA
HETATM    5  C   UNL     1      41.536 -14.799   5.329  1.00  0.00     0.103 A 
HETATM    6  C   UNL     1      42.780 -14.223   5.571  1.00  0.00     0.083 A 
HETATM    7  C   UNL     1      41.143 -15.925   6.065  1.00  0.00     0.034 A 
HETATM    8  C   UNL     1      42.022 -16.442   7.022  1.00  0.00     0.002 A 
HETATM    9  C   UNL     1      43.267 -15.852   7.242  1.00  0.00     0.002 A 
HETATM   10  C   UNL     1      43.678 -14.727   6.519  1.00  0.00     0.033 A 
HETATM   11  N   UNL     1      41.414 -12.208   3.010  1.00  0.00    -0.033 NA
HETATM   12  C   UNL     1      42.311 -11.325   2.761  1.00  0.00     0.193 A 
HETATM   13  N   UNL     1      43.541 -11.229   3.423  1.00  0.00    -0.339 N 
HETATM   14  H   UNL     1      44.150 -10.443   3.259  1.00  0.00     0.164 HD
ENDROOT
BRANCH   1  15
HETATM   15  C   UNL     1      44.129 -11.369   5.746  1.00  0.00    -0.014 A 
HETATM   16  C   UNL     1      43.112 -10.636   6.387  1.00  0.00     0.033 A 
HETATM   17  C   UNL     1      43.384  -9.911   7.552  1.00  0.00     0.044 A 
HETATM   18  C   UNL     1      44.669  -9.916   8.097  1.00  0.00     0.085 A 
HETATM   19 BR   UNL     1      41.963  -8.956   8.367  1.00  0.00    -0.048 Br
HETATM   20  C   UNL     1      45.694 -10.606   7.447  1.00  0.00     0.039 A 
HETATM   21  C   UNL     1      45.428 -11.328   6.280  1.00  0.00     0.014 A 
BRANCH  18  22
HETATM   22  O   UNL     1      44.931  -9.184   9.224  1.00  0.00    -0.355 OA
HETATM   23  C   UNL     1      45.189 -10.016  10.356  1.00  0.00     0.210 C 
ENDBRANCH  18  22
ENDBRANCH   1  15
BRANCH  12  24
HETATM   24  N   UNL     1      42.152 -10.366   1.827  1.00  0.00    -0.272 NA
HETATM   25  H   UNL     1      42.720 -10.560   1.005  1.00  0.00     0.127 HD
HETATM   26  H   UNL     1      42.274  -9.409   2.132  1.00  0.00     0.127 HD
ENDBRANCH  12  24
TORSDOF 3
ENDMDL
MODEL 5
REMARK VINA RESULT:      -7.3      4.235      7.277
REMARK  3 active torsions:
REMARK  status: ('A' for Active; 'I' for Inactive)
REMARK    1  A    between atoms: O_2  and  C_3 
REMARK    2  A    between atoms: C_7  and  C_8 
REMARK    3  A    between atoms: C_19  and  N_20 
ROOT
HETATM    1  C   UNL     1      39.188 -13.157  -0.365  1.00  0.00     0.244 A 
HETATM    2  N   UNL     1      40.017 -12.291  -1.171  1.00  0.00    -0.151 N 
HETATM    3  C   UNL     1      40.290 -12.602  -2.478  1.00  0.00     0.734 A 
HETATM    4  N   UNL     1      41.055 -11.668  -3.000  1.00  0.00    -0.060 NA
HETATM    5  C   UNL     1      41.258 -10.734  -2.015  1.00  0.00     0.103 A 
HETATM    6  C   UNL     1      40.593 -11.093  -0.846  1.00  0.00     0.083 A 
HETATM    7  C   UNL     1      41.999  -9.546  -2.049  1.00  0.00     0.034 A 
HETATM    8  C   UNL     1      42.046  -8.749  -0.900  1.00  0.00     0.002 A 
HETATM    9  C   UNL     1      41.365  -9.125   0.259  1.00  0.00     0.002 A 
HETATM   10  C   UNL     1      40.619 -10.308   0.313  1.00  0.00     0.033 A 
HETATM   11  N   UNL     1      39.817 -13.715  -3.082  1.00  0.00    -0.033 NA
HETATM   12  C   UNL     1      39.059 -14.511  -2.419  1.00  0.00     0.193 A 
HETATM   13  N   UNL     1      38.680 -14.324  -1.084  1.00  0.00    -0.339 N 
HETATM   14  H   UNL     1      38.178 -15.045  -0.589  1.00  0.00     0.164 HD
ENDROOT
BRANCH   1  15
HETATM   15  C   UNL     1      39.925 -13.669   0.861  1.00  0.00    -0.014 A 
HETATM   16  C   UNL     1      41.048 -14.508   0.736  1.00  0.00     0.033 A 
HETATM   17  C   UNL     1      41.732 -14.957   1.871  1.00  0.00     0.044 A 
HETATM   18  C   UNL     1      41.310 -14.566   3.143  1.00  0.00     0.085 A 
HETATM   19 BR   UNL     1      43.242 -16.076   1.625  1.00  0.00    -0.048 Br
HETATM   20  C   UNL     1      40.173 -13.768   3.281  1.00  0.00     0.039 A 
HETATM   21  C   UNL     1      39.484 -13.321   2.149  1.00  0.00     0.014 A 
BRANCH  18  22
HETATM   22  O   UNL     1      41.971 -15.029   4.249  1.00  0.00    -0.355 OA
HETATM   23  C   UNL     1      41.232 -16.045   4.928  1.00  0.00     0.210 C 
ENDBRANCH  18  22
ENDBRANCH   1  15
BRANCH  12  24
HETATM   24  N   UNL     1      38.552 -15.644  -2.945  1.00  0.00    -0.272 NA
HETATM   25  H   UNL     1      37.585 -15.779  -2.655  1.00  0.00     0.127 HD
HETATM   26  H   UNL     1      39.090 -16.489  -2.811  1.00  0.00     0.127 HD
ENDBRANCH  12  24
TORSDOF 3
ENDMDL
MODEL 6
REMARK VINA RESULT:      -7.2      3.629      4.846
REMARK  3 active torsions:
REMARK  status: ('A' for Active; 'I' for Inactive)
REMARK    1  A    between atoms: O_2  and  C_3 
REMARK    2  A    between atoms: C_7  and  C_8 
REMARK    3  A    between atoms: C_19  and  N_20 
ROOT
HETATM    1  C   UNL     1      42.070 -15.597   6.648  1.00  0.00     0.244 A 
HETATM    2  N   UNL     1      42.619 -16.332   5.532  1.00  0.00    -0.151 N 
HETATM    3  C   UNL     1      43.662 -17.203   5.713  1.00  0.00     0.734 A 
HETATM    4  N   UNL     1      43.981 -17.751   4.561  1.00  0.00    -0.060 NA
HETATM    5  C   UNL     1      43.113 -17.236   3.630  1.00  0.00     0.103 A 
HETATM    6  C   UNL     1      42.222 -16.345   4.222  1.00  0.00     0.083 A 
HETATM    7  C   UNL     1      43.025 -17.487   2.255  1.00  0.00     0.034 A 
HETATM    8  C   UNL     1      42.034 -16.835   1.514  1.00  0.00     0.002 A 
HETATM    9  C   UNL     1      41.146 -15.952   2.130  1.00  0.00     0.002 A 
HETATM   10  C   UNL     1      41.218 -15.687   3.502  1.00  0.00     0.033 A 
HETATM   11  N   UNL     1      44.235 -17.421   6.918  1.00  0.00    -0.033 NA
HETATM   12  C   UNL     1      43.775 -16.809   7.948  1.00  0.00     0.193 A 
HETATM   13  N   UNL     1      42.709 -15.902   7.927  1.00  0.00    -0.339 N 
HETATM   14  H   UNL     1      42.473 -15.370   8.750  1.00  0.00     0.164 HD
ENDROOT
BRANCH   1  15
HETATM   15  C   UNL     1      42.169 -14.095   6.442  1.00  0.00    -0.014 A 
HETATM   16  C   UNL     1      43.395 -13.420   6.591  1.00  0.00     0.033 A 
HETATM   17  C   UNL     1      43.479 -12.040   6.379  1.00  0.00     0.044 A 
HETATM   18  C   UNL     1      42.344 -11.319   6.005  1.00  0.00     0.085 A 
HETATM   19 BR   UNL     1      45.166 -11.200   6.588  1.00  0.00    -0.048 Br
HETATM   20  C   UNL     1      41.114 -11.970   5.895  1.00  0.00     0.039 A 
HETATM   21  C   UNL     1      41.026 -13.348   6.110  1.00  0.00     0.014 A 
BRANCH  18  22
HETATM   22  O   UNL     1      42.431  -9.964   5.823  1.00  0.00    -0.355 OA
HETATM   23  C   UNL     1      41.771  -9.541   4.629  1.00  0.00     0.210 C 
ENDBRANCH  18  22
ENDBRANCH   1  15
BRANCH  12  24
HETATM   24  N   UNL     1      44.293 -16.967   9.183  1.00  0.00    -0.272 NA
HETATM   25  H   UNL     1      43.601 -17.356   9.821  1.00  0.00     0.127 HD
HETATM   26  H   UNL     1      44.747 -16.161   9.592  1.00  0.00     0.127 HD
ENDBRANCH  12  24
TORSDOF 3
ENDMDL
MODEL 7
REMARK VINA RESULT:      -7.1      8.559     11.486
REMARK  3 active torsions:
REMARK  status: ('A' for Active; 'I' for Inactive)
REMARK    1  A    between atoms: O_2  and  C_3 
REMARK    2  A    between atoms: C_7  and  C_8 
REMARK    3  A    between atoms: C_19  and  N_20 
ROOT
HETATM    1  C   UNL     1      41.879  -9.077  12.551  1.00  0.00     0.244 A 
HETATM    2  N   UNL     1      40.942  -7.982  12.457  1.00  0.00    -0.151 N 
HETATM    3  C   UNL     1      39.597  -8.196  12.619  1.00  0.00     0.734 A 
HETATM    4  N   UNL     1      38.953  -7.055  12.494  1.00  0.00    -0.060 NA
HETATM    5  C   UNL     1      39.906  -6.093  12.269  1.00  0.00     0.103 A 
HETATM    6  C   UNL     1      41.181  -6.648  12.260  1.00  0.00     0.083 A 
HETATM    7  C   UNL     1      39.752  -4.715  12.066  1.00  0.00     0.034 A 
HETATM    8  C   UNL     1      40.895  -3.934  11.863  1.00  0.00     0.002 A 
HETATM    9  C   UNL     1      42.166  -4.513  11.866  1.00  0.00     0.002 A 
HETATM   10  C   UNL     1      42.339  -5.886  12.067  1.00  0.00     0.033 A 
HETATM   11  N   UNL     1      39.073  -9.417  12.865  1.00  0.00    -0.033 NA
HETATM   12  C   UNL     1      39.861 -10.423  12.978  1.00  0.00     0.193 A 
HETATM   13  N   UNL     1      41.254 -10.364  12.853  1.00  0.00    -0.339 N 
HETATM   14  H   UNL     1      41.803 -11.208  12.838  1.00  0.00     0.164 HD
ENDROOT
BRANCH   1  15
HETATM   15  C   UNL     1      42.677  -9.252  11.271  1.00  0.00    -0.014 A 
HETATM   16  C   UNL     1      42.033  -9.387  10.026  1.00  0.00     0.033 A 
HETATM   17  C   UNL     1      42.778  -9.527   8.851  1.00  0.00     0.044 A 
HETATM   18  C   UNL     1      44.173  -9.525   8.901  1.00  0.00     0.085 A 
HETATM   19 BR   UNL     1      41.843  -9.694   7.210  1.00  0.00    -0.048 Br
HETATM   20  C   UNL     1      44.822  -9.434  10.134  1.00  0.00     0.039 A 
HETATM   21  C   UNL     1      44.081  -9.298  11.311  1.00  0.00     0.014 A 
BRANCH  18  22
HETATM   22  O   UNL     1      44.894  -9.687   7.748  1.00  0.00    -0.355 OA
HETATM   23  C   UNL     1      45.824 -10.765   7.845  1.00  0.00     0.210 C 
ENDBRANCH  18  22
ENDBRANCH   1  15
BRANCH  12  24
HETATM   24  N   UNL     1      39.418 -11.674  13.217  1.00  0.00    -0.272 NA
HETATM   25  H   UNL     1      38.711 -11.947  12.537  1.00  0.00     0.127 HD
HETATM   26  H   UNL     1      39.109 -11.876  14.159  1.00  0.00     0.127 HD
ENDBRANCH  12  24
TORSDOF 3
ENDMDL
MODEL 8
REMARK VINA RESULT:      -7.0     15.388     16.733
REMARK  3 active torsions:
REMARK  status: ('A' for Active; 'I' for Inactive)
REMARK    1  A    between atoms: O_2  and  C_3 
REMARK    2  A    between atoms: C_7  and  C_8 
REMARK    3  A    between atoms: C_19  and  N_20 
ROOT
HETATM    1  C   UNL     1      45.825 -30.271   0.381  1.00  0.00     0.244 A 
HETATM    2  N   UNL     1      45.801 -29.510  -0.846  1.00  0.00    -0.151 N 
HETATM    3  C   UNL     1      46.425 -28.292  -0.927  1.00  0.00     0.734 A 
HETATM    4  N   UNL     1      46.269 -27.798  -2.136  1.00  0.00    -0.060 NA
HETATM    5  C   UNL     1      45.551 -28.728  -2.847  1.00  0.00     0.103 A 
HETATM    6  C   UNL     1      45.256 -29.836  -2.059  1.00  0.00     0.083 A 
HETATM    7  C   UNL     1      45.116 -28.692  -4.178  1.00  0.00     0.034 A 
HETATM    8  C   UNL     1      44.396 -29.782  -4.679  1.00  0.00     0.002 A 
HETATM    9  C   UNL     1      44.119 -30.887  -3.872  1.00  0.00     0.002 A 
HETATM   10  C   UNL     1      44.545 -30.941  -2.541  1.00  0.00     0.033 A 
HETATM   11  N   UNL     1      47.082 -27.734   0.115  1.00  0.00    -0.033 NA
HETATM   12  C   UNL     1      47.151 -28.375   1.224  1.00  0.00     0.193 A 
HETATM   13  N   UNL     1      46.579 -29.631   1.457  1.00  0.00    -0.339 N 
HETATM   14  H   UNL     1      46.572 -30.026   2.385  1.00  0.00     0.164 HD
ENDROOT
BRANCH   1  15
HETATM   15  C   UNL     1      44.427 -30.540   0.909  1.00  0.00    -0.014 A 
HETATM   16  C   UNL     1      43.909 -31.849   0.960  1.00  0.00     0.033 A 
HETATM   17  C   UNL     1      42.627 -32.088   1.467  1.00  0.00     0.044 A 
HETATM   18  C   UNL     1      41.852 -31.027   1.940  1.00  0.00     0.085 A 
HETATM   19 BR   UNL     1      41.999 -33.876   1.514  1.00  0.00    -0.048 Br
HETATM   20  C   UNL     1      42.338 -29.722   1.856  1.00  0.00     0.039 A 
HETATM   21  C   UNL     1      43.617 -29.478   1.345  1.00  0.00     0.014 A 
BRANCH  18  22
HETATM   22  O   UNL     1      40.589 -31.268   2.412  1.00  0.00    -0.355 OA
HETATM   23  C   UNL     1      40.546 -31.289   3.839  1.00  0.00     0.210 C 
ENDBRANCH  18  22
ENDBRANCH   1  15
BRANCH  12  24
HETATM   24  N   UNL     1      47.782 -27.886   2.312  1.00  0.00    -0.272 NA
HETATM   25  H   UNL     1      48.343 -27.071   2.071  1.00  0.00     0.127 HD
HETATM   26  H   UNL     1      48.320 -28.544   2.860  1.00  0.00     0.127 HD
ENDBRANCH  12  24
TORSDOF 3
ENDMDL
MODEL 9
REMARK VINA RESULT:      -7.0      2.566      3.216
REMARK  3 active torsions:
REMARK  status: ('A' for Active; 'I' for Inactive)
REMARK    1  A    between atoms: O_2  and  C_3 
REMARK    2  A    between atoms: C_7  and  C_8 
REMARK    3  A    between atoms: C_19  and  N_20 
ROOT
HETATM    1  C   UNL     1      41.764 -15.412   5.931  1.00  0.00     0.244 A 
HETATM    2  N   UNL     1      42.649 -16.421   5.397  1.00  0.00    -0.151 N 
HETATM    3  C   UNL     1      43.641 -16.963   6.174  1.00  0.00     0.734 A 
HETATM    4  N   UNL     1      44.306 -17.857   5.474  1.00  0.00    -0.060 NA
HETATM    5  C   UNL     1      43.716 -17.901   4.236  1.00  0.00     0.103 A 
HETATM    6  C   UNL     1      42.646 -17.014   4.163  1.00  0.00     0.083 A 
HETATM    7  C   UNL     1      44.040 -18.682   3.119  1.00  0.00     0.034 A 
HETATM    8  C   UNL     1      43.271 -18.549   1.958  1.00  0.00     0.002 A 
HETATM    9  C   UNL     1      42.197 -17.658   1.912  1.00  0.00     0.002 A 
HETATM   10  C   UNL     1      41.857 -16.868   3.016  1.00  0.00     0.033 A 
HETATM   11  N   UNL     1      43.854 -16.592   7.456  1.00  0.00    -0.033 NA
HETATM   12  C   UNL     1      43.085 -15.713   7.987  1.00  0.00     0.193 A 
HETATM   13  N   UNL     1      42.023 -15.080   7.331  1.00  0.00    -0.339 N 
HETATM   14  H   UNL     1      41.533 -14.316   7.769  1.00  0.00     0.164 HD
ENDROOT
BRANCH   1  15
HETATM   15  C   UNL     1      41.837 -14.118   5.140  1.00  0.00    -0.014 A 
HETATM   16  C   UNL     1      40.714 -13.277   5.015  1.00  0.00     0.033 A 
HETATM   17  C   UNL     1      40.799 -12.077   4.301  1.00  0.00     0.044 A 
HETATM   18  C   UNL     1      42.005 -11.696   3.712  1.00  0.00     0.085 A 
HETATM   19 BR   UNL     1      39.249 -10.992   4.184  1.00  0.00    -0.048 Br
HETATM   20  C   UNL     1      43.114 -12.540   3.794  1.00  0.00     0.039 A 
HETATM   21  C   UNL     1      43.032 -13.743   4.502  1.00  0.00     0.014 A 
BRANCH  18  22
HETATM   22  O   UNL     1      42.072 -10.531   2.995  1.00  0.00    -0.355 OA
HETATM   23  C   UNL     1      41.834 -10.745   1.603  1.00  0.00     0.210 C 
ENDBRANCH  18  22
ENDBRANCH   1  15
BRANCH  12  24
HETATM   24  N   UNL     1      43.234 -15.285   9.257  1.00  0.00    -0.272 NA
HETATM   25  H   UNL     1      42.488 -14.641   9.515  1.00  0.00     0.127 HD
HETATM   26  H   UNL     1      44.139 -14.906   9.507  1.00  0.00     0.127 HD
ENDBRANCH  12  24
TORSDOF 3
ENDMDL
MODEL 10
REMARK VINA RESULT:      -6.8     15.107     16.197
REMARK  3 active torsions:
REMARK  status: ('A' for Active; 'I' for Inactive)
REMARK    1  A    between atoms: O_2  and  C_3 
REMARK    2  A    between atoms: C_7  and  C_8 
REMARK    3  A    between atoms: C_19  and  N_20 
ROOT
HETATM    1  C   UNL     1      46.270 -28.520   1.173  1.00  0.00     0.244 A 
HETATM    2  N   UNL     1      45.600 -29.512   1.981  1.00  0.00    -0.151 N 
HETATM    3  C   UNL     1      46.308 -30.293   2.859  1.00  0.00     0.734 A 
HETATM    4  N   UNL     1      45.485 -31.111   3.479  1.00  0.00    -0.060 NA
HETATM    5  C   UNL     1      44.228 -30.834   3.003  1.00  0.00     0.103 A 
HETATM    6  C   UNL     1      44.266 -29.808   2.064  1.00  0.00     0.083 A 
HETATM    7  C   UNL     1      42.999 -31.421   3.333  1.00  0.00     0.034 A 
HETATM    8  C   UNL     1      41.840 -30.951   2.707  1.00  0.00     0.002 A 
HETATM    9  C   UNL     1      41.902 -29.915   1.773  1.00  0.00     0.002 A 
HETATM   10  C   UNL     1      43.119 -29.316   1.430  1.00  0.00     0.033 A 
HETATM   11  N   UNL     1      47.646 -30.191   3.017  1.00  0.00    -0.033 NA
HETATM   12  C   UNL     1      48.290 -29.312   2.338  1.00  0.00     0.193 A 
HETATM   13  N   UNL     1      47.709 -28.435   1.415  1.00  0.00    -0.339 N 
HETATM   14  H   UNL     1      48.287 -27.850   0.832  1.00  0.00     0.164 HD
ENDROOT
BRANCH   1  15
HETATM   15  C   UNL     1      46.077 -28.773  -0.312  1.00  0.00    -0.014 A 
HETATM   16  C   UNL     1      46.652 -29.895  -0.938  1.00  0.00     0.033 A 
HETATM   17  C   UNL     1      46.451 -30.130  -2.303  1.00  0.00     0.044 A 
HETATM   18  C   UNL     1      45.665 -29.256  -3.056  1.00  0.00     0.085 A 
HETATM   19 BR   UNL     1      47.248 -31.666  -3.077  1.00  0.00    -0.048 Br
HETATM   20  C   UNL     1      45.124 -28.118  -2.455  1.00  0.00     0.039 A 
HETATM   21  C   UNL     1      45.327 -27.877  -1.093  1.00  0.00     0.014 A 
BRANCH  18  22
HETATM   22  O   UNL     1      45.494 -29.481  -4.396  1.00  0.00    -0.355 OA
HETATM   23  C   UNL     1      44.177 -29.946  -4.696  1.00  0.00     0.210 C 
ENDBRANCH  18  22
ENDBRANCH   1  15
BRANCH  12  24
HETATM   24  N   UNL     1      49.625 -29.151   2.433  1.00  0.00    -0.272 NA
HETATM   25  H   UNL     1      49.905 -28.993   3.399  1.00  0.00     0.127 HD
HETATM   26  H   UNL     1      50.046 -28.465   1.820  1.00  0.00     0.127 HD
ENDBRANCH  12  24
TORSDOF 3
ENDMDL
