MODEL 1
REMARK VINA RESULT:      -7.3      0.000      0.000
REMARK  9 active torsions:
REMARK  status: ('A' for Active; 'I' for Inactive)
REMARK    1  A    between atoms: C_2  and  C_3 
REMARK    2  A    between atoms: C_7  and  C_8 
REMARK    3  A    between atoms: C_8  and  C_9 
REMARK       I    between atoms: C_9  and  N_10 
REMARK    4  A    between atoms: N_10  and  C_11 
REMARK    5  A    between atoms: C_11  and  C_12 
REMARK    6  A    between atoms: C_12  and  C_13 
REMARK    7  A    between atoms: C_21  and  C_22 
REMARK    8  A    between atoms: C_32  and  C_33 
REMARK    9  A    between atoms: C_33  and  O_34 
ROOT
HETATM    1  C   UNL     1      40.727 -13.776   2.025  1.00  0.00     0.051 C 
HETATM    2  N   UNL     1      40.205 -12.519   1.795  1.00  0.00    -0.228 NA
HETATM    3  C   UNL     1      39.748 -11.847   2.789  1.00  0.00     0.170 C 
HETATM    4  N   UNL     1      39.866 -12.256   4.276  1.00  0.00    -0.318 N 
HETATM    5  C   UNL     1      39.300 -11.388   5.051  1.00  0.00     0.011 C 
HETATM    6  C   UNL     1      40.751 -13.425   4.515  1.00  0.00     0.166 C 
HETATM    7  S   UNL     1      38.958 -10.318   2.592  1.00  0.00    -0.086 SA
HETATM    8  C   UNL     1      38.562 -10.263   4.358  1.00  0.00     0.135 C 
HETATM    9  C   UNL     1      40.908 -14.266   3.271  1.00  0.00     0.069 C 
ENDROOT
BRANCH   5  10
HETATM   10  C   UNL     1      39.464 -11.428   6.543  1.00  0.00     0.156 C 
BRANCH  10  11
HETATM   11  C   UNL     1      39.948 -10.117   7.116  1.00  0.00     0.222 C 
HETATM   12  N   UNL     1      41.254  -9.799   6.837  1.00  0.00    -0.361 N 
HETATM   13  H   UNL     1      41.828 -10.434   6.289  1.00  0.00     0.162 HD
HETATM   14  O   UNL     1      39.196  -9.412   7.780  1.00  0.00    -0.273 OA
BRANCH  12  15
HETATM   15  C   UNL     1      41.866  -8.558   7.290  1.00  0.00     0.124 C 
BRANCH  15  16
HETATM   16  C   UNL     1      43.189  -8.821   8.015  1.00  0.00     0.053 C 
BRANCH  16  17
HETATM   17  C   UNL     1      43.029  -9.780   9.207  1.00  0.00     0.189 C 
HETATM   18  N   UNL     1      42.538  -8.976  10.420  1.00  0.00    -0.071 N 
HETATM   19  H   UNL     1      42.378  -7.999  10.138  1.00  0.00     0.279 HD
HETATM   20  C   UNL     1      41.239  -9.474  10.990  1.00  0.00     0.270 C 
HETATM   21  C   UNL     1      43.654  -8.956  11.454  1.00  0.00     0.235 C 
HETATM   22  C   UNL     1      44.883  -9.384  10.681  1.00  0.00     0.030 C 
HETATM   23  C   UNL     1      44.334 -10.401   9.701  1.00  0.00     0.035 C 
ENDBRANCH  16  17
ENDBRANCH  15  16
ENDBRANCH  12  15
ENDBRANCH  10  11
ENDBRANCH   5  10
BRANCH   6  24
HETATM   24  C   UNL     1      42.088 -12.920   5.080  1.00  0.00    -0.024 A 
HETATM   25  C   UNL     1      42.686 -13.455   6.247  1.00  0.00    -0.053 A 
HETATM   26  C   UNL     1      42.191 -14.675   6.984  1.00  0.00     0.049 C 
HETATM   27  C   UNL     1      43.896 -12.900   6.718  1.00  0.00     0.014 A 
HETATM   28  C   UNL     1      44.511 -11.820   6.081  1.00  0.00    -0.061 A 
HETATM   29  C   UNL     1      45.819 -11.275   6.581  1.00  0.00     0.048 C 
HETATM   30  C   UNL     1      43.942 -11.315   4.917  1.00  0.00     0.007 A 
HETATM   31  C   UNL     1      42.756 -11.859   4.421  1.00  0.00     0.011 A 
ENDBRANCH   6  24
BRANCH   9  32
HETATM   32  C   UNL     1      41.207 -15.690   3.576  1.00  0.00     0.293 C 
HETATM   33  O   UNL     1      40.340 -16.491   3.877  1.00  0.00    -0.259 OA
BRANCH  32  34
HETATM   34  O   UNL     1      42.486 -15.985   3.259  1.00  0.00    -0.323 OA
HETATM   35  C   UNL     1      43.143 -16.882   4.160  1.00  0.00     0.213 C 
ENDBRANCH  32  34
ENDBRANCH   9  32
BRANCH   1  36
HETATM   36  C   UNL     1      41.079 -14.508   0.732  1.00  0.00     0.056 C 
HETATM   37  C   UNL     1      39.920 -14.585  -0.257  1.00  0.00     0.011 C 
ENDBRANCH   1  36
TORSDOF 9
ENDMDL
MODEL 2
REMARK VINA RESULT:      -7.2      0.834      1.335
REMARK  9 active torsions:
REMARK  status: ('A' for Active; 'I' for Inactive)
REMARK    1  A    between atoms: C_2  and  C_3 
REMARK    2  A    between atoms: C_7  and  C_8 
REMARK    3  A    between atoms: C_8  and  C_9 
REMARK       I    between atoms: C_9  and  N_10 
REMARK    4  A    between atoms: N_10  and  C_11 
REMARK    5  A    between atoms: C_11  and  C_12 
REMARK    6  A    between atoms: C_12  and  C_13 
REMARK    7  A    between atoms: C_21  and  C_22 
REMARK    8  A    between atoms: C_32  and  C_33 
REMARK    9  A    between atoms: C_33  and  O_34 
ROOT
HETATM    1  C   UNL     1      40.753 -13.623   2.051  1.00  0.00     0.051 C 
HETATM    2  N   UNL     1      40.219 -12.361   1.884  1.00  0.00    -0.228 NA
HETATM    3  C   UNL     1      39.762 -11.742   2.912  1.00  0.00     0.170 C 
HETATM    4  N   UNL     1      39.893 -12.219   4.377  1.00  0.00    -0.318 N 
HETATM    5  C   UNL     1      39.324 -11.394   5.196  1.00  0.00     0.011 C 
HETATM    6  C   UNL     1      40.789 -13.390   4.555  1.00  0.00     0.166 C 
HETATM    7  S   UNL     1      38.957 -10.212   2.793  1.00  0.00    -0.086 SA
HETATM    8  C   UNL     1      38.572 -10.244   4.562  1.00  0.00     0.135 C 
HETATM    9  C   UNL     1      40.947 -14.170   3.272  1.00  0.00     0.069 C 
ENDROOT
BRANCH   5  10
HETATM   10  C   UNL     1      39.498 -11.504   6.683  1.00  0.00     0.156 C 
BRANCH  10  11
HETATM   11  C   UNL     1      40.208 -10.311   7.281  1.00  0.00     0.222 C 
HETATM   12  N   UNL     1      39.689  -9.850   8.465  1.00  0.00    -0.361 N 
HETATM   13  H   UNL     1      38.873 -10.300   8.875  1.00  0.00     0.162 HD
HETATM   14  O   UNL     1      41.178  -9.818   6.718  1.00  0.00    -0.273 OA
BRANCH  12  15
HETATM   15  C   UNL     1      40.272  -8.728   9.186  1.00  0.00     0.124 C 
BRANCH  15  16
HETATM   16  C   UNL     1      41.011  -9.196  10.443  1.00  0.00     0.053 C 
BRANCH  16  17
HETATM   17  C   UNL     1      42.488  -8.768  10.453  1.00  0.00     0.189 C 
HETATM   18  N   UNL     1      43.202  -9.441   9.271  1.00  0.00    -0.071 N 
HETATM   19  H   UNL     1      42.516  -9.973   8.719  1.00  0.00     0.279 HD
HETATM   20  C   UNL     1      43.851  -8.470   8.324  1.00  0.00     0.270 C 
HETATM   21  C   UNL     1      44.191 -10.451   9.832  1.00  0.00     0.235 C 
HETATM   22  C   UNL     1      43.756 -10.637  11.270  1.00  0.00     0.030 C 
HETATM   23  C   UNL     1      43.281  -9.252  11.665  1.00  0.00     0.035 C 
ENDBRANCH  16  17
ENDBRANCH  15  16
ENDBRANCH  12  15
ENDBRANCH  10  11
ENDBRANCH   5  10
BRANCH   6  24
HETATM   24  C   UNL     1      42.126 -12.901   5.136  1.00  0.00    -0.024 A 
HETATM   25  C   UNL     1      42.730 -13.477   6.279  1.00  0.00    -0.053 A 
HETATM   26  C   UNL     1      42.243 -14.727   6.971  1.00  0.00     0.049 C 
HETATM   27  C   UNL     1      43.938 -12.934   6.768  1.00  0.00     0.014 A 
HETATM   28  C   UNL     1      44.547 -11.828   6.171  1.00  0.00    -0.061 A 
HETATM   29  C   UNL     1      45.853 -11.296   6.689  1.00  0.00     0.048 C 
HETATM   30  C   UNL     1      43.971 -11.281   5.029  1.00  0.00     0.007 A 
HETATM   31  C   UNL     1      42.787 -11.812   4.516  1.00  0.00     0.011 A 
ENDBRANCH   6  24
BRANCH   9  32
HETATM   32  C   UNL     1      41.259 -15.604   3.507  1.00  0.00     0.293 C 
HETATM   33  O   UNL     1      40.393 -16.450   3.645  1.00  0.00    -0.259 OA
BRANCH  32  34
HETATM   34  O   UNL     1      42.577 -15.838   3.325  1.00  0.00    -0.323 OA
HETATM   35  C   UNL     1      43.101 -16.955   4.051  1.00  0.00     0.213 C 
ENDBRANCH  32  34
ENDBRANCH   9  32
BRANCH   1  36
HETATM   36  C   UNL     1      41.103 -14.290   0.724  1.00  0.00     0.056 C 
HETATM   37  C   UNL     1      39.940 -14.326  -0.263  1.00  0.00     0.011 C 
ENDBRANCH   1  36
TORSDOF 9
ENDMDL
MODEL 3
REMARK VINA RESULT:      -7.1      2.758      7.390
REMARK  9 active torsions:
REMARK  status: ('A' for Active; 'I' for Inactive)
REMARK    1  A    between atoms: C_2  and  C_3 
REMARK    2  A    between atoms: C_7  and  C_8 
REMARK    3  A    between atoms: C_8  and  C_9 
REMARK       I    between atoms: C_9  and  N_10 
REMARK    4  A    between atoms: N_10  and  C_11 
REMARK    5  A    between atoms: C_11  and  C_12 
REMARK    6  A    between atoms: C_12  and  C_13 
REMARK    7  A    between atoms: C_21  and  C_22 
REMARK    8  A    between atoms: C_32  and  C_33 
REMARK    9  A    between atoms: C_33  and  O_34 
ROOT
HETATM    1  C   UNL     1      42.391  -9.516   6.806  1.00  0.00     0.051 C 
HETATM    2  N   UNL     1      41.632  -9.124   5.721  1.00  0.00    -0.228 NA
HETATM    3  C   UNL     1      41.801  -9.724   4.599  1.00  0.00     0.170 C 
HETATM    4  N   UNL     1      42.684 -10.974   4.375  1.00  0.00    -0.318 N 
HETATM    5  C   UNL     1      42.669 -11.347   3.136  1.00  0.00     0.011 C 
HETATM    6  C   UNL     1      43.194 -11.587   5.628  1.00  0.00     0.166 C 
HETATM    7  S   UNL     1      40.994  -9.226   3.149  1.00  0.00    -0.086 SA
HETATM    8  C   UNL     1      41.920 -10.444   2.181  1.00  0.00     0.135 C 
HETATM    9  C   UNL     1      43.197 -10.599   6.770  1.00  0.00     0.069 C 
ENDROOT
BRANCH   5  10
HETATM   10  C   UNL     1      43.258 -12.656   2.693  1.00  0.00     0.156 C 
BRANCH  10  11
HETATM   11  C   UNL     1      42.212 -13.716   2.444  1.00  0.00     0.222 C 
HETATM   12  N   UNL     1      42.641 -15.012   2.592  1.00  0.00    -0.361 N 
HETATM   13  H   UNL     1      43.608 -15.205   2.841  1.00  0.00     0.162 HD
HETATM   14  O   UNL     1      41.068 -13.402   2.134  1.00  0.00    -0.273 OA
BRANCH  12  15
HETATM   15  C   UNL     1      41.751 -16.151   2.416  1.00  0.00     0.124 C 
BRANCH  15  16
HETATM   16  C   UNL     1      42.024 -17.239   3.459  1.00  0.00     0.053 C 
BRANCH  16  17
HETATM   17  C   UNL     1      43.437 -17.834   3.335  1.00  0.00     0.189 C 
HETATM   18  N   UNL     1      43.322 -19.366   3.308  1.00  0.00    -0.071 N 
HETATM   19  H   UNL     1      42.329 -19.632   3.323  1.00  0.00     0.279 HD
HETATM   20  C   UNL     1      43.915 -19.996   2.079  1.00  0.00     0.270 C 
HETATM   21  C   UNL     1      43.939 -19.905   4.590  1.00  0.00     0.235 C 
HETATM   22  C   UNL     1      44.028 -18.697   5.497  1.00  0.00     0.030 C 
HETATM   23  C   UNL     1      44.345 -17.569   4.534  1.00  0.00     0.035 C 
ENDBRANCH  16  17
ENDBRANCH  15  16
ENDBRANCH  12  15
ENDBRANCH  10  11
ENDBRANCH   5  10
BRANCH   6  24
HETATM   24  C   UNL     1      42.374 -12.853   5.923  1.00  0.00    -0.024 A 
HETATM   25  C   UNL     1      42.964 -14.105   6.226  1.00  0.00    -0.053 A 
HETATM   26  C   UNL     1      44.438 -14.325   6.459  1.00  0.00     0.049 C 
HETATM   27  C   UNL     1      42.132 -15.225   6.441  1.00  0.00     0.014 A 
HETATM   28  C   UNL     1      40.741 -15.143   6.341  1.00  0.00    -0.061 A 
HETATM   29  C   UNL     1      39.878 -16.342   6.615  1.00  0.00     0.048 C 
HETATM   30  C   UNL     1      40.159 -13.907   6.076  1.00  0.00     0.007 A 
HETATM   31  C   UNL     1      40.959 -12.782   5.878  1.00  0.00     0.011 A 
ENDBRANCH   6  24
BRANCH   9  32
HETATM   32  C   UNL     1      44.228 -10.912   7.795  1.00  0.00     0.293 C 
HETATM   33  O   UNL     1      43.974 -11.538   8.809  1.00  0.00    -0.259 OA
BRANCH  32  34
HETATM   34  O   UNL     1      45.461 -10.608   7.335  1.00  0.00    -0.323 OA
HETATM   35  C   UNL     1      46.095  -9.502   7.986  1.00  0.00     0.213 C 
ENDBRANCH  32  34
ENDBRANCH   9  32
BRANCH   1  36
HETATM   36  C   UNL     1      42.192  -8.608   8.017  1.00  0.00     0.056 C 
HETATM   37  C   UNL     1      41.118  -9.106   8.979  1.00  0.00     0.011 C 
ENDBRANCH   1  36
TORSDOF 9
ENDMDL
MODEL 4
REMARK VINA RESULT:      -6.8      2.310      7.900
REMARK  9 active torsions:
REMARK  status: ('A' for Active; 'I' for Inactive)
REMARK    1  A    between atoms: C_2  and  C_3 
REMARK    2  A    between atoms: C_7  and  C_8 
REMARK    3  A    between atoms: C_8  and  C_9 
REMARK       I    between atoms: C_9  and  N_10 
REMARK    4  A    between atoms: N_10  and  C_11 
REMARK    5  A    between atoms: C_11  and  C_12 
REMARK    6  A    between atoms: C_12  and  C_13 
REMARK    7  A    between atoms: C_21  and  C_22 
REMARK    8  A    between atoms: C_32  and  C_33 
REMARK    9  A    between atoms: C_33  and  O_34 
ROOT
HETATM    1  C   UNL     1      42.164  -9.464   6.860  1.00  0.00     0.051 C 
HETATM    2  N   UNL     1      41.433  -9.102   5.747  1.00  0.00    -0.228 NA
HETATM    3  C   UNL     1      41.658  -9.705   4.636  1.00  0.00     0.170 C 
HETATM    4  N   UNL     1      42.585 -10.930   4.453  1.00  0.00    -0.318 N 
HETATM    5  C   UNL     1      42.625 -11.312   3.218  1.00  0.00     0.011 C 
HETATM    6  C   UNL     1      43.068 -11.519   5.728  1.00  0.00     0.166 C 
HETATM    7  S   UNL     1      40.889  -9.241   3.155  1.00  0.00    -0.086 SA
HETATM    8  C   UNL     1      41.883 -10.438   2.229  1.00  0.00     0.135 C 
HETATM    9  C   UNL     1      43.002 -10.523   6.861  1.00  0.00     0.069 C 
ENDROOT
BRANCH   5  10
HETATM   10  C   UNL     1      43.267 -12.606   2.806  1.00  0.00     0.156 C 
BRANCH  10  11
HETATM   11  C   UNL     1      42.264 -13.710   2.570  1.00  0.00     0.222 C 
HETATM   12  N   UNL     1      41.117 -13.333   1.917  1.00  0.00    -0.361 N 
HETATM   13  H   UNL     1      40.983 -12.364   1.638  1.00  0.00     0.162 HD
HETATM   14  O   UNL     1      42.494 -14.853   2.948  1.00  0.00    -0.273 OA
BRANCH  12  15
HETATM   15  C   UNL     1      40.062 -14.281   1.585  1.00  0.00     0.124 C 
BRANCH  15  16
HETATM   16  C   UNL     1      40.141 -14.712   0.118  1.00  0.00     0.053 C 
BRANCH  16  17
HETATM   17  C   UNL     1      39.948 -13.536  -0.855  1.00  0.00     0.189 C 
HETATM   18  N   UNL     1      38.462 -13.149  -0.867  1.00  0.00    -0.071 N 
HETATM   19  H   UNL     1      37.954 -13.728  -0.185  1.00  0.00     0.279 HD
HETATM   20  C   UNL     1      38.205 -11.718  -0.488  1.00  0.00     0.270 C 
HETATM   21  C   UNL     1      37.898 -13.495  -2.238  1.00  0.00     0.235 C 
HETATM   22  C   UNL     1      38.929 -14.425  -2.839  1.00  0.00     0.030 C 
HETATM   23  C   UNL     1      40.239 -13.868  -2.316  1.00  0.00     0.035 C 
ENDBRANCH  16  17
ENDBRANCH  15  16
ENDBRANCH  12  15
ENDBRANCH  10  11
ENDBRANCH   5  10
BRANCH   6  24
HETATM   24  C   UNL     1      42.275 -12.807   6.005  1.00  0.00    -0.024 A 
HETATM   25  C   UNL     1      42.892 -14.051   6.283  1.00  0.00    -0.053 A 
HETATM   26  C   UNL     1      44.371 -14.245   6.505  1.00  0.00     0.049 C 
HETATM   27  C   UNL     1      42.084 -15.191   6.482  1.00  0.00     0.014 A 
HETATM   28  C   UNL     1      40.691 -15.136   6.390  1.00  0.00    -0.061 A 
HETATM   29  C   UNL     1      39.854 -16.357   6.646  1.00  0.00     0.048 C 
HETATM   30  C   UNL     1      40.083 -13.908   6.149  1.00  0.00     0.007 A 
HETATM   31  C   UNL     1      40.859 -12.763   5.967  1.00  0.00     0.011 A 
ENDBRANCH   6  24
BRANCH   9  32
HETATM   32  C   UNL     1      44.004 -10.798   7.924  1.00  0.00     0.293 C 
HETATM   33  O   UNL     1      43.875 -11.704   8.728  1.00  0.00    -0.259 OA
BRANCH  32  34
HETATM   34  O   UNL     1      45.125 -10.071   7.719  1.00  0.00    -0.323 OA
HETATM   35  C   UNL     1      46.269 -10.824   7.305  1.00  0.00     0.213 C 
ENDBRANCH  32  34
ENDBRANCH   9  32
BRANCH   1  36
HETATM   36  C   UNL     1      41.896  -8.553   8.056  1.00  0.00     0.056 C 
HETATM   37  C   UNL     1      42.607  -7.205   7.964  1.00  0.00     0.011 C 
ENDBRANCH   1  36
TORSDOF 9
ENDMDL
MODEL 5
REMARK VINA RESULT:      -6.5     18.591     21.209
REMARK  9 active torsions:
REMARK  status: ('A' for Active; 'I' for Inactive)
REMARK    1  A    between atoms: C_2  and  C_3 
REMARK    2  A    between atoms: C_7  and  C_8 
REMARK    3  A    between atoms: C_8  and  C_9 
REMARK       I    between atoms: C_9  and  N_10 
REMARK    4  A    between atoms: N_10  and  C_11 
REMARK    5  A    between atoms: C_11  and  C_12 
REMARK    6  A    between atoms: C_12  and  C_13 
REMARK    7  A    between atoms: C_21  and  C_22 
REMARK    8  A    between atoms: C_32  and  C_33 
REMARK    9  A    between atoms: C_33  and  O_34 
ROOT
HETATM    1  C   UNL     1      45.611 -33.171  -4.400  1.00  0.00     0.051 C 
HETATM    2  N   UNL     1      46.561 -33.740  -3.576  1.00  0.00    -0.228 NA
HETATM    3  C   UNL     1      47.406 -32.976  -2.985  1.00  0.00     0.170 C 
HETATM    4  N   UNL     1      47.369 -31.430  -2.986  1.00  0.00    -0.318 N 
HETATM    5  C   UNL     1      48.358 -30.933  -2.316  1.00  0.00     0.011 C 
HETATM    6  C   UNL     1      46.132 -30.854  -3.572  1.00  0.00     0.166 C 
HETATM    7  S   UNL     1      48.714 -33.598  -2.034  1.00  0.00    -0.086 SA
HETATM    8  C   UNL     1      49.374 -31.928  -1.797  1.00  0.00     0.135 C 
HETATM    9  C   UNL     1      45.445 -31.833  -4.494  1.00  0.00     0.069 C 
ENDROOT
BRANCH   5  10
HETATM   10  C   UNL     1      48.433 -29.473  -1.973  1.00  0.00     0.156 C 
BRANCH  10  11
HETATM   11  C   UNL     1      48.581 -29.224  -0.490  1.00  0.00     0.222 C 
HETATM   12  N   UNL     1      47.527 -28.578   0.106  1.00  0.00    -0.361 N 
HETATM   13  H   UNL     1      46.724 -28.290  -0.449  1.00  0.00     0.162 HD
HETATM   14  O   UNL     1      49.587 -29.591   0.105  1.00  0.00    -0.273 OA
BRANCH  12  15
HETATM   15  C   UNL     1      47.498 -28.287   1.532  1.00  0.00     0.124 C 
BRANCH  15  16
HETATM   16  C   UNL     1      46.252 -28.878   2.197  1.00  0.00     0.053 C 
BRANCH  16  17
HETATM   17  C   UNL     1      46.575 -30.094   3.082  1.00  0.00     0.189 C 
HETATM   18  N   UNL     1      48.062 -30.439   2.917  1.00  0.00    -0.071 N 
HETATM   19  H   UNL     1      48.505 -29.746   2.299  1.00  0.00     0.279 HD
HETATM   20  C   UNL     1      48.836 -30.417   4.206  1.00  0.00     0.270 C 
HETATM   21  C   UNL     1      48.157 -31.781   2.207  1.00  0.00     0.235 C 
HETATM   22  C   UNL     1      46.777 -31.991   1.624  1.00  0.00     0.030 C 
HETATM   23  C   UNL     1      45.866 -31.383   2.673  1.00  0.00     0.035 C 
ENDBRANCH  16  17
ENDBRANCH  15  16
ENDBRANCH  12  15
ENDBRANCH  10  11
ENDBRANCH   5  10
BRANCH   6  24
HETATM   24  C   UNL     1      45.230 -30.362  -2.428  1.00  0.00    -0.024 A 
HETATM   25  C   UNL     1      44.902 -28.999  -2.233  1.00  0.00    -0.053 A 
HETATM   26  C   UNL     1      45.246 -27.887  -3.193  1.00  0.00     0.049 C 
HETATM   27  C   UNL     1      44.101 -28.634  -1.129  1.00  0.00     0.014 A 
HETATM   28  C   UNL     1      43.640 -29.576  -0.206  1.00  0.00    -0.061 A 
HETATM   29  C   UNL     1      42.757 -29.165   0.937  1.00  0.00     0.048 C 
HETATM   30  C   UNL     1      43.936 -30.919  -0.415  1.00  0.00     0.007 A 
HETATM   31  C   UNL     1      44.710 -31.307  -1.509  1.00  0.00     0.011 A 
ENDBRANCH   6  24
BRANCH   9  32
HETATM   32  C   UNL     1      44.639 -31.160  -5.546  1.00  0.00     0.293 C 
HETATM   33  O   UNL     1      43.712 -30.415  -5.285  1.00  0.00    -0.259 OA
BRANCH  32  34
HETATM   34  O   UNL     1      45.215 -31.318  -6.758  1.00  0.00    -0.323 OA
HETATM   35  C   UNL     1      44.301 -31.404  -7.857  1.00  0.00     0.213 C 
ENDBRANCH  32  34
ENDBRANCH   9  32
BRANCH   1  36
HETATM   36  C   UNL     1      44.787 -34.214  -5.151  1.00  0.00     0.056 C 
HETATM   37  C   UNL     1      43.532 -34.650  -4.401  1.00  0.00     0.011 C 
ENDBRANCH   1  36
TORSDOF 9
ENDMDL
MODEL 6
REMARK VINA RESULT:      -6.3      3.048      8.626
REMARK  9 active torsions:
REMARK  status: ('A' for Active; 'I' for Inactive)
REMARK    1  A    between atoms: C_2  and  C_3 
REMARK    2  A    between atoms: C_7  and  C_8 
REMARK    3  A    between atoms: C_8  and  C_9 
REMARK       I    between atoms: C_9  and  N_10 
REMARK    4  A    between atoms: N_10  and  C_11 
REMARK    5  A    between atoms: C_11  and  C_12 
REMARK    6  A    between atoms: C_12  and  C_13 
REMARK    7  A    between atoms: C_21  and  C_22 
REMARK    8  A    between atoms: C_32  and  C_33 
REMARK    9  A    between atoms: C_33  and  O_34 
ROOT
HETATM    1  C   UNL     1      42.706  -9.325  11.503  1.00  0.00     0.051 C 
HETATM    2  N   UNL     1      43.938  -9.541  10.918  1.00  0.00    -0.228 NA
HETATM    3  C   UNL     1      43.987  -9.830   9.668  1.00  0.00     0.170 C 
HETATM    4  N   UNL     1      42.783  -9.811   8.696  1.00  0.00    -0.318 N 
HETATM    5  C   UNL     1      43.135 -10.161   7.501  1.00  0.00     0.011 C 
HETATM    6  C   UNL     1      41.548  -9.222   9.273  1.00  0.00     0.166 C 
HETATM    7  S   UNL     1      45.466 -10.244   8.868  1.00  0.00    -0.086 SA
HETATM    8  C   UNL     1      44.569 -10.618   7.339  1.00  0.00     0.135 C 
HETATM    9  C   UNL     1      41.565  -9.263  10.782  1.00  0.00     0.069 C 
ENDROOT
BRANCH   5  10
HETATM   10  C   UNL     1      42.214 -10.011   6.325  1.00  0.00     0.156 C 
BRANCH  10  11
HETATM   11  C   UNL     1      41.963 -11.316   5.606  1.00  0.00     0.222 C 
HETATM   12  N   UNL     1      41.502 -12.342   6.393  1.00  0.00    -0.361 N 
HETATM   13  H   UNL     1      41.363 -12.199   7.390  1.00  0.00     0.162 HD
HETATM   14  O   UNL     1      42.167 -11.412   4.401  1.00  0.00    -0.273 OA
BRANCH  12  15
HETATM   15  C   UNL     1      41.183 -13.655   5.851  1.00  0.00     0.124 C 
BRANCH  15  16
HETATM   16  C   UNL     1      42.439 -14.519   5.704  1.00  0.00     0.053 C 
BRANCH  16  17
HETATM   17  C   UNL     1      42.112 -16.008   5.504  1.00  0.00     0.189 C 
HETATM   18  N   UNL     1      43.413 -16.816   5.625  1.00  0.00    -0.071 N 
HETATM   19  H   UNL     1      44.186 -16.181   5.864  1.00  0.00     0.279 HD
HETATM   20  C   UNL     1      43.376 -17.867   6.698  1.00  0.00     0.270 C 
HETATM   21  C   UNL     1      43.733 -17.397   4.255  1.00  0.00     0.235 C 
HETATM   22  C   UNL     1      42.865 -16.605   3.303  1.00  0.00     0.030 C 
HETATM   23  C   UNL     1      41.603 -16.365   4.110  1.00  0.00     0.035 C 
ENDBRANCH  16  17
ENDBRANCH  15  16
ENDBRANCH  12  15
ENDBRANCH  10  11
ENDBRANCH   5  10
BRANCH   6  24
HETATM   24  C   UNL     1      41.370  -7.804   8.706  1.00  0.00    -0.024 A 
HETATM   25  C   UNL     1      40.329  -7.452   7.814  1.00  0.00    -0.053 A 
HETATM   26  C   UNL     1      39.181  -8.355   7.435  1.00  0.00     0.049 C 
HETATM   27  C   UNL     1      40.268  -6.135   7.309  1.00  0.00     0.014 A 
HETATM   28  C   UNL     1      41.220  -5.170   7.646  1.00  0.00    -0.061 A 
HETATM   29  C   UNL     1      41.109  -3.765   7.126  1.00  0.00     0.048 C 
HETATM   30  C   UNL     1      42.225  -5.505   8.548  1.00  0.00     0.007 A 
HETATM   31  C   UNL     1      42.295  -6.796   9.074  1.00  0.00     0.011 A 
ENDBRANCH   6  24
BRANCH   9  32
HETATM   32  C   UNL     1      40.200  -9.303  11.369  1.00  0.00     0.293 C 
HETATM   33  O   UNL     1      39.595 -10.344  11.550  1.00  0.00    -0.259 OA
BRANCH  32  34
HETATM   34  O   UNL     1      39.856  -8.089  11.853  1.00  0.00    -0.323 OA
HETATM   35  C   UNL     1      38.724  -7.483  11.221  1.00  0.00     0.213 C 
ENDBRANCH  32  34
ENDBRANCH   9  32
BRANCH   1  36
HETATM   36  C   UNL     1      42.801  -9.151  13.017  1.00  0.00     0.056 C 
HETATM   37  C   UNL     1      43.096  -7.717  13.446  1.00  0.00     0.011 C 
ENDBRANCH   1  36
TORSDOF 9
ENDMDL
MODEL 7
REMARK VINA RESULT:      -6.0      2.725      5.070
REMARK  9 active torsions:
REMARK  status: ('A' for Active; 'I' for Inactive)
REMARK    1  A    between atoms: C_2  and  C_3 
REMARK    2  A    between atoms: C_7  and  C_8 
REMARK    3  A    between atoms: C_8  and  C_9 
REMARK       I    between atoms: C_9  and  N_10 
REMARK    4  A    between atoms: N_10  and  C_11 
REMARK    5  A    between atoms: C_11  and  C_12 
REMARK    6  A    between atoms: C_12  and  C_13 
REMARK    7  A    between atoms: C_21  and  C_22 
REMARK    8  A    between atoms: C_32  and  C_33 
REMARK    9  A    between atoms: C_33  and  O_34 
ROOT
HETATM    1  C   UNL     1      40.269 -12.465   3.921  1.00  0.00     0.051 C 
HETATM    2  N   UNL     1      40.733 -13.446   4.774  1.00  0.00    -0.228 NA
HETATM    3  C   UNL     1      41.731 -13.182   5.537  1.00  0.00     0.170 C 
HETATM    4  N   UNL     1      42.385 -11.790   5.707  1.00  0.00    -0.318 N 
HETATM    5  C   UNL     1      43.380 -11.834   6.533  1.00  0.00     0.011 C 
HETATM    6  C   UNL     1      41.635 -10.685   5.058  1.00  0.00     0.166 C 
HETATM    7  S   UNL     1      42.469 -14.379   6.549  1.00  0.00    -0.086 SA
HETATM    8  C   UNL     1      43.758 -13.208   7.044  1.00  0.00     0.135 C 
HETATM    9  C   UNL     1      40.731 -11.195   3.962  1.00  0.00     0.069 C 
ENDROOT
BRANCH   5  10
HETATM   10  C   UNL     1      44.043 -10.588   7.045  1.00  0.00     0.156 C 
BRANCH  10  11
HETATM   11  C   UNL     1      44.313 -10.633   8.530  1.00  0.00     0.222 C 
HETATM   12  N   UNL     1      43.218 -10.433   9.333  1.00  0.00    -0.361 N 
HETATM   13  H   UNL     1      42.306 -10.257   8.919  1.00  0.00     0.162 HD
HETATM   14  O   UNL     1      45.445 -10.839   8.952  1.00  0.00    -0.273 OA
BRANCH  12  15
HETATM   15  C   UNL     1      43.300 -10.475  10.787  1.00  0.00     0.124 C 
BRANCH  15  16
HETATM   16  C   UNL     1      43.108  -9.083  11.396  1.00  0.00     0.053 C 
BRANCH  16  17
HETATM   17  C   UNL     1      41.628  -8.680  11.493  1.00  0.00     0.189 C 
HETATM   18  N   UNL     1      41.455  -7.732  12.690  1.00  0.00    -0.071 N 
HETATM   19  H   UNL     1      42.375  -7.546  13.111  1.00  0.00     0.279 HD
HETATM   20  C   UNL     1      40.874  -6.395  12.324  1.00  0.00     0.270 C 
HETATM   21  C   UNL     1      40.629  -8.454  13.745  1.00  0.00     0.235 C 
HETATM   22  C   UNL     1      40.683  -9.907  13.328  1.00  0.00     0.030 C 
HETATM   23  C   UNL     1      40.676  -9.830  11.814  1.00  0.00     0.035 C 
ENDBRANCH  16  17
ENDBRANCH  15  16
ENDBRANCH  12  15
ENDBRANCH  10  11
ENDBRANCH   5  10
BRANCH   6  24
HETATM   24  C   UNL     1      40.887  -9.896   6.144  1.00  0.00    -0.024 A 
HETATM   25  C   UNL     1      41.016  -8.496   6.313  1.00  0.00    -0.053 A 
HETATM   26  C   UNL     1      41.759  -7.583   5.369  1.00  0.00     0.049 C 
HETATM   27  C   UNL     1      40.323  -7.862   7.367  1.00  0.00     0.014 A 
HETATM   28  C   UNL     1      39.529  -8.577   8.266  1.00  0.00    -0.061 A 
HETATM   29  C   UNL     1      38.771  -7.870   9.353  1.00  0.00     0.048 C 
HETATM   30  C   UNL     1      39.375  -9.947   8.082  1.00  0.00     0.007 A 
HETATM   31  C   UNL     1      40.035 -10.594   7.037  1.00  0.00     0.011 A 
ENDBRANCH   6  24
BRANCH   9  32
HETATM   32  C   UNL     1      40.474 -10.176   2.910  1.00  0.00     0.293 C 
HETATM   33  O   UNL     1      41.179 -10.060   1.924  1.00  0.00    -0.259 OA
BRANCH  32  34
HETATM   34  O   UNL     1      39.271  -9.591   3.101  1.00  0.00    -0.323 OA
HETATM   35  C   UNL     1      39.215  -8.199   2.768  1.00  0.00     0.213 C 
ENDBRANCH  32  34
ENDBRANCH   9  32
BRANCH   1  36
HETATM   36  C   UNL     1      39.190 -12.978   2.971  1.00  0.00     0.056 C 
HETATM   37  C   UNL     1      39.656 -14.133   2.089  1.00  0.00     0.011 C 
ENDBRANCH   1  36
TORSDOF 9
ENDMDL
MODEL 8
REMARK VINA RESULT:      -6.0     24.817     27.460
REMARK  9 active torsions:
REMARK  status: ('A' for Active; 'I' for Inactive)
REMARK    1  A    between atoms: C_2  and  C_3 
REMARK    2  A    between atoms: C_7  and  C_8 
REMARK    3  A    between atoms: C_8  and  C_9 
REMARK       I    between atoms: C_9  and  N_10 
REMARK    4  A    between atoms: N_10  and  C_11 
REMARK    5  A    between atoms: C_11  and  C_12 
REMARK    6  A    between atoms: C_12  and  C_13 
REMARK    7  A    between atoms: C_21  and  C_22 
REMARK    8  A    between atoms: C_32  and  C_33 
REMARK    9  A    between atoms: C_33  and  O_34 
ROOT
HETATM    1  C   UNL     1      61.178 -28.564  17.857  1.00  0.00     0.051 C 
HETATM    2  N   UNL     1      60.371 -29.256  16.976  1.00  0.00    -0.228 NA
HETATM    3  C   UNL     1      59.360 -29.899  17.437  1.00  0.00     0.170 C 
HETATM    4  N   UNL     1      58.858 -29.849  18.899  1.00  0.00    -0.318 N 
HETATM    5  C   UNL     1      57.827 -30.611  19.071  1.00  0.00     0.011 C 
HETATM    6  C   UNL     1      59.523 -28.815  19.733  1.00  0.00     0.166 C 
HETATM    7  S   UNL     1      58.362 -30.901  16.437  1.00  0.00    -0.086 SA
HETATM    8  C   UNL     1      57.420 -31.455  17.882  1.00  0.00     0.135 C 
HETATM    9  C   UNL     1      60.863 -28.417  19.162  1.00  0.00     0.069 C 
ENDROOT
BRANCH   5  10
HETATM   10  C   UNL     1      57.013 -30.575  20.332  1.00  0.00     0.156 C 
BRANCH  10  11
HETATM   11  C   UNL     1      55.529 -30.469  20.070  1.00  0.00     0.222 C 
HETATM   12  N   UNL     1      55.145 -29.417  19.278  1.00  0.00    -0.361 N 
HETATM   13  H   UNL     1      55.840 -28.766  18.920  1.00  0.00     0.162 HD
HETATM   14  O   UNL     1      54.752 -31.288  20.550  1.00  0.00    -0.273 OA
BRANCH  12  15
HETATM   15  C   UNL     1      53.755 -29.189  18.906  1.00  0.00     0.124 C 
BRANCH  15  16
HETATM   16  C   UNL     1      53.347 -30.058  17.713  1.00  0.00     0.053 C 
BRANCH  16  17
HETATM   17  C   UNL     1      52.282 -31.104  18.081  1.00  0.00     0.189 C 
HETATM   18  N   UNL     1      51.297 -31.234  16.909  1.00  0.00    -0.071 N 
HETATM   19  H   UNL     1      51.611 -30.635  16.134  1.00  0.00     0.279 HD
HETATM   20  C   UNL     1      51.195 -32.628  16.356  1.00  0.00     0.270 C 
HETATM   21  C   UNL     1      49.951 -30.691  17.364  1.00  0.00     0.235 C 
HETATM   22  C   UNL     1      50.272 -29.903  18.615  1.00  0.00     0.030 C 
HETATM   23  C   UNL     1      51.385 -30.711  19.253  1.00  0.00     0.035 C 
ENDBRANCH  16  17
ENDBRANCH  15  16
ENDBRANCH  12  15
ENDBRANCH  10  11
ENDBRANCH   5  10
BRANCH   6  24
HETATM   24  C   UNL     1      58.560 -27.630  19.904  1.00  0.00    -0.024 A 
HETATM   25  C   UNL     1      58.004 -27.257  21.152  1.00  0.00    -0.053 A 
HETATM   26  C   UNL     1      58.399 -27.853  22.480  1.00  0.00     0.049 C 
HETATM   27  C   UNL     1      57.093 -26.180  21.206  1.00  0.00     0.014 A 
HETATM   28  C   UNL     1      56.703 -25.481  20.062  1.00  0.00    -0.061 A 
HETATM   29  C   UNL     1      55.763 -24.313  20.155  1.00  0.00     0.048 C 
HETATM   30  C   UNL     1      57.273 -25.825  18.840  1.00  0.00     0.007 A 
HETATM   31  C   UNL     1      58.190 -26.875  18.763  1.00  0.00     0.011 A 
ENDBRANCH   6  24
BRANCH   9  32
HETATM   32  C   UNL     1      61.805 -27.925  20.202  1.00  0.00     0.293 C 
HETATM   33  O   UNL     1      62.080 -26.746  20.331  1.00  0.00    -0.259 OA
BRANCH  32  34
HETATM   34  O   UNL     1      62.107 -28.912  21.073  1.00  0.00    -0.323 OA
HETATM   35  C   UNL     1      62.184 -28.508  22.444  1.00  0.00     0.213 C 
ENDBRANCH  32  34
ENDBRANCH   9  32
BRANCH   1  36
HETATM   36  C   UNL     1      62.420 -27.988  17.182  1.00  0.00     0.056 C 
HETATM   37  C   UNL     1      62.139 -27.377  15.812  1.00  0.00     0.011 C 
ENDBRANCH   1  36
TORSDOF 9
ENDMDL
MODEL 9
REMARK VINA RESULT:      -6.0     18.388     21.430
REMARK  9 active torsions:
REMARK  status: ('A' for Active; 'I' for Inactive)
REMARK    1  A    between atoms: C_2  and  C_3 
REMARK    2  A    between atoms: C_7  and  C_8 
REMARK    3  A    between atoms: C_8  and  C_9 
REMARK       I    between atoms: C_9  and  N_10 
REMARK    4  A    between atoms: N_10  and  C_11 
REMARK    5  A    between atoms: C_11  and  C_12 
REMARK    6  A    between atoms: C_12  and  C_13 
REMARK    7  A    between atoms: C_21  and  C_22 
REMARK    8  A    between atoms: C_32  and  C_33 
REMARK    9  A    between atoms: C_33  and  O_34 
ROOT
HETATM    1  C   UNL     1      46.559 -30.391   3.605  1.00  0.00     0.051 C 
HETATM    2  N   UNL     1      45.324 -31.002   3.526  1.00  0.00    -0.228 NA
HETATM    3  C   UNL     1      44.527 -30.668   2.576  1.00  0.00     0.170 C 
HETATM    4  N   UNL     1      44.884 -29.735   1.395  1.00  0.00    -0.318 N 
HETATM    5  C   UNL     1      43.875 -29.572   0.601  1.00  0.00     0.011 C 
HETATM    6  C   UNL     1      46.325 -29.389   1.310  1.00  0.00     0.166 C 
HETATM    7  S   UNL     1      42.911 -31.279   2.461  1.00  0.00    -0.086 SA
HETATM    8  C   UNL     1      42.573 -30.203   1.045  1.00  0.00     0.135 C 
HETATM    9  C   UNL     1      47.018 -29.563   2.640  1.00  0.00     0.069 C 
ENDROOT
BRANCH   5  10
HETATM   10  C   UNL     1      44.016 -28.899  -0.734  1.00  0.00     0.156 C 
BRANCH  10  11
HETATM   11  C   UNL     1      44.061 -29.878  -1.884  1.00  0.00     0.222 C 
HETATM   12  N   UNL     1      44.024 -29.317  -3.136  1.00  0.00    -0.361 N 
HETATM   13  H   UNL     1      43.958 -28.308  -3.242  1.00  0.00     0.162 HD
HETATM   14  O   UNL     1      44.127 -31.084  -1.673  1.00  0.00    -0.273 OA
BRANCH  12  15
HETATM   15  C   UNL     1      44.088 -30.119  -4.350  1.00  0.00     0.124 C 
BRANCH  15  16
HETATM   16  C   UNL     1      45.537 -30.417  -4.746  1.00  0.00     0.053 C 
BRANCH  16  17
HETATM   17  C   UNL     1      45.636 -31.374  -5.946  1.00  0.00     0.189 C 
HETATM   18  N   UNL     1      44.215 -31.763  -6.381  1.00  0.00    -0.071 N 
HETATM   19  H   UNL     1      43.532 -31.252  -5.806  1.00  0.00     0.279 HD
HETATM   20  C   UNL     1      43.906 -31.425  -7.813  1.00  0.00     0.270 C 
HETATM   21  C   UNL     1      44.019 -33.242  -6.080  1.00  0.00     0.235 C 
HETATM   22  C   UNL     1      45.147 -33.579  -5.129  1.00  0.00     0.030 C 
HETATM   23  C   UNL     1      46.289 -32.718  -5.634  1.00  0.00     0.035 C 
ENDBRANCH  16  17
ENDBRANCH  15  16
ENDBRANCH  12  15
ENDBRANCH  10  11
ENDBRANCH   5  10
BRANCH   6  24
HETATM   24  C   UNL     1      46.963 -30.213   0.181  1.00  0.00    -0.024 A 
HETATM   25  C   UNL     1      47.515 -29.631  -0.987  1.00  0.00    -0.053 A 
HETATM   26  C   UNL     1      47.698 -28.149  -1.202  1.00  0.00     0.049 C 
HETATM   27  C   UNL     1      48.040 -30.470  -1.993  1.00  0.00     0.014 A 
HETATM   28  C   UNL     1      48.014 -31.862  -1.884  1.00  0.00    -0.061 A 
HETATM   29  C   UNL     1      48.617 -32.729  -2.952  1.00  0.00     0.048 C 
HETATM   30  C   UNL     1      47.501 -32.434  -0.723  1.00  0.00     0.007 A 
HETATM   31  C   UNL     1      46.992 -31.625   0.293  1.00  0.00     0.011 A 
ENDBRANCH   6  24
BRANCH   9  32
HETATM   32  C   UNL     1      48.202 -28.677   2.791  1.00  0.00     0.293 C 
HETATM   33  O   UNL     1      48.137 -27.468   2.651  1.00  0.00    -0.259 OA
BRANCH  32  34
HETATM   34  O   UNL     1      49.247 -29.363   3.304  1.00  0.00    -0.323 OA
HETATM   35  C   UNL     1      50.042 -30.063   2.342  1.00  0.00     0.213 C 
ENDBRANCH  32  34
ENDBRANCH   9  32
BRANCH   1  36
HETATM   36  C   UNL     1      47.320 -30.774   4.871  1.00  0.00     0.056 C 
HETATM   37  C   UNL     1      46.474 -31.546   5.879  1.00  0.00     0.011 C 
ENDBRANCH   1  36
TORSDOF 9
ENDMDL
MODEL 10
REMARK VINA RESULT:      -5.9      5.799      9.509
REMARK  9 active torsions:
REMARK  status: ('A' for Active; 'I' for Inactive)
REMARK    1  A    between atoms: C_2  and  C_3 
REMARK    2  A    between atoms: C_7  and  C_8 
REMARK    3  A    between atoms: C_8  and  C_9 
REMARK       I    between atoms: C_9  and  N_10 
REMARK    4  A    between atoms: N_10  and  C_11 
REMARK    5  A    between atoms: C_11  and  C_12 
REMARK    6  A    between atoms: C_12  and  C_13 
REMARK    7  A    between atoms: C_21  and  C_22 
REMARK    8  A    between atoms: C_32  and  C_33 
REMARK    9  A    between atoms: C_33  and  O_34 
ROOT
HETATM    1  C   UNL     1      40.535 -14.136   0.924  1.00  0.00     0.051 C 
HETATM    2  N   UNL     1      40.307 -14.595  -0.358  1.00  0.00    -0.228 NA
HETATM    3  C   UNL     1      39.442 -13.989  -1.088  1.00  0.00     0.170 C 
HETATM    4  N   UNL     1      38.722 -12.671  -0.717  1.00  0.00    -0.318 N 
HETATM    5  C   UNL     1      37.896 -12.308  -1.643  1.00  0.00     0.011 C 
HETATM    6  C   UNL     1      39.258 -12.011   0.500  1.00  0.00     0.166 C 
HETATM    7  S   UNL     1      38.990 -14.561  -2.659  1.00  0.00    -0.086 SA
HETATM    8  C   UNL     1      37.722 -13.275  -2.794  1.00  0.00     0.135 C 
HETATM    9  C   UNL     1      39.991 -12.989   1.387  1.00  0.00     0.069 C 
ENDROOT
BRANCH   5  10
HETATM   10  C   UNL     1      37.239 -10.957  -1.637  1.00  0.00     0.156 C 
BRANCH  10  11
HETATM   11  C   UNL     1      37.418 -10.211  -2.938  1.00  0.00     0.222 C 
HETATM   12  N   UNL     1      38.703  -9.816  -3.218  1.00  0.00    -0.361 N 
HETATM   13  H   UNL     1      39.454 -10.019  -2.563  1.00  0.00     0.162 HD
HETATM   14  O   UNL     1      36.458  -9.993  -3.669  1.00  0.00    -0.273 OA
BRANCH  12  15
HETATM   15  C   UNL     1      39.051  -9.112  -4.444  1.00  0.00     0.124 C 
BRANCH  15  16
HETATM   16  C   UNL     1      40.415  -8.427  -4.326  1.00  0.00     0.053 C 
BRANCH  16  17
HETATM   17  C   UNL     1      40.499  -7.132  -5.153  1.00  0.00     0.189 C 
HETATM   18  N   UNL     1      41.447  -7.369  -6.339  1.00  0.00    -0.071 N 
HETATM   19  H   UNL     1      41.759  -8.349  -6.334  1.00  0.00     0.279 HD
HETATM   20  C   UNL     1      40.810  -7.129  -7.679  1.00  0.00     0.270 C 
HETATM   21  C   UNL     1      42.688  -6.514  -6.126  1.00  0.00     0.235 C 
HETATM   22  C   UNL     1      42.623  -6.124  -4.665  1.00  0.00     0.030 C 
HETATM   23  C   UNL     1      41.136  -5.953  -4.422  1.00  0.00     0.035 C 
ENDBRANCH  16  17
ENDBRANCH  15  16
ENDBRANCH  12  15
ENDBRANCH  10  11
ENDBRANCH   5  10
BRANCH   6  24
HETATM   24  C   UNL     1      40.124 -10.816   0.070  1.00  0.00    -0.024 A 
HETATM   25  C   UNL     1      39.914  -9.498   0.542  1.00  0.00    -0.053 A 
HETATM   26  C   UNL     1      38.942  -9.121   1.633  1.00  0.00     0.049 C 
HETATM   27  C   UNL     1      40.731  -8.454   0.057  1.00  0.00     0.014 A 
HETATM   28  C   UNL     1      41.730  -8.676  -0.893  1.00  0.00    -0.061 A 
HETATM   29  C   UNL     1      42.611  -7.554  -1.361  1.00  0.00     0.048 C 
HETATM   30  C   UNL     1      41.958  -9.976  -1.334  1.00  0.00     0.007 A 
HETATM   31  C   UNL     1      41.176 -11.028  -0.856  1.00  0.00     0.011 A 
ENDBRANCH   6  24
BRANCH   9  32
HETATM   32  C   UNL     1      39.978 -12.586   2.818  1.00  0.00     0.293 C 
HETATM   33  O   UNL     1      39.152 -13.004   3.609  1.00  0.00    -0.259 OA
BRANCH  32  34
HETATM   34  O   UNL     1      41.102 -11.904   3.129  1.00  0.00    -0.323 OA
HETATM   35  C   UNL     1      41.809 -12.390   4.275  1.00  0.00     0.213 C 
ENDBRANCH  32  34
ENDBRANCH   9  32
BRANCH   1  36
HETATM   36  C   UNL     1      41.465 -15.051   1.716  1.00  0.00     0.056 C 
HETATM   37  C   UNL     1      40.736 -16.180   2.438  1.00  0.00     0.011 C 
ENDBRANCH   1  36
TORSDOF 9
ENDMDL
