MODEL 1
REMARK VINA RESULT:      -9.0      0.000      0.000
REMARK  4 active torsions:
REMARK  status: ('A' for Active; 'I' for Inactive)
REMARK    1  A    between atoms: C_8  and  C_9 
REMARK    2  A    between atoms: C_9  and  C_10 
REMARK       I    between atoms: C_10  and  N_11 
REMARK    3  A    between atoms: N_11  and  C_12 
REMARK    4  A    between atoms: C_14  and  C_15 
ROOT
HETATM    1  C   UNL     1      42.163 -15.802   1.890  1.00  0.00     0.226 C 
HETATM    2  N   UNL     1      42.172 -14.594   1.210  1.00  0.00    -0.327 N 
HETATM    3  O   UNL     1      41.169 -16.418   2.269  1.00  0.00    -0.273 OA
HETATM    4  H   UNL     1      43.080 -14.248   0.924  1.00  0.00     0.169 HD
ENDROOT
BRANCH   2   5
HETATM    5  C   UNL     1      41.059 -13.805   0.842  1.00  0.00     0.035 A 
HETATM    6  C   UNL     1      40.386 -14.152  -0.342  1.00  0.00     0.042 A 
HETATM    7  C   UNL     1      39.282 -13.412  -0.801  1.00  0.00    -0.021 A 
HETATM    8  C   UNL     1      38.850 -12.319  -0.042  1.00  0.00     0.012 A 
HETATM    9  C   UNL     1      39.509 -11.969   1.138  1.00  0.00     0.003 A 
HETATM   10  C   UNL     1      40.609 -12.708   1.574  1.00  0.00     0.029 A 
BRANCH   7  11
HETATM   11  C   UNL     1      38.600 -13.748  -2.045  1.00  0.00     0.010 A 
HETATM   12  C   UNL     1      38.881 -14.746  -3.012  1.00  0.00     0.152 A 
HETATM   13  N   UNL     1      38.019 -14.744  -4.031  1.00  0.00    -0.187 NA
HETATM   14  N   UNL     1      37.178 -13.744  -3.727  1.00  0.00    -0.289 N 
HETATM   15  H   UNL     1      36.419 -13.543  -4.369  1.00  0.00     0.188 HD
HETATM   16  C   UNL     1      37.482 -13.117  -2.552  1.00  0.00     0.123 A 
ENDBRANCH   7  11
ENDBRANCH   2   5
BRANCH   1  17
HETATM   17  C   UNL     1      43.561 -16.324   2.189  1.00  0.00     0.144 C 
BRANCH  17  18
HETATM   18  C   UNL     1      43.631 -17.041   3.499  1.00  0.00    -0.021 A 
HETATM   19  C   UNL     1      43.714 -18.457   3.709  1.00  0.00    -0.001 A 
HETATM   20  C   UNL     1      43.744 -19.579   2.856  1.00  0.00     0.014 A 
HETATM   21  C   UNL     1      43.791 -18.670   5.086  1.00  0.00     0.042 A 
HETATM   22  C   UNL     1      43.847 -20.863   3.405  1.00  0.00     0.001 A 
HETATM   23  C   UNL     1      43.922 -21.041   4.784  1.00  0.00     0.002 A 
HETATM   24  C   UNL     1      43.894 -19.946   5.652  1.00  0.00     0.030 A 
HETATM   25  N   UNL     1      43.755 -17.436   5.692  1.00  0.00    -0.365 N 
HETATM   26  H   UNL     1      43.801 -17.285   6.690  1.00  0.00     0.165 HD
HETATM   27  C   UNL     1      43.666 -16.451   4.748  1.00  0.00     0.097 A 
ENDBRANCH  17  18
ENDBRANCH   1  17
TORSDOF 4
ENDMDL
MODEL 2
REMARK VINA RESULT:      -8.8      4.855      8.539
REMARK  4 active torsions:
REMARK  status: ('A' for Active; 'I' for Inactive)
REMARK    1  A    between atoms: C_8  and  C_9 
REMARK    2  A    between atoms: C_9  and  C_10 
REMARK       I    between atoms: C_10  and  N_11 
REMARK    3  A    between atoms: N_11  and  C_12 
REMARK    4  A    between atoms: C_14  and  C_15 
ROOT
HETATM    1  C   UNL     1      43.728 -14.446   6.149  1.00  0.00     0.226 C 
HETATM    2  N   UNL     1      43.076 -14.375   4.926  1.00  0.00    -0.327 N 
HETATM    3  O   UNL     1      44.499 -15.331   6.513  1.00  0.00    -0.273 OA
HETATM    4  H   UNL     1      42.515 -13.546   4.767  1.00  0.00     0.169 HD
ENDROOT
BRANCH   2   5
HETATM    5  C   UNL     1      43.129 -15.308   3.867  1.00  0.00     0.035 A 
HETATM    6  C   UNL     1      43.363 -16.652   4.204  1.00  0.00     0.042 A 
HETATM    7  C   UNL     1      43.455 -17.650   3.217  1.00  0.00    -0.021 A 
HETATM    8  C   UNL     1      43.294 -17.278   1.877  1.00  0.00     0.012 A 
HETATM    9  C   UNL     1      43.057 -15.946   1.533  1.00  0.00     0.003 A 
HETATM   10  C   UNL     1      42.978 -14.967   2.524  1.00  0.00     0.029 A 
BRANCH   7  11
HETATM   11  C   UNL     1      43.729 -19.040   3.558  1.00  0.00     0.010 A 
HETATM   12  C   UNL     1      43.654 -20.216   2.770  1.00  0.00     0.152 A 
HETATM   13  N   UNL     1      43.985 -21.320   3.444  1.00  0.00    -0.187 NA
HETATM   14  N   UNL     1      44.274 -20.860   4.671  1.00  0.00    -0.289 N 
HETATM   15  H   UNL     1      44.557 -21.529   5.380  1.00  0.00     0.188 HD
HETATM   16  C   UNL     1      44.136 -19.507   4.791  1.00  0.00     0.123 A 
ENDBRANCH   7  11
ENDBRANCH   2   5
BRANCH   1  17
HETATM   17  C   UNL     1      43.366 -13.298   7.080  1.00  0.00     0.144 C 
BRANCH  17  18
HETATM   18  C   UNL     1      44.366 -12.188   7.029  1.00  0.00    -0.021 A 
HETATM   19  C   UNL     1      44.572 -11.161   8.007  1.00  0.00    -0.001 A 
HETATM   20  C   UNL     1      43.969 -10.839   9.241  1.00  0.00     0.014 A 
HETATM   21  C   UNL     1      45.627 -10.365   7.559  1.00  0.00     0.042 A 
HETATM   22  C   UNL     1      44.437  -9.742   9.974  1.00  0.00     0.001 A 
HETATM   23  C   UNL     1      45.492  -8.968   9.498  1.00  0.00     0.002 A 
HETATM   24  C   UNL     1      46.107  -9.264   8.279  1.00  0.00     0.030 A 
HETATM   25  N   UNL     1      46.046 -10.882   6.357  1.00  0.00    -0.365 N 
HETATM   26  H   UNL     1      46.805 -10.509   5.803  1.00  0.00     0.165 HD
HETATM   27  C   UNL     1      45.301 -11.981   6.032  1.00  0.00     0.097 A 
ENDBRANCH  17  18
ENDBRANCH   1  17
TORSDOF 4
ENDMDL
MODEL 3
REMARK VINA RESULT:      -8.5      2.137      8.451
REMARK  4 active torsions:
REMARK  status: ('A' for Active; 'I' for Inactive)
REMARK    1  A    between atoms: C_8  and  C_9 
REMARK    2  A    between atoms: C_9  and  C_10 
REMARK       I    between atoms: C_10  and  N_11 
REMARK    3  A    between atoms: N_11  and  C_12 
REMARK    4  A    between atoms: C_14  and  C_15 
ROOT
HETATM    1  C   UNL     1      42.483 -13.946   2.549  1.00  0.00     0.226 C 
HETATM    2  N   UNL     1      42.074 -14.643   3.676  1.00  0.00    -0.327 N 
HETATM    3  O   UNL     1      43.583 -14.018   2.007  1.00  0.00    -0.273 OA
HETATM    4  H   UNL     1      41.111 -14.505   3.962  1.00  0.00     0.169 HD
ENDROOT
BRANCH   2   5
HETATM    5  C   UNL     1      42.833 -15.546   4.453  1.00  0.00     0.035 A 
HETATM    6  C   UNL     1      42.990 -16.851   3.954  1.00  0.00     0.042 A 
HETATM    7  C   UNL     1      43.711 -17.825   4.667  1.00  0.00    -0.021 A 
HETATM    8  C   UNL     1      44.287 -17.466   5.891  1.00  0.00     0.012 A 
HETATM    9  C   UNL     1      44.141 -16.171   6.392  1.00  0.00     0.003 A 
HETATM   10  C   UNL     1      43.415 -15.218   5.676  1.00  0.00     0.029 A 
BRANCH   7  11
HETATM   11  C   UNL     1      43.850 -19.189   4.171  1.00  0.00     0.010 A 
HETATM   12  C   UNL     1      43.661 -19.722   2.870  1.00  0.00     0.152 A 
HETATM   13  N   UNL     1      43.885 -21.036   2.807  1.00  0.00    -0.187 NA
HETATM   14  N   UNL     1      44.218 -21.357   4.066  1.00  0.00    -0.289 N 
HETATM   15  H   UNL     1      44.437 -22.326   4.273  1.00  0.00     0.188 HD
HETATM   16  C   UNL     1      44.211 -20.291   4.919  1.00  0.00     0.123 A 
ENDBRANCH   7  11
ENDBRANCH   2   5
BRANCH   1  17
HETATM   17  C   UNL     1      41.418 -12.994   2.022  1.00  0.00     0.144 C 
BRANCH  17  18
HETATM   18  C   UNL     1      40.686 -13.556   0.847  1.00  0.00    -0.021 A 
HETATM   19  C   UNL     1      40.601 -12.996  -0.471  1.00  0.00    -0.001 A 
HETATM   20  C   UNL     1      41.109 -11.830  -1.080  1.00  0.00     0.014 A 
HETATM   21  C   UNL     1      39.844 -13.874  -1.248  1.00  0.00     0.042 A 
HETATM   22  C   UNL     1      40.842 -11.585  -2.433  1.00  0.00     0.001 A 
HETATM   23  C   UNL     1      40.082 -12.482  -3.180  1.00  0.00     0.002 A 
HETATM   24  C   UNL     1      39.567 -13.644  -2.602  1.00  0.00     0.030 A 
HETATM   25  N   UNL     1      39.480 -14.924  -0.440  1.00  0.00    -0.365 N 
HETATM   26  H   UNL     1      38.929 -15.716  -0.740  1.00  0.00     0.165 HD
HETATM   27  C   UNL     1      39.985 -14.747   0.818  1.00  0.00     0.097 A 
ENDBRANCH  17  18
ENDBRANCH   1  17
TORSDOF 4
ENDMDL
MODEL 4
REMARK VINA RESULT:      -8.4      1.393      1.695
REMARK  4 active torsions:
REMARK  status: ('A' for Active; 'I' for Inactive)
REMARK    1  A    between atoms: C_8  and  C_9 
REMARK    2  A    between atoms: C_9  and  C_10 
REMARK       I    between atoms: C_10  and  N_11 
REMARK    3  A    between atoms: N_11  and  C_12 
REMARK    4  A    between atoms: C_14  and  C_15 
ROOT
HETATM    1  C   UNL     1      42.636 -15.029   1.779  1.00  0.00     0.226 C 
HETATM    2  N   UNL     1      41.264 -15.086   1.582  1.00  0.00    -0.327 N 
HETATM    3  O   UNL     1      43.303 -14.016   1.978  1.00  0.00    -0.273 OA
HETATM    4  H   UNL     1      40.865 -16.012   1.485  1.00  0.00     0.169 HD
ENDROOT
BRANCH   2   5
HETATM    5  C   UNL     1      40.357 -14.005   1.533  1.00  0.00     0.035 A 
HETATM    6  C   UNL     1      39.979 -13.538   0.263  1.00  0.00     0.042 A 
HETATM    7  C   UNL     1      39.098 -12.452   0.113  1.00  0.00    -0.021 A 
HETATM    8  C   UNL     1      38.587 -11.846   1.266  1.00  0.00     0.012 A 
HETATM    9  C   UNL     1      38.952 -12.305   2.532  1.00  0.00     0.003 A 
HETATM   10  C   UNL     1      39.835 -13.378   2.663  1.00  0.00     0.029 A 
BRANCH   7  11
HETATM   11  C   UNL     1      38.727 -11.943  -1.201  1.00  0.00     0.010 A 
HETATM   12  C   UNL     1      39.155 -10.784  -1.897  1.00  0.00     0.152 A 
HETATM   13  N   UNL     1      38.582 -10.653  -3.096  1.00  0.00    -0.187 NA
HETATM   14  N   UNL     1      37.781 -11.726  -3.178  1.00  0.00    -0.289 N 
HETATM   15  H   UNL     1      37.225 -11.848  -4.018  1.00  0.00     0.188 HD
HETATM   16  C   UNL     1      37.830 -12.527  -2.073  1.00  0.00     0.123 A 
ENDBRANCH   7  11
ENDBRANCH   2   5
BRANCH   1  17
HETATM   17  C   UNL     1      43.305 -16.393   1.685  1.00  0.00     0.144 C 
BRANCH  17  18
HETATM   18  C   UNL     1      43.487 -17.029   3.026  1.00  0.00    -0.021 A 
HETATM   19  C   UNL     1      43.629 -18.428   3.310  1.00  0.00    -0.001 A 
HETATM   20  C   UNL     1      43.635 -19.598   2.523  1.00  0.00     0.014 A 
HETATM   21  C   UNL     1      43.806 -18.556   4.688  1.00  0.00     0.042 A 
HETATM   22  C   UNL     1      43.815 -20.843   3.136  1.00  0.00     0.001 A 
HETATM   23  C   UNL     1      43.990 -20.937   4.515  1.00  0.00     0.002 A 
HETATM   24  C   UNL     1      43.988 -19.794   5.318  1.00  0.00     0.030 A 
HETATM   25  N   UNL     1      43.773 -17.291   5.224  1.00  0.00    -0.365 N 
HETATM   26  H   UNL     1      43.883 -17.079   6.206  1.00  0.00     0.165 HD
HETATM   27  C   UNL     1      43.589 -16.366   4.234  1.00  0.00     0.097 A 
ENDBRANCH  17  18
ENDBRANCH   1  17
TORSDOF 4
ENDMDL
MODEL 5
REMARK VINA RESULT:      -8.3      1.937      2.444
REMARK  4 active torsions:
REMARK  status: ('A' for Active; 'I' for Inactive)
REMARK    1  A    between atoms: C_8  and  C_9 
REMARK    2  A    between atoms: C_9  and  C_10 
REMARK       I    between atoms: C_10  and  N_11 
REMARK    3  A    between atoms: N_11  and  C_12 
REMARK    4  A    between atoms: C_14  and  C_15 
ROOT
HETATM    1  C   UNL     1      42.571 -14.419   3.905  1.00  0.00     0.226 C 
HETATM    2  N   UNL     1      41.287 -14.638   3.428  1.00  0.00    -0.327 N 
HETATM    3  O   UNL     1      43.268 -13.429   3.694  1.00  0.00    -0.273 OA
HETATM    4  H   UNL     1      40.833 -15.488   3.742  1.00  0.00     0.169 HD
ENDROOT
BRANCH   2   5
HETATM    5  C   UNL     1      40.528 -13.799   2.582  1.00  0.00     0.035 A 
HETATM    6  C   UNL     1      40.835 -13.820   1.211  1.00  0.00     0.042 A 
HETATM    7  C   UNL     1      40.150 -13.003   0.294  1.00  0.00    -0.021 A 
HETATM    8  C   UNL     1      39.135 -12.169   0.775  1.00  0.00     0.012 A 
HETATM    9  C   UNL     1      38.819 -12.144   2.134  1.00  0.00     0.003 A 
HETATM   10  C   UNL     1      39.515 -12.954   3.032  1.00  0.00     0.029 A 
BRANCH   7  11
HETATM   11  C   UNL     1      40.485 -12.997  -1.124  1.00  0.00     0.010 A 
HETATM   12  C   UNL     1      40.125 -13.893  -2.163  1.00  0.00     0.152 A 
HETATM   13  N   UNL     1      40.634 -13.551  -3.348  1.00  0.00    -0.187 NA
HETATM   14  N   UNL     1      41.326 -12.434  -3.080  1.00  0.00    -0.289 N 
HETATM   15  H   UNL     1      41.816 -11.978  -3.843  1.00  0.00     0.188 HD
HETATM   16  C   UNL     1      41.270 -12.062  -1.767  1.00  0.00     0.123 A 
ENDBRANCH   7  11
ENDBRANCH   2   5
BRANCH   1  17
HETATM   17  C   UNL     1      43.105 -15.584   4.726  1.00  0.00     0.144 C 
BRANCH  17  18
HETATM   18  C   UNL     1      43.320 -16.810   3.898  1.00  0.00    -0.021 A 
HETATM   19  C   UNL     1      43.556 -18.143   4.369  1.00  0.00    -0.001 A 
HETATM   20  C   UNL     1      43.673 -18.732   5.646  1.00  0.00     0.014 A 
HETATM   21  C   UNL     1      43.666 -18.967   3.248  1.00  0.00     0.042 A 
HETATM   22  C   UNL     1      43.896 -20.110   5.754  1.00  0.00     0.001 A 
HETATM   23  C   UNL     1      44.001 -20.904   4.615  1.00  0.00     0.002 A 
HETATM   24  C   UNL     1      43.890 -20.347   3.338  1.00  0.00     0.030 A 
HETATM   25  N   UNL     1      43.507 -18.171   2.139  1.00  0.00    -0.365 N 
HETATM   26  H   UNL     1      43.534 -18.502   1.185  1.00  0.00     0.165 HD
HETATM   27  C   UNL     1      43.293 -16.875   2.518  1.00  0.00     0.097 A 
ENDBRANCH  17  18
ENDBRANCH   1  17
TORSDOF 4
ENDMDL
MODEL 6
REMARK VINA RESULT:      -8.3      6.388      9.401
REMARK  4 active torsions:
REMARK  status: ('A' for Active; 'I' for Inactive)
REMARK    1  A    between atoms: C_8  and  C_9 
REMARK    2  A    between atoms: C_9  and  C_10 
REMARK       I    between atoms: C_10  and  N_11 
REMARK    3  A    between atoms: N_11  and  C_12 
REMARK    4  A    between atoms: C_14  and  C_15 
ROOT
HETATM    1  C   UNL     1      43.244 -13.099   6.115  1.00  0.00     0.226 C 
HETATM    2  N   UNL     1      43.575 -12.707   7.405  1.00  0.00    -0.327 N 
HETATM    3  O   UNL     1      43.565 -12.529   5.075  1.00  0.00    -0.273 OA
HETATM    4  H   UNL     1      43.273 -13.323   8.150  1.00  0.00     0.169 HD
ENDROOT
BRANCH   2   5
HETATM    5  C   UNL     1      44.310 -11.566   7.795  1.00  0.00     0.035 A 
HETATM    6  C   UNL     1      43.750 -10.749   8.793  1.00  0.00     0.042 A 
HETATM    7  C   UNL     1      44.397  -9.580   9.231  1.00  0.00    -0.021 A 
HETATM    8  C   UNL     1      45.630  -9.247   8.658  1.00  0.00     0.012 A 
HETATM    9  C   UNL     1      46.196 -10.053   7.671  1.00  0.00     0.003 A 
HETATM   10  C   UNL     1      45.536 -11.205   7.240  1.00  0.00     0.029 A 
BRANCH   7  11
HETATM   11  C   UNL     1      43.806  -8.713  10.243  1.00  0.00     0.010 A 
HETATM   12  C   UNL     1      43.696  -8.874  11.647  1.00  0.00     0.152 A 
HETATM   13  N   UNL     1      43.080  -7.851  12.244  1.00  0.00    -0.187 NA
HETATM   14  N   UNL     1      42.788  -7.026  11.227  1.00  0.00    -0.289 N 
HETATM   15  H   UNL     1      42.305  -6.159  11.435  1.00  0.00     0.188 HD
HETATM   16  C   UNL     1      43.200  -7.495  10.012  1.00  0.00     0.123 A 
ENDBRANCH   7  11
ENDBRANCH   2   5
BRANCH   1  17
HETATM   17  C   UNL     1      42.367 -14.342   6.081  1.00  0.00     0.144 C 
BRANCH  17  18
HETATM   18  C   UNL     1      43.121 -15.558   5.650  1.00  0.00    -0.021 A 
HETATM   19  C   UNL     1      42.907 -16.336   4.465  1.00  0.00    -0.001 A 
HETATM   20  C   UNL     1      41.999 -16.264   3.389  1.00  0.00     0.014 A 
HETATM   21  C   UNL     1      43.862 -17.355   4.458  1.00  0.00     0.042 A 
HETATM   22  C   UNL     1      42.075 -17.204   2.354  1.00  0.00     0.001 A 
HETATM   23  C   UNL     1      43.040 -18.208   2.378  1.00  0.00     0.002 A 
HETATM   24  C   UNL     1      43.952 -18.304   3.432  1.00  0.00     0.030 A 
HETATM   25  N   UNL     1      44.625 -17.206   5.591  1.00  0.00    -0.365 N 
HETATM   26  H   UNL     1      45.400 -17.804   5.844  1.00  0.00     0.165 HD
HETATM   27  C   UNL     1      44.193 -16.127   6.311  1.00  0.00     0.097 A 
ENDBRANCH  17  18
ENDBRANCH   1  17
TORSDOF 4
ENDMDL
MODEL 7
REMARK VINA RESULT:      -8.2      4.457      7.117
REMARK  4 active torsions:
REMARK  status: ('A' for Active; 'I' for Inactive)
REMARK    1  A    between atoms: C_8  and  C_9 
REMARK    2  A    between atoms: C_9  and  C_10 
REMARK       I    between atoms: C_10  and  N_11 
REMARK    3  A    between atoms: N_11  and  C_12 
REMARK    4  A    between atoms: C_14  and  C_15 
ROOT
HETATM    1  C   UNL     1      42.915 -14.329   3.154  1.00  0.00     0.226 C 
HETATM    2  N   UNL     1      42.231 -14.103   4.339  1.00  0.00    -0.327 N 
HETATM    3  O   UNL     1      43.598 -13.513   2.540  1.00  0.00    -0.273 OA
HETATM    4  H   UNL     1      41.757 -14.903   4.742  1.00  0.00     0.169 HD
ENDROOT
BRANCH   2   5
HETATM    5  C   UNL     1      42.144 -12.895   5.066  1.00  0.00     0.035 A 
HETATM    6  C   UNL     1      43.330 -12.394   5.630  1.00  0.00     0.042 A 
HETATM    7  C   UNL     1      43.338 -11.211   6.389  1.00  0.00    -0.021 A 
HETATM    8  C   UNL     1      42.132 -10.523   6.564  1.00  0.00     0.012 A 
HETATM    9  C   UNL     1      40.950 -11.009   6.004  1.00  0.00     0.003 A 
HETATM   10  C   UNL     1      40.956 -12.191   5.262  1.00  0.00     0.029 A 
BRANCH   7  11
HETATM   11  C   UNL     1      44.560 -10.704   7.002  1.00  0.00     0.010 A 
HETATM   12  C   UNL     1      44.749  -9.741   8.025  1.00  0.00     0.152 A 
HETATM   13  N   UNL     1      46.035  -9.539   8.322  1.00  0.00    -0.187 NA
HETATM   14  N   UNL     1      46.681 -10.369   7.490  1.00  0.00    -0.289 N 
HETATM   15  H   UNL     1      47.694 -10.393   7.527  1.00  0.00     0.188 HD
HETATM   16  C   UNL     1      45.846 -11.087   6.681  1.00  0.00     0.123 A 
ENDBRANCH   7  11
ENDBRANCH   2   5
BRANCH   1  17
HETATM   17  C   UNL     1      42.714 -15.737   2.613  1.00  0.00     0.144 C 
BRANCH  17  18
HETATM   18  C   UNL     1      43.275 -16.781   3.525  1.00  0.00    -0.021 A 
HETATM   19  C   UNL     1      43.390 -18.186   3.267  1.00  0.00    -0.001 A 
HETATM   20  C   UNL     1      43.044 -19.021   2.184  1.00  0.00     0.014 A 
HETATM   21  C   UNL     1      44.000 -18.765   4.381  1.00  0.00     0.042 A 
HETATM   22  C   UNL     1      43.316 -20.393   2.254  1.00  0.00     0.001 A 
HETATM   23  C   UNL     1      43.926 -20.939   3.381  1.00  0.00     0.002 A 
HETATM   24  C   UNL     1      44.279 -20.135   4.468  1.00  0.00     0.030 A 
HETATM   25  N   UNL     1      44.246 -17.757   5.282  1.00  0.00    -0.365 N 
HETATM   26  H   UNL     1      44.688 -17.885   6.181  1.00  0.00     0.165 HD
HETATM   27  C   UNL     1      43.820 -16.560   4.776  1.00  0.00     0.097 A 
ENDBRANCH  17  18
ENDBRANCH   1  17
TORSDOF 4
ENDMDL
MODEL 8
REMARK VINA RESULT:      -8.0      2.145      8.918
REMARK  4 active torsions:
REMARK  status: ('A' for Active; 'I' for Inactive)
REMARK    1  A    between atoms: C_8  and  C_9 
REMARK    2  A    between atoms: C_9  and  C_10 
REMARK       I    between atoms: C_10  and  N_11 
REMARK    3  A    between atoms: N_11  and  C_12 
REMARK    4  A    between atoms: C_14  and  C_15 
ROOT
HETATM    1  C   UNL     1      40.743 -14.648   0.763  1.00  0.00     0.226 C 
HETATM    2  N   UNL     1      41.994 -15.214   0.958  1.00  0.00    -0.327 N 
HETATM    3  O   UNL     1      39.884 -14.463   1.623  1.00  0.00    -0.273 OA
HETATM    4  H   UNL     1      42.602 -15.244   0.148  1.00  0.00     0.169 HD
ENDROOT
BRANCH   2   5
HETATM    5  C   UNL     1      42.529 -15.724   2.161  1.00  0.00     0.035 A 
HETATM    6  C   UNL     1      42.842 -17.094   2.198  1.00  0.00     0.042 A 
HETATM    7  C   UNL     1      43.358 -17.697   3.359  1.00  0.00    -0.021 A 
HETATM    8  C   UNL     1      43.570 -16.897   4.487  1.00  0.00     0.012 A 
HETATM    9  C   UNL     1      43.267 -15.536   4.459  1.00  0.00     0.003 A 
HETATM   10  C   UNL     1      42.746 -14.954   3.303  1.00  0.00     0.029 A 
BRANCH   7  11
HETATM   11  C   UNL     1      43.655 -19.123   3.412  1.00  0.00     0.010 A 
HETATM   12  C   UNL     1      43.560 -20.125   2.412  1.00  0.00     0.152 A 
HETATM   13  N   UNL     1      43.924 -21.333   2.847  1.00  0.00    -0.187 NA
HETATM   14  N   UNL     1      44.252 -21.118   4.130  1.00  0.00    -0.289 N 
HETATM   15  H   UNL     1      44.566 -21.908   4.684  1.00  0.00     0.188 HD
HETATM   16  C   UNL     1      44.109 -19.816   4.516  1.00  0.00     0.123 A 
ENDBRANCH   7  11
ENDBRANCH   2   5
BRANCH   1  17
HETATM   17  C   UNL     1      40.476 -14.286  -0.691  1.00  0.00     0.144 C 
BRANCH  17  18
HETATM   18  C   UNL     1      40.073 -12.856  -0.856  1.00  0.00    -0.021 A 
HETATM   19  C   UNL     1      38.897 -12.357  -1.507  1.00  0.00    -0.001 A 
HETATM   20  C   UNL     1      37.809 -12.957  -2.173  1.00  0.00     0.014 A 
HETATM   21  C   UNL     1      38.918 -10.966  -1.393  1.00  0.00     0.042 A 
HETATM   22  C   UNL     1      36.789 -12.153  -2.697  1.00  0.00     0.001 A 
HETATM   23  C   UNL     1      36.841 -10.768  -2.566  1.00  0.00     0.002 A 
HETATM   24  C   UNL     1      37.907 -10.146  -1.912  1.00  0.00     0.030 A 
HETATM   25  N   UNL     1      40.058 -10.630  -0.704  1.00  0.00    -0.365 N 
HETATM   26  H   UNL     1      40.331  -9.686  -0.468  1.00  0.00     0.165 HD
HETATM   27  C   UNL     1      40.756 -11.757  -0.371  1.00  0.00     0.097 A 
ENDBRANCH  17  18
ENDBRANCH   1  17
TORSDOF 4
ENDMDL
MODEL 9
REMARK VINA RESULT:      -8.0      4.586      8.390
REMARK  4 active torsions:
REMARK  status: ('A' for Active; 'I' for Inactive)
REMARK    1  A    between atoms: C_8  and  C_9 
REMARK    2  A    between atoms: C_9  and  C_10 
REMARK       I    between atoms: C_10  and  N_11 
REMARK    3  A    between atoms: N_11  and  C_12 
REMARK    4  A    between atoms: C_14  and  C_15 
ROOT
HETATM    1  C   UNL     1      42.179 -12.395   4.456  1.00  0.00     0.226 C 
HETATM    2  N   UNL     1      43.108 -12.960   3.595  1.00  0.00    -0.327 N 
HETATM    3  O   UNL     1      41.232 -12.971   4.987  1.00  0.00    -0.273 OA
HETATM    4  H   UNL     1      43.860 -12.354   3.288  1.00  0.00     0.169 HD
ENDROOT
BRANCH   2   5
HETATM    5  C   UNL     1      43.145 -14.291   3.122  1.00  0.00     0.035 A 
HETATM    6  C   UNL     1      43.250 -15.313   4.081  1.00  0.00     0.042 A 
HETATM    7  C   UNL     1      43.317 -16.667   3.705  1.00  0.00    -0.021 A 
HETATM    8  C   UNL     1      43.262 -16.983   2.343  1.00  0.00     0.012 A 
HETATM    9  C   UNL     1      43.153 -15.976   1.384  1.00  0.00     0.003 A 
HETATM   10  C   UNL     1      43.098 -14.637   1.773  1.00  0.00     0.029 A 
BRANCH   7  11
HETATM   11  C   UNL     1      43.457 -17.729   4.694  1.00  0.00     0.010 A 
HETATM   12  C   UNL     1      43.104 -17.766   6.067  1.00  0.00     0.152 A 
HETATM   13  N   UNL     1      43.394 -18.931   6.650  1.00  0.00    -0.187 NA
HETATM   14  N   UNL     1      43.938 -19.650   5.656  1.00  0.00    -0.289 N 
HETATM   15  H   UNL     1      44.248 -20.594   5.861  1.00  0.00     0.188 HD
HETATM   16  C   UNL     1      43.999 -18.978   4.469  1.00  0.00     0.123 A 
ENDBRANCH   7  11
ENDBRANCH   2   5
BRANCH   1  17
HETATM   17  C   UNL     1      42.407 -10.907   4.678  1.00  0.00     0.144 C 
BRANCH  17  18
HETATM   18  C   UNL     1      42.500 -10.557   6.129  1.00  0.00    -0.021 A 
HETATM   19  C   UNL     1      43.674 -10.581   6.952  1.00  0.00    -0.001 A 
HETATM   20  C   UNL     1      45.025 -10.918   6.733  1.00  0.00     0.014 A 
HETATM   21  C   UNL     1      43.297 -10.149   8.225  1.00  0.00     0.042 A 
HETATM   22  C   UNL     1      45.944 -10.814   7.784  1.00  0.00     0.001 A 
HETATM   23  C   UNL     1      45.536 -10.379   9.043  1.00  0.00     0.002 A 
HETATM   24  C   UNL     1      44.203 -10.039   9.288  1.00  0.00     0.030 A 
HETATM   25  N   UNL     1      41.951  -9.874   8.181  1.00  0.00    -0.365 N 
HETATM   26  H   UNL     1      41.408  -9.535   8.963  1.00  0.00     0.165 HD
HETATM   27  C   UNL     1      41.464 -10.109   6.926  1.00  0.00     0.097 A 
ENDBRANCH  17  18
ENDBRANCH   1  17
TORSDOF 4
ENDMDL
MODEL 10
REMARK VINA RESULT:      -8.0      2.745      3.538
REMARK  4 active torsions:
REMARK  status: ('A' for Active; 'I' for Inactive)
REMARK    1  A    between atoms: C_8  and  C_9 
REMARK    2  A    between atoms: C_9  and  C_10 
REMARK       I    between atoms: C_10  and  N_11 
REMARK    3  A    between atoms: N_11  and  C_12 
REMARK    4  A    between atoms: C_14  and  C_15 
ROOT
HETATM    1  C   UNL     1      40.748 -14.802   1.623  1.00  0.00     0.226 C 
HETATM    2  N   UNL     1      39.694 -14.532   0.762  1.00  0.00    -0.327 N 
HETATM    3  O   UNL     1      41.936 -14.569   1.416  1.00  0.00    -0.273 OA
HETATM    4  H   UNL     1      38.766 -14.740   1.113  1.00  0.00     0.169 HD
ENDROOT
BRANCH   2   5
HETATM    5  C   UNL     1      39.763 -13.973  -0.533  1.00  0.00     0.035 A 
HETATM    6  C   UNL     1      40.322 -12.689  -0.652  1.00  0.00     0.042 A 
HETATM    7  C   UNL     1      40.412 -12.042  -1.897  1.00  0.00    -0.021 A 
HETATM    8  C   UNL     1      39.942 -12.712  -3.032  1.00  0.00     0.012 A 
HETATM    9  C   UNL     1      39.389 -13.989  -2.925  1.00  0.00     0.003 A 
HETATM   10  C   UNL     1      39.298 -14.614  -1.680  1.00  0.00     0.029 A 
BRANCH   7  11
HETATM   11  C   UNL     1      40.962 -10.698  -2.022  1.00  0.00     0.010 A 
HETATM   12  C   UNL     1      41.717  -9.920  -1.108  1.00  0.00     0.152 A 
HETATM   13  N   UNL     1      42.044  -8.719  -1.590  1.00  0.00    -0.187 NA
HETATM   14  N   UNL     1      41.499  -8.715  -2.816  1.00  0.00    -0.289 N 
HETATM   15  H   UNL     1      41.614  -7.886  -3.389  1.00  0.00     0.188 HD
HETATM   16  C   UNL     1      40.842  -9.873  -3.122  1.00  0.00     0.123 A 
ENDBRANCH   7  11
ENDBRANCH   2   5
BRANCH   1  17
HETATM   17  C   UNL     1      40.303 -15.487   2.907  1.00  0.00     0.144 C 
BRANCH  17  18
HETATM   18  C   UNL     1      41.458 -15.889   3.766  1.00  0.00    -0.021 A 
HETATM   19  C   UNL     1      42.371 -16.971   3.540  1.00  0.00    -0.001 A 
HETATM   20  C   UNL     1      42.500 -17.960   2.543  1.00  0.00     0.014 A 
HETATM   21  C   UNL     1      43.304 -16.952   4.578  1.00  0.00     0.042 A 
HETATM   22  C   UNL     1      43.548 -18.886   2.619  1.00  0.00     0.001 A 
HETATM   23  C   UNL     1      44.462 -18.839   3.668  1.00  0.00     0.002 A 
HETATM   24  C   UNL     1      44.357 -17.870   4.670  1.00  0.00     0.030 A 
HETATM   25  N   UNL     1      42.974 -15.904   5.404  1.00  0.00    -0.365 N 
HETATM   26  H   UNL     1      43.484 -15.646   6.238  1.00  0.00     0.165 HD
HETATM   27  C   UNL     1      41.871 -15.255   4.923  1.00  0.00     0.097 A 
ENDBRANCH  17  18
ENDBRANCH   1  17
TORSDOF 4
ENDMDL
