MODEL 1
REMARK VINA RESULT:      -7.7      0.000      0.000
REMARK  5 active torsions:
REMARK  status: ('A' for Active; 'I' for Inactive)
REMARK    1  A    between atoms: C_6  and  N_7 
REMARK       I    between atoms: N_7  and  C_8 
REMARK    2  A    between atoms: C_8  and  C_9 
REMARK    3  A    between atoms: C_10  and  O_11 
REMARK    4  A    between atoms: C_14  and  O_15 
REMARK    5  A    between atoms: C_20  and  C_21 
ROOT
HETATM    1  C   UNL     1      39.431 -10.304   3.187  1.00  0.00     0.073 C 
HETATM    2  C   UNL     1      39.644 -11.774   3.154  1.00  0.00     0.065 A 
HETATM    3  N   UNL     1      38.710 -12.571   2.617  1.00  0.00    -0.177 NA
HETATM    4  N   UNL     1      39.194 -13.803   2.819  1.00  0.00    -0.262 N 
HETATM    5  H   UNL     1      38.647 -14.583   2.479  1.00  0.00     0.191 HD
HETATM    6  C   UNL     1      40.435 -13.841   3.399  1.00  0.00     0.137 A 
HETATM    7  C   UNL     1      40.740 -12.519   3.680  1.00  0.00     0.046 A 
ENDROOT
BRANCH   6   8
HETATM    8  N   UNL     1      41.081 -15.052   3.597  1.00  0.00    -0.307 N 
HETATM    9  C   UNL     1      42.237 -15.399   2.907  1.00  0.00     0.260 C 
HETATM   10  O   UNL     1      42.729 -14.772   1.977  1.00  0.00    -0.267 OA
HETATM   11  H   UNL     1      40.606 -15.764   4.135  1.00  0.00     0.170 HD
BRANCH   9  12
HETATM   12  C   UNL     1      42.841 -16.708   3.297  1.00  0.00     0.065 A 
HETATM   13  C   UNL     1      43.371 -16.896   4.582  1.00  0.00     0.086 A 
HETATM   14  C   UNL     1      43.937 -18.124   4.954  1.00  0.00     0.074 A 
HETATM   15  C   UNL     1      44.015 -19.164   4.031  1.00  0.00     0.070 A 
HETATM   16  C   UNL     1      43.508 -18.976   2.744  1.00  0.00     0.038 A 
HETATM   17  C   UNL     1      42.932 -17.757   2.371  1.00  0.00     0.022 A 
BRANCH  13  18
HETATM   18  O   UNL     1      43.267 -15.926   5.545  1.00  0.00    -0.355 OA
HETATM   19  C   UNL     1      42.777 -16.490   6.765  1.00  0.00     0.210 C 
ENDBRANCH  13  18
BRANCH  15  20
HETATM   20  O   UNL     1      44.549 -20.402   4.260  1.00  0.00    -0.356 OA
HETATM   21  C   UNL     1      43.994 -21.150   5.336  1.00  0.00     0.210 C 
ENDBRANCH  15  20
ENDBRANCH   9  12
ENDBRANCH   6   8
BRANCH   7  22
HETATM   22  C   UNL     1      41.840 -12.047   4.503  1.00  0.00    -0.020 A 
HETATM   23  C   UNL     1      41.661 -11.814   5.871  1.00  0.00     0.014 A 
HETATM   24  C   UNL     1      42.739 -11.412   6.665  1.00  0.00     0.020 A 
HETATM   25  C   UNL     1      43.998 -11.246   6.091  1.00  0.00     0.011 A 
HETATM   26 BR   UNL     1      45.458 -10.709   7.166  1.00  0.00    -0.051 Br
HETATM   27  C   UNL     1      44.192 -11.477   4.731  1.00  0.00     0.020 A 
HETATM   28  C   UNL     1      43.115 -11.880   3.939  1.00  0.00     0.014 A 
ENDBRANCH   7  22
TORSDOF 5
ENDMDL
MODEL 2
REMARK VINA RESULT:      -7.6      3.428      6.571
REMARK  5 active torsions:
REMARK  status: ('A' for Active; 'I' for Inactive)
REMARK    1  A    between atoms: C_6  and  N_7 
REMARK       I    between atoms: N_7  and  C_8 
REMARK    2  A    between atoms: C_8  and  C_9 
REMARK    3  A    between atoms: C_10  and  O_11 
REMARK    4  A    between atoms: C_14  and  O_15 
REMARK    5  A    between atoms: C_20  and  C_21 
ROOT
HETATM    1  C   UNL     1      40.019 -14.461   0.156  1.00  0.00     0.073 C 
HETATM    2  C   UNL     1      40.568 -13.613   1.244  1.00  0.00     0.065 A 
HETATM    3  N   UNL     1      40.367 -12.289   1.225  1.00  0.00    -0.177 NA
HETATM    4  N   UNL     1      41.046 -11.851   2.293  1.00  0.00    -0.262 N 
HETATM    5  H   UNL     1      41.027 -10.858   2.486  1.00  0.00     0.191 HD
HETATM    6  C   UNL     1      41.622 -12.839   3.048  1.00  0.00     0.137 A 
HETATM    7  C   UNL     1      41.369 -14.013   2.355  1.00  0.00     0.046 A 
ENDROOT
BRANCH   6   8
HETATM    8  N   UNL     1      42.294 -12.527   4.220  1.00  0.00    -0.307 N 
HETATM    9  C   UNL     1      43.351 -11.625   4.251  1.00  0.00     0.260 C 
HETATM   10  O   UNL     1      43.893 -11.125   3.273  1.00  0.00    -0.267 OA
HETATM   11  H   UNL     1      42.115 -13.093   5.038  1.00  0.00     0.170 HD
BRANCH   9  12
HETATM   12  C   UNL     1      43.912 -11.350   5.608  1.00  0.00     0.065 A 
HETATM   13  C   UNL     1      43.070 -10.986   6.668  1.00  0.00     0.086 A 
HETATM   14  C   UNL     1      43.591 -10.729   7.945  1.00  0.00     0.074 A 
HETATM   15  C   UNL     1      44.965 -10.795   8.164  1.00  0.00     0.070 A 
HETATM   16  C   UNL     1      45.810 -11.137   7.106  1.00  0.00     0.038 A 
HETATM   17  C   UNL     1      45.295 -11.405   5.834  1.00  0.00     0.022 A 
BRANCH  13  18
HETATM   18  O   UNL     1      41.707 -10.964   6.521  1.00  0.00    -0.355 OA
HETATM   19  C   UNL     1      41.172  -9.739   7.033  1.00  0.00     0.210 C 
ENDBRANCH  13  18
BRANCH  15  20
HETATM   20  O   UNL     1      45.601 -10.559   9.351  1.00  0.00    -0.356 OA
HETATM   21  C   UNL     1      44.892  -9.790  10.316  1.00  0.00     0.210 C 
ENDBRANCH  15  20
ENDBRANCH   9  12
ENDBRANCH   6   8
BRANCH   7  22
HETATM   22  C   UNL     1      41.965 -15.311   2.618  1.00  0.00    -0.020 A 
HETATM   23  C   UNL     1      42.850 -15.890   1.701  1.00  0.00     0.014 A 
HETATM   24  C   UNL     1      43.461 -17.114   1.987  1.00  0.00     0.020 A 
HETATM   25  C   UNL     1      43.189 -17.759   3.193  1.00  0.00     0.011 A 
HETATM   26 BR   UNL     1      44.021 -19.412   3.582  1.00  0.00    -0.051 Br
HETATM   27  C   UNL     1      42.313 -17.193   4.116  1.00  0.00     0.020 A 
HETATM   28  C   UNL     1      41.705 -15.970   3.830  1.00  0.00     0.014 A 
ENDBRANCH   7  22
TORSDOF 5
ENDMDL
MODEL 3
REMARK VINA RESULT:      -7.5      2.856      3.551
REMARK  5 active torsions:
REMARK  status: ('A' for Active; 'I' for Inactive)
REMARK    1  A    between atoms: C_6  and  N_7 
REMARK       I    between atoms: N_7  and  C_8 
REMARK    2  A    between atoms: C_8  and  C_9 
REMARK    3  A    between atoms: C_10  and  O_11 
REMARK    4  A    between atoms: C_14  and  O_15 
REMARK    5  A    between atoms: C_20  and  C_21 
ROOT
HETATM    1  C   UNL     1      38.691 -10.304   5.287  1.00  0.00     0.073 C 
HETATM    2  C   UNL     1      39.333 -11.638   5.406  1.00  0.00     0.065 A 
HETATM    3  N   UNL     1      39.482 -12.201   6.612  1.00  0.00    -0.177 NA
HETATM    4  N   UNL     1      40.145 -13.335   6.350  1.00  0.00    -0.262 N 
HETATM    5  H   UNL     1      40.364 -13.941   7.130  1.00  0.00     0.191 HD
HETATM    6  C   UNL     1      40.370 -13.570   5.019  1.00  0.00     0.137 A 
HETATM    7  C   UNL     1      39.892 -12.443   4.370  1.00  0.00     0.046 A 
ENDROOT
BRANCH   6   8
HETATM    8  N   UNL     1      40.984 -14.744   4.607  1.00  0.00    -0.307 N 
HETATM    9  C   UNL     1      42.344 -14.813   4.330  1.00  0.00     0.260 C 
HETATM   10  O   UNL     1      43.112 -13.859   4.278  1.00  0.00    -0.267 OA
HETATM   11  H   UNL     1      40.396 -15.523   4.344  1.00  0.00     0.170 HD
BRANCH   9  12
HETATM   12  C   UNL     1      42.852 -16.170   3.970  1.00  0.00     0.065 A 
HETATM   13  C   UNL     1      43.724 -16.857   4.827  1.00  0.00     0.086 A 
HETATM   14  C   UNL     1      44.201 -18.134   4.495  1.00  0.00     0.074 A 
HETATM   15  C   UNL     1      43.843 -18.719   3.283  1.00  0.00     0.070 A 
HETATM   16  C   UNL     1      42.992 -18.030   2.416  1.00  0.00     0.038 A 
HETATM   17  C   UNL     1      42.504 -16.762   2.747  1.00  0.00     0.022 A 
BRANCH  13  18
HETATM   18  O   UNL     1      44.059 -16.353   6.057  1.00  0.00    -0.355 OA
HETATM   19  C   UNL     1      43.443 -17.124   7.094  1.00  0.00     0.210 C 
ENDBRANCH  13  18
BRANCH  15  20
HETATM   20  O   UNL     1      44.245 -19.946   2.834  1.00  0.00    -0.356 OA
HETATM   21  C   UNL     1      43.544 -20.480   1.716  1.00  0.00     0.210 C 
ENDBRANCH  15  20
ENDBRANCH   9  12
ENDBRANCH   6   8
BRANCH   7  22
HETATM   22  C   UNL     1      40.105 -12.100   2.975  1.00  0.00    -0.020 A 
HETATM   23  C   UNL     1      41.252 -11.405   2.576  1.00  0.00     0.014 A 
HETATM   24  C   UNL     1      41.474 -11.127   1.225  1.00  0.00     0.020 A 
HETATM   25  C   UNL     1      40.550 -11.547   0.270  1.00  0.00     0.011 A 
HETATM   26 BR   UNL     1      40.855 -11.176  -1.559  1.00  0.00    -0.051 Br
HETATM   27  C   UNL     1      39.405 -12.242   0.651  1.00  0.00     0.020 A 
HETATM   28  C   UNL     1      39.184 -12.520   2.001  1.00  0.00     0.014 A 
ENDBRANCH   7  22
TORSDOF 5
ENDMDL
MODEL 4
REMARK VINA RESULT:      -7.4      3.961      6.943
REMARK  5 active torsions:
REMARK  status: ('A' for Active; 'I' for Inactive)
REMARK    1  A    between atoms: C_6  and  N_7 
REMARK       I    between atoms: N_7  and  C_8 
REMARK    2  A    between atoms: C_8  and  C_9 
REMARK    3  A    between atoms: C_10  and  O_11 
REMARK    4  A    between atoms: C_14  and  O_15 
REMARK    5  A    between atoms: C_20  and  C_21 
ROOT
HETATM    1  C   UNL     1      43.924 -14.388   6.770  1.00  0.00     0.073 C 
HETATM    2  C   UNL     1      43.141 -13.818   5.644  1.00  0.00     0.065 A 
HETATM    3  N   UNL     1      42.569 -12.613   5.773  1.00  0.00    -0.177 NA
HETATM    4  N   UNL     1      41.905 -12.456   4.620  1.00  0.00    -0.262 N 
HETATM    5  H   UNL     1      41.393 -11.593   4.488  1.00  0.00     0.191 HD
HETATM    6  C   UNL     1      42.078 -13.472   3.718  1.00  0.00     0.137 A 
HETATM    7  C   UNL     1      42.848 -14.414   4.382  1.00  0.00     0.046 A 
ENDROOT
BRANCH   6   8
HETATM    8  N   UNL     1      41.503 -13.399   2.458  1.00  0.00    -0.307 N 
HETATM    9  C   UNL     1      40.340 -14.087   2.132  1.00  0.00     0.260 C 
HETATM   10  O   UNL     1      39.781 -14.919   2.836  1.00  0.00    -0.267 OA
HETATM   11  H   UNL     1      42.035 -12.966   1.715  1.00  0.00     0.170 HD
BRANCH   9  12
HETATM   12  C   UNL     1      39.819 -13.837   0.755  1.00  0.00     0.065 A 
HETATM   13  C   UNL     1      39.248 -12.600   0.420  1.00  0.00     0.086 A 
HETATM   14  C   UNL     1      38.760 -12.359  -0.872  1.00  0.00     0.074 A 
HETATM   15  C   UNL     1      38.801 -13.367  -1.832  1.00  0.00     0.070 A 
HETATM   16  C   UNL     1      39.349 -14.608  -1.499  1.00  0.00     0.038 A 
HETATM   17  C   UNL     1      39.847 -14.849  -0.215  1.00  0.00     0.022 A 
BRANCH  13  18
HETATM   18  O   UNL     1      39.237 -11.557   1.309  1.00  0.00    -0.355 OA
HETATM   19  C   UNL     1      37.896 -11.262   1.712  1.00  0.00     0.210 C 
ENDBRANCH  13  18
BRANCH  15  20
HETATM   20  O   UNL     1      38.351 -13.269  -3.120  1.00  0.00    -0.356 OA
HETATM   21  C   UNL     1      38.044 -14.488  -3.786  1.00  0.00     0.210 C 
ENDBRANCH  15  20
ENDBRANCH   9  12
ENDBRANCH   6   8
BRANCH   7  22
HETATM   22  C   UNL     1      43.113 -15.772   3.942  1.00  0.00    -0.020 A 
HETATM   23  C   UNL     1      43.231 -16.814   4.869  1.00  0.00     0.014 A 
HETATM   24  C   UNL     1      43.432 -18.126   4.433  1.00  0.00     0.020 A 
HETATM   25  C   UNL     1      43.512 -18.399   3.069  1.00  0.00     0.011 A 
HETATM   26 BR   UNL     1      43.778 -20.175   2.479  1.00  0.00    -0.051 Br
HETATM   27  C   UNL     1      43.394 -17.373   2.134  1.00  0.00     0.020 A 
HETATM   28  C   UNL     1      43.192 -16.062   2.571  1.00  0.00     0.014 A 
ENDBRANCH   7  22
TORSDOF 5
ENDMDL
MODEL 5
REMARK VINA RESULT:      -7.4      1.833      2.305
REMARK  5 active torsions:
REMARK  status: ('A' for Active; 'I' for Inactive)
REMARK    1  A    between atoms: C_6  and  N_7 
REMARK       I    between atoms: N_7  and  C_8 
REMARK    2  A    between atoms: C_8  and  C_9 
REMARK    3  A    between atoms: C_10  and  O_11 
REMARK    4  A    between atoms: C_14  and  O_15 
REMARK    5  A    between atoms: C_20  and  C_21 
ROOT
HETATM    1  C   UNL     1      39.394 -11.413  -0.178  1.00  0.00     0.073 C 
HETATM    2  C   UNL     1      39.789 -12.796   0.192  1.00  0.00     0.065 A 
HETATM    3  N   UNL     1      39.405 -13.827  -0.572  1.00  0.00    -0.177 NA
HETATM    4  N   UNL     1      39.870 -14.897   0.086  1.00  0.00    -0.262 N 
HETATM    5  H   UNL     1      39.700 -15.807  -0.321  1.00  0.00     0.191 HD
HETATM    6  C   UNL     1      40.601 -14.604   1.207  1.00  0.00     0.137 A 
HETATM    7  C   UNL     1      40.525 -13.226   1.335  1.00  0.00     0.046 A 
ENDROOT
BRANCH   6   8
HETATM    8  N   UNL     1      41.199 -15.619   1.940  1.00  0.00    -0.307 N 
HETATM    9  C   UNL     1      42.579 -15.733   2.060  1.00  0.00     0.260 C 
HETATM   10  O   UNL     1      43.407 -15.071   1.446  1.00  0.00    -0.267 OA
HETATM   11  H   UNL     1      40.620 -16.385   2.255  1.00  0.00     0.170 HD
BRANCH   9  12
HETATM   12  C   UNL     1      43.051 -16.839   2.945  1.00  0.00     0.065 A 
HETATM   13  C   UNL     1      43.137 -16.656   4.333  1.00  0.00     0.086 A 
HETATM   14  C   UNL     1      43.576 -17.692   5.169  1.00  0.00     0.074 A 
HETATM   15  C   UNL     1      43.973 -18.910   4.622  1.00  0.00     0.070 A 
HETATM   16  C   UNL     1      43.908 -19.091   3.238  1.00  0.00     0.038 A 
HETATM   17  C   UNL     1      43.460 -18.065   2.401  1.00  0.00     0.022 A 
BRANCH  13  18
HETATM   18  O   UNL     1      42.704 -15.499   4.928  1.00  0.00    -0.355 OA
HETATM   19  C   UNL     1      41.508 -15.744   5.675  1.00  0.00     0.210 C 
ENDBRANCH  13  18
BRANCH  15  20
HETATM   20  O   UNL     1      44.429 -19.994   5.319  1.00  0.00    -0.356 OA
HETATM   21  C   UNL     1      43.861 -21.256   4.985  1.00  0.00     0.210 C 
ENDBRANCH  15  20
ENDBRANCH   9  12
ENDBRANCH   6   8
BRANCH   7  22
HETATM   22  C   UNL     1      40.940 -12.446   2.488  1.00  0.00    -0.020 A 
HETATM   23  C   UNL     1      42.091 -11.652   2.437  1.00  0.00     0.014 A 
HETATM   24  C   UNL     1      42.451 -10.863   3.532  1.00  0.00     0.020 A 
HETATM   25  C   UNL     1      41.659 -10.865   4.679  1.00  0.00     0.011 A 
HETATM   26 BR   UNL     1      42.145  -9.792   6.158  1.00  0.00    -0.051 Br
HETATM   27  C   UNL     1      40.510 -11.648   4.744  1.00  0.00     0.020 A 
HETATM   28  C   UNL     1      40.149 -12.435   3.648  1.00  0.00     0.014 A 
ENDBRANCH   7  22
TORSDOF 5
ENDMDL
MODEL 6
REMARK VINA RESULT:      -7.3      3.586      7.439
REMARK  5 active torsions:
REMARK  status: ('A' for Active; 'I' for Inactive)
REMARK    1  A    between atoms: C_6  and  N_7 
REMARK       I    between atoms: N_7  and  C_8 
REMARK    2  A    between atoms: C_8  and  C_9 
REMARK    3  A    between atoms: C_10  and  O_11 
REMARK    4  A    between atoms: C_14  and  O_15 
REMARK    5  A    between atoms: C_20  and  C_21 
ROOT
HETATM    1  C   UNL     1      43.920 -16.515   7.471  1.00  0.00     0.073 C 
HETATM    2  C   UNL     1      43.502 -15.450   6.525  1.00  0.00     0.065 A 
HETATM    3  N   UNL     1      43.199 -14.229   6.986  1.00  0.00    -0.177 NA
HETATM    4  N   UNL     1      42.807 -13.567   5.889  1.00  0.00    -0.262 N 
HETATM    5  H   UNL     1      42.534 -12.599   5.999  1.00  0.00     0.191 HD
HETATM    6  C   UNL     1      42.910 -14.280   4.724  1.00  0.00     0.137 A 
HETATM    7  C   UNL     1      43.318 -15.546   5.114  1.00  0.00     0.046 A 
ENDROOT
BRANCH   6   8
HETATM    8  N   UNL     1      42.605 -13.687   3.508  1.00  0.00    -0.307 N 
HETATM    9  C   UNL     1      41.526 -12.824   3.354  1.00  0.00     0.260 C 
HETATM   10  O   UNL     1      40.664 -12.600   4.195  1.00  0.00    -0.267 OA
HETATM   11  H   UNL     1      43.080 -14.022   2.682  1.00  0.00     0.170 HD
BRANCH   9  12
HETATM   12  C   UNL     1      41.386 -12.218   1.996  1.00  0.00     0.065 A 
HETATM   13  C   UNL     1      41.081 -13.019   0.885  1.00  0.00     0.086 A 
HETATM   14  C   UNL     1      40.945 -12.456  -0.392  1.00  0.00     0.074 A 
HETATM   15  C   UNL     1      41.154 -11.091  -0.578  1.00  0.00     0.070 A 
HETATM   16  C   UNL     1      41.479 -10.293   0.521  1.00  0.00     0.038 A 
HETATM   17  C   UNL     1      41.604 -10.848   1.798  1.00  0.00     0.022 A 
BRANCH  13  18
HETATM   18  O   UNL     1      40.807 -14.355   1.023  1.00  0.00    -0.355 OA
HETATM   19  C   UNL     1      39.960 -14.800  -0.040  1.00  0.00     0.210 C 
ENDBRANCH  13  18
BRANCH  15  20
HETATM   20  O   UNL     1      41.064 -10.420  -1.766  1.00  0.00    -0.356 OA
HETATM   21  C   UNL     1      41.723  -9.160  -1.841  1.00  0.00     0.210 C 
ENDBRANCH  15  20
ENDBRANCH   9  12
ENDBRANCH   6   8
BRANCH   7  22
HETATM   22  C   UNL     1      43.349 -16.734   4.278  1.00  0.00    -0.020 A 
HETATM   23  C   UNL     1      42.515 -16.843   3.160  1.00  0.00     0.014 A 
HETATM   24  C   UNL     1      42.591 -17.966   2.331  1.00  0.00     0.020 A 
HETATM   25  C   UNL     1      43.505 -18.979   2.618  1.00  0.00     0.011 A 
HETATM   26 BR   UNL     1      43.612 -20.494   1.492  1.00  0.00    -0.051 Br
HETATM   27  C   UNL     1      44.344 -18.882   3.725  1.00  0.00     0.020 A 
HETATM   28  C   UNL     1      44.268 -17.760   4.552  1.00  0.00     0.014 A 
ENDBRANCH   7  22
TORSDOF 5
ENDMDL
MODEL 7
REMARK VINA RESULT:      -7.2      1.747      2.276
REMARK  5 active torsions:
REMARK  status: ('A' for Active; 'I' for Inactive)
REMARK    1  A    between atoms: C_6  and  N_7 
REMARK       I    between atoms: N_7  and  C_8 
REMARK    2  A    between atoms: C_8  and  C_9 
REMARK    3  A    between atoms: C_10  and  O_11 
REMARK    4  A    between atoms: C_14  and  O_15 
REMARK    5  A    between atoms: C_20  and  C_21 
ROOT
HETATM    1  C   UNL     1      41.451  -8.630   4.285  1.00  0.00     0.073 C 
HETATM    2  C   UNL     1      41.655 -10.073   4.002  1.00  0.00     0.065 A 
HETATM    3  N   UNL     1      41.025 -10.646   2.969  1.00  0.00    -0.177 NA
HETATM    4  N   UNL     1      41.380 -11.935   3.058  1.00  0.00    -0.262 N 
HETATM    5  H   UNL     1      41.020 -12.570   2.358  1.00  0.00     0.191 HD
HETATM    6  C   UNL     1      42.271 -12.213   4.062  1.00  0.00     0.137 A 
HETATM    7  C   UNL     1      42.435 -11.014   4.738  1.00  0.00     0.046 A 
ENDROOT
BRANCH   6   8
HETATM    8  N   UNL     1      42.774 -13.496   4.219  1.00  0.00    -0.307 N 
HETATM    9  C   UNL     1      41.997 -14.629   4.007  1.00  0.00     0.260 C 
HETATM   10  O   UNL     1      40.788 -14.639   3.806  1.00  0.00    -0.267 OA
HETATM   11  H   UNL     1      43.678 -13.603   4.656  1.00  0.00     0.170 HD
BRANCH   9  12
HETATM   12  C   UNL     1      42.717 -15.929   4.150  1.00  0.00     0.065 A 
HETATM   13  C   UNL     1      43.418 -16.232   5.326  1.00  0.00     0.086 A 
HETATM   14  C   UNL     1      44.094 -17.453   5.466  1.00  0.00     0.074 A 
HETATM   15  C   UNL     1      44.110 -18.366   4.415  1.00  0.00     0.070 A 
HETATM   16  C   UNL     1      43.430 -18.061   3.233  1.00  0.00     0.038 A 
HETATM   17  C   UNL     1      42.746 -16.850   3.093  1.00  0.00     0.022 A 
BRANCH  13  18
HETATM   18  O   UNL     1      43.386 -15.395   6.411  1.00  0.00    -0.355 OA
HETATM   19  C   UNL     1      42.758 -16.045   7.520  1.00  0.00     0.210 C 
ENDBRANCH  13  18
BRANCH  15  20
HETATM   20  O   UNL     1      44.736 -19.581   4.417  1.00  0.00    -0.356 OA
HETATM   21  C   UNL     1      44.226 -20.564   5.311  1.00  0.00     0.210 C 
ENDBRANCH  15  20
ENDBRANCH   9  12
ENDBRANCH   6   8
BRANCH   7  22
HETATM   22  C   UNL     1      43.098 -10.833   6.018  1.00  0.00    -0.020 A 
HETATM   23  C   UNL     1      44.443 -11.182   6.181  1.00  0.00     0.014 A 
HETATM   24  C   UNL     1      45.087 -10.953   7.400  1.00  0.00     0.020 A 
HETATM   25  C   UNL     1      44.387 -10.372   8.456  1.00  0.00     0.011 A 
HETATM   26 BR   UNL     1      45.261 -10.057  10.102  1.00  0.00    -0.051 Br
HETATM   27  C   UNL     1      43.049 -10.017   8.307  1.00  0.00     0.020 A 
HETATM   28  C   UNL     1      42.406 -10.245   7.089  1.00  0.00     0.014 A 
ENDBRANCH   7  22
TORSDOF 5
ENDMDL
MODEL 8
REMARK VINA RESULT:      -7.1      3.491      6.667
REMARK  5 active torsions:
REMARK  status: ('A' for Active; 'I' for Inactive)
REMARK    1  A    between atoms: C_6  and  N_7 
REMARK       I    between atoms: N_7  and  C_8 
REMARK    2  A    between atoms: C_8  and  C_9 
REMARK    3  A    between atoms: C_10  and  O_11 
REMARK    4  A    between atoms: C_14  and  O_15 
REMARK    5  A    between atoms: C_20  and  C_21 
ROOT
HETATM    1  C   UNL     1      43.797 -17.192   5.369  1.00  0.00     0.073 C 
HETATM    2  C   UNL     1      43.379 -16.852   3.985  1.00  0.00     0.065 A 
HETATM    3  N   UNL     1      43.649 -17.695   2.980  1.00  0.00    -0.177 NA
HETATM    4  N   UNL     1      43.203 -17.046   1.896  1.00  0.00    -0.262 N 
HETATM    5  H   UNL     1      43.296 -17.509   1.001  1.00  0.00     0.191 HD
HETATM    6  C   UNL     1      42.589 -15.850   2.159  1.00  0.00     0.137 A 
HETATM    7  C   UNL     1      42.734 -15.666   3.525  1.00  0.00     0.046 A 
ENDROOT
BRANCH   6   8
HETATM    8  N   UNL     1      42.019 -15.112   1.133  1.00  0.00    -0.307 N 
HETATM    9  C   UNL     1      40.645 -15.072   0.922  1.00  0.00     0.260 C 
HETATM   10  O   UNL     1      39.814 -15.764   1.497  1.00  0.00    -0.267 OA
HETATM   11  H   UNL     1      42.629 -14.730   0.424  1.00  0.00     0.170 HD
BRANCH   9  12
HETATM   12  C   UNL     1      40.198 -14.171  -0.182  1.00  0.00     0.065 A 
HETATM   13  C   UNL     1      40.530 -12.809  -0.170  1.00  0.00     0.086 A 
HETATM   14  C   UNL     1      40.115 -11.958  -1.205  1.00  0.00     0.074 A 
HETATM   15  C   UNL     1      39.328 -12.454  -2.242  1.00  0.00     0.070 A 
HETATM   16  C   UNL     1      38.976 -13.806  -2.247  1.00  0.00     0.038 A 
HETATM   17  C   UNL     1      39.397 -14.660  -1.223  1.00  0.00     0.022 A 
BRANCH  13  18
HETATM   18  O   UNL     1      41.352 -12.284   0.794  1.00  0.00    -0.355 OA
HETATM   19  C   UNL     1      40.590 -11.513   1.728  1.00  0.00     0.210 C 
ENDBRANCH  13  18
BRANCH  15  20
HETATM   20  O   UNL     1      38.849 -11.734  -3.301  1.00  0.00    -0.356 OA
HETATM   21  C   UNL     1      38.184 -10.513  -2.997  1.00  0.00     0.210 C 
ENDBRANCH  15  20
ENDBRANCH   9  12
ENDBRANCH   6   8
BRANCH   7  22
HETATM   22  C   UNL     1      42.458 -14.444   4.262  1.00  0.00    -0.020 A 
HETATM   23  C   UNL     1      43.184 -13.276   4.005  1.00  0.00     0.014 A 
HETATM   24  C   UNL     1      42.875 -12.091   4.680  1.00  0.00     0.020 A 
HETATM   25  C   UNL     1      41.837 -12.075   5.610  1.00  0.00     0.011 A 
HETATM   26 BR   UNL     1      41.415 -10.470   6.518  1.00  0.00    -0.051 Br
HETATM   27  C   UNL     1      41.104 -13.229   5.874  1.00  0.00     0.020 A 
HETATM   28  C   UNL     1      41.413 -14.411   5.198  1.00  0.00     0.014 A 
ENDBRANCH   7  22
TORSDOF 5
ENDMDL
MODEL 9
REMARK VINA RESULT:      -7.0     15.274     16.690
REMARK  5 active torsions:
REMARK  status: ('A' for Active; 'I' for Inactive)
REMARK    1  A    between atoms: C_6  and  N_7 
REMARK       I    between atoms: N_7  and  C_8 
REMARK    2  A    between atoms: C_8  and  C_9 
REMARK    3  A    between atoms: C_10  and  O_11 
REMARK    4  A    between atoms: C_14  and  O_15 
REMARK    5  A    between atoms: C_20  and  C_21 
ROOT
HETATM    1  C   UNL     1      47.393 -27.896  -1.316  1.00  0.00     0.073 C 
HETATM    2  C   UNL     1      46.126 -28.390  -0.719  1.00  0.00     0.065 A 
HETATM    3  N   UNL     1      44.954 -28.069  -1.282  1.00  0.00    -0.177 NA
HETATM    4  N   UNL     1      44.049 -28.614  -0.458  1.00  0.00    -0.262 N 
HETATM    5  H   UNL     1      43.072 -28.503  -0.697  1.00  0.00     0.191 HD
HETATM    6  C   UNL     1      44.581 -29.337   0.576  1.00  0.00     0.137 A 
HETATM    7  C   UNL     1      45.952 -29.167   0.464  1.00  0.00     0.046 A 
ENDROOT
BRANCH   6   8
HETATM    8  N   UNL     1      43.753 -30.012   1.461  1.00  0.00    -0.307 N 
HETATM    9  C   UNL     1      42.442 -29.616   1.699  1.00  0.00     0.260 C 
HETATM   10  O   UNL     1      41.921 -28.586   1.289  1.00  0.00    -0.267 OA
HETATM   11  H   UNL     1      44.168 -30.706   2.067  1.00  0.00     0.170 HD
BRANCH   9  12
HETATM   12  C   UNL     1      41.671 -30.498   2.625  1.00  0.00     0.065 A 
HETATM   13  C   UNL     1      41.072 -31.676   2.155  1.00  0.00     0.086 A 
HETATM   14  C   UNL     1      40.348 -32.510   3.020  1.00  0.00     0.074 A 
HETATM   15  C   UNL     1      40.182 -32.153   4.356  1.00  0.00     0.070 A 
HETATM   16  C   UNL     1      40.758 -30.969   4.824  1.00  0.00     0.038 A 
HETATM   17  C   UNL     1      41.490 -30.141   3.968  1.00  0.00     0.022 A 
BRANCH  13  18
HETATM   18  O   UNL     1      41.255 -32.104   0.865  1.00  0.00    -0.355 OA
HETATM   19  C   UNL     1      41.899 -33.382   0.853  1.00  0.00     0.210 C 
ENDBRANCH  13  18
BRANCH  15  20
HETATM   20  O   UNL     1      39.494 -32.866   5.298  1.00  0.00    -0.356 OA
HETATM   21  C   UNL     1      38.190 -33.308   4.941  1.00  0.00     0.210 C 
ENDBRANCH  15  20
ENDBRANCH   9  12
ENDBRANCH   6   8
BRANCH   7  22
HETATM   22  C   UNL     1      46.949 -29.541   1.453  1.00  0.00    -0.020 A 
HETATM   23  C   UNL     1      47.501 -30.826   1.460  1.00  0.00     0.014 A 
HETATM   24  C   UNL     1      48.499 -31.159   2.381  1.00  0.00     0.020 A 
HETATM   25  C   UNL     1      48.946 -30.206   3.293  1.00  0.00     0.011 A 
HETATM   26 BR   UNL     1      50.300 -30.655   4.534  1.00  0.00    -0.051 Br
HETATM   27  C   UNL     1      48.408 -28.921   3.296  1.00  0.00     0.020 A 
HETATM   28  C   UNL     1      47.413 -28.589   2.375  1.00  0.00     0.014 A 
ENDBRANCH   7  22
TORSDOF 5
ENDMDL
MODEL 10
REMARK VINA RESULT:      -7.0      2.784      4.211
REMARK  5 active torsions:
REMARK  status: ('A' for Active; 'I' for Inactive)
REMARK    1  A    between atoms: C_6  and  N_7 
REMARK       I    between atoms: N_7  and  C_8 
REMARK    2  A    between atoms: C_8  and  C_9 
REMARK    3  A    between atoms: C_10  and  O_11 
REMARK    4  A    between atoms: C_14  and  O_15 
REMARK    5  A    between atoms: C_20  and  C_21 
ROOT
HETATM    1  C   UNL     1      42.308  -9.443   7.377  1.00  0.00     0.073 C 
HETATM    2  C   UNL     1      42.973 -10.731   7.055  1.00  0.00     0.065 A 
HETATM    3  N   UNL     1      44.103 -11.076   7.687  1.00  0.00    -0.177 NA
HETATM    4  N   UNL     1      44.447 -12.234   7.108  1.00  0.00    -0.262 N 
HETATM    5  H   UNL     1      45.285 -12.693   7.441  1.00  0.00     0.191 HD
HETATM    6  C   UNL     1      43.553 -12.695   6.178  1.00  0.00     0.137 A 
HETATM    7  C   UNL     1      42.592 -11.701   6.080  1.00  0.00     0.046 A 
ENDROOT
BRANCH   6   8
HETATM    8  N   UNL     1      43.754 -13.918   5.556  1.00  0.00    -0.307 N 
HETATM    9  C   UNL     1      43.029 -15.054   5.900  1.00  0.00     0.260 C 
HETATM   10  O   UNL     1      42.259 -15.150   6.848  1.00  0.00    -0.267 OA
HETATM   11  H   UNL     1      44.561 -14.022   4.957  1.00  0.00     0.170 HD
BRANCH   9  12
HETATM   12  C   UNL     1      43.323 -16.267   5.081  1.00  0.00     0.065 A 
HETATM   13  C   UNL     1      42.995 -16.305   3.718  1.00  0.00     0.086 A 
HETATM   14  C   UNL     1      43.270 -17.441   2.943  1.00  0.00     0.074 A 
HETATM   15  C   UNL     1      43.840 -18.566   3.533  1.00  0.00     0.070 A 
HETATM   16  C   UNL     1      44.149 -18.542   4.895  1.00  0.00     0.038 A 
HETATM   17  C   UNL     1      43.887 -17.408   5.669  1.00  0.00     0.022 A 
BRANCH  13  18
HETATM   18  O   UNL     1      42.488 -15.204   3.076  1.00  0.00    -0.355 OA
HETATM   19  C   UNL     1      43.340 -14.830   1.988  1.00  0.00     0.210 C 
ENDBRANCH  13  18
BRANCH  15  20
HETATM   20  O   UNL     1      44.149 -19.737   2.898  1.00  0.00    -0.356 OA
HETATM   21  C   UNL     1      43.216 -20.206   1.930  1.00  0.00     0.210 C 
ENDBRANCH  15  20
ENDBRANCH   9  12
ENDBRANCH   6   8
BRANCH   7  22
HETATM   22  C   UNL     1      41.556 -11.603   5.067  1.00  0.00    -0.020 A 
HETATM   23  C   UNL     1      40.395 -12.380   5.156  1.00  0.00     0.014 A 
HETATM   24  C   UNL     1      39.379 -12.240   4.206  1.00  0.00     0.020 A 
HETATM   25  C   UNL     1      39.522 -11.320   3.169  1.00  0.00     0.011 A 
HETATM   26 BR   UNL     1      38.145 -11.126   1.888  1.00  0.00    -0.051 Br
HETATM   27  C   UNL     1      40.671 -10.538   3.070  1.00  0.00     0.020 A 
HETATM   28  C   UNL     1      41.684 -10.678   4.020  1.00  0.00     0.014 A 
ENDBRANCH   7  22
TORSDOF 5
ENDMDL
