MODEL 1
REMARK VINA RESULT:      -9.3      0.000      0.000
REMARK  8 active torsions:
REMARK  status: ('A' for Active; 'I' for Inactive)
REMARK    1  A    between atoms: C_8  and  C_9 
REMARK    2  A    between atoms: N_10  and  C_11 
REMARK    3  A    between atoms: C_11  and  C_12 
REMARK    4  A    between atoms: C_17  and  S_18 
REMARK    5  A    between atoms: S_18  and  C_19 
REMARK    6  A    between atoms: C_19  and  C_20 
REMARK       I    between atoms: C_20  and  N_21 
REMARK    7  A    between atoms: N_21  and  C_22 
REMARK    8  A    between atoms: C_30  and  O_31 
ROOT
HETATM    1  C   UNL     1      43.679 -11.572   5.177  1.00  0.00     0.167 A 
HETATM    2  N   UNL     1      42.725 -12.509   4.807  1.00  0.00    -0.301 N 
HETATM    3  C   UNL     1      42.861 -12.644   3.447  1.00  0.00     0.192 A 
HETATM    4  N   UNL     1      43.808 -11.856   3.008  1.00  0.00    -0.122 NA
HETATM    5  N   UNL     1      44.325 -11.198   4.080  1.00  0.00    -0.128 NA
ENDROOT
BRANCH   1   6
HETATM    6  C   UNL     1      44.063 -11.079   6.510  1.00  0.00     0.046 A 
HETATM    7  C   UNL     1      43.141 -10.592   7.447  1.00  0.00     0.030 A 
HETATM    8  C   UNL     1      43.549 -10.104   8.706  1.00  0.00    -0.025 A 
HETATM    9  C   UNL     1      42.618  -9.630   9.646  1.00  0.00     0.012 A 
HETATM   10  C   UNL     1      44.922 -10.082   9.033  1.00  0.00    -0.023 A 
HETATM   11  C   UNL     1      43.039  -9.136  10.883  1.00  0.00     0.001 A 
HETATM   12  C   UNL     1      44.394  -9.108  11.198  1.00  0.00     0.001 A 
HETATM   13  C   UNL     1      45.331  -9.578  10.279  1.00  0.00     0.012 A 
HETATM   14  C   UNL     1      45.852 -10.549   8.099  1.00  0.00     0.049 A 
HETATM   15  C   UNL     1      45.426 -11.028   6.861  1.00  0.00     0.080 A 
BRANCH  15  16
HETATM   16  O   UNL     1      46.429 -11.432   6.013  1.00  0.00    -0.360 OA
HETATM   17  H   UNL     1      47.288 -11.261   6.453  1.00  0.00     0.217 HD
ENDBRANCH  15  16
ENDBRANCH   1   6
BRANCH   2  18
HETATM   18  C   UNL     1      41.739 -13.176   5.637  1.00  0.00     0.198 C 
BRANCH  18  19
HETATM   19  C   UNL     1      42.203 -14.480   6.160  1.00  0.00     0.070 A 
HETATM   20  O   UNL     1      43.552 -14.683   6.115  1.00  0.00    -0.325 OA
HETATM   21  C   UNL     1      43.791 -15.902   6.659  1.00  0.00     0.142 A 
HETATM   22  C   UNL     1      42.614 -16.489   7.058  1.00  0.00     0.027 A 
HETATM   23  C   UNL     1      41.586 -15.569   6.740  1.00  0.00     0.036 A 
ENDBRANCH  18  19
ENDBRANCH   2  18
BRANCH   3  24
HETATM   24  S   UNL     1      41.935 -13.698   2.439  1.00  0.00    -0.081 SA
BRANCH  24  25
HETATM   25  C   UNL     1      43.101 -15.076   2.233  1.00  0.00     0.185 C 
BRANCH  25  26
HETATM   26  C   UNL     1      42.694 -16.332   2.986  1.00  0.00     0.227 C 
HETATM   27  N   UNL     1      43.682 -17.276   3.146  1.00  0.00    -0.356 N 
HETATM   28  H   UNL     1      44.603 -17.080   2.755  1.00  0.00     0.162 HD
HETATM   29  O   UNL     1      41.531 -16.513   3.341  1.00  0.00    -0.273 OA
BRANCH  27  30
HETATM   30  C   UNL     1      43.419 -18.614   3.622  1.00  0.00     0.084 C 
HETATM   31  C   UNL     1      43.764 -19.672   2.580  1.00  0.00     0.025 C 
HETATM   32  C   UNL     1      43.819 -20.968   3.378  1.00  0.00     0.002 C 
HETATM   33  C   UNL     1      44.194 -20.565   4.804  1.00  0.00     0.002 C 
HETATM   34  C   UNL     1      44.277 -19.040   4.811  1.00  0.00     0.025 C 
ENDBRANCH  27  30
ENDBRANCH  25  26
ENDBRANCH  24  25
ENDBRANCH   3  24
TORSDOF 8
ENDMDL
MODEL 2
REMARK VINA RESULT:      -9.3      2.466      8.238
REMARK  8 active torsions:
REMARK  status: ('A' for Active; 'I' for Inactive)
REMARK    1  A    between atoms: C_8  and  C_9 
REMARK    2  A    between atoms: N_10  and  C_11 
REMARK    3  A    between atoms: C_11  and  C_12 
REMARK    4  A    between atoms: C_17  and  S_18 
REMARK    5  A    between atoms: S_18  and  C_19 
REMARK    6  A    between atoms: C_19  and  C_20 
REMARK       I    between atoms: C_20  and  N_21 
REMARK    7  A    between atoms: N_21  and  C_22 
REMARK    8  A    between atoms: C_30  and  O_31 
ROOT
HETATM    1  C   UNL     1      41.014 -13.943   5.635  1.00  0.00     0.167 A 
HETATM    2  N   UNL     1      41.308 -12.603   5.430  1.00  0.00    -0.301 N 
HETATM    3  C   UNL     1      40.275 -11.914   6.016  1.00  0.00     0.192 A 
HETATM    4  N   UNL     1      39.410 -12.750   6.532  1.00  0.00    -0.122 NA
HETATM    5  N   UNL     1      39.872 -14.008   6.307  1.00  0.00    -0.128 NA
ENDROOT
BRANCH   1   6
HETATM    6  C   UNL     1      41.791 -15.150   5.305  1.00  0.00     0.046 A 
HETATM    7  C   UNL     1      41.792 -15.743   4.035  1.00  0.00     0.030 A 
HETATM    8  C   UNL     1      42.530 -16.914   3.763  1.00  0.00    -0.025 A 
HETATM    9  C   UNL     1      42.537 -17.495   2.483  1.00  0.00     0.012 A 
HETATM   10  C   UNL     1      43.273 -17.525   4.795  1.00  0.00    -0.023 A 
HETATM   11  C   UNL     1      43.260 -18.663   2.232  1.00  0.00     0.001 A 
HETATM   12  C   UNL     1      43.985 -19.268   3.255  1.00  0.00     0.001 A 
HETATM   13  C   UNL     1      43.992 -18.702   4.530  1.00  0.00     0.012 A 
HETATM   14  C   UNL     1      43.266 -16.952   6.070  1.00  0.00     0.049 A 
HETATM   15  C   UNL     1      42.530 -15.794   6.317  1.00  0.00     0.080 A 
BRANCH  15  16
HETATM   16  O   UNL     1      42.572 -15.339   7.613  1.00  0.00    -0.360 OA
HETATM   17  H   UNL     1      43.253 -14.637   7.668  1.00  0.00     0.217 HD
ENDBRANCH  15  16
ENDBRANCH   1   6
BRANCH   2  18
HETATM   18  C   UNL     1      42.422 -12.019   4.706  1.00  0.00     0.198 C 
BRANCH  18  19
HETATM   19  C   UNL     1      43.648 -11.894   5.525  1.00  0.00     0.070 A 
HETATM   20  O   UNL     1      44.711 -11.303   4.903  1.00  0.00    -0.325 OA
HETATM   21  C   UNL     1      45.721 -11.247   5.806  1.00  0.00     0.142 A 
HETATM   22  C   UNL     1      45.324 -11.789   7.006  1.00  0.00     0.027 A 
HETATM   23  C   UNL     1      43.982 -12.205   6.827  1.00  0.00     0.036 A 
ENDBRANCH  18  19
ENDBRANCH   2  18
BRANCH   3  24
HETATM   24  S   UNL     1      40.117 -10.195   6.084  1.00  0.00    -0.081 SA
BRANCH  24  25
HETATM   25  C   UNL     1      39.565  -9.975   7.800  1.00  0.00     0.185 C 
BRANCH  25  26
HETATM   26  C   UNL     1      40.608  -9.323   8.693  1.00  0.00     0.227 C 
HETATM   27  N   UNL     1      41.917  -9.518   8.319  1.00  0.00    -0.356 N 
HETATM   28  H   UNL     1      42.101 -10.078   7.487  1.00  0.00     0.162 HD
HETATM   29  O   UNL     1      40.288  -8.741   9.727  1.00  0.00    -0.273 OA
BRANCH  27  30
HETATM   30  C   UNL     1      43.036  -9.177   9.167  1.00  0.00     0.084 C 
HETATM   31  C   UNL     1      43.526 -10.371   9.979  1.00  0.00     0.025 C 
HETATM   32  C   UNL     1      44.904  -9.943  10.464  1.00  0.00     0.002 C 
HETATM   33  C   UNL     1      45.419  -8.941   9.431  1.00  0.00     0.002 C 
HETATM   34  C   UNL     1      44.296  -8.762   8.412  1.00  0.00     0.025 C 
ENDBRANCH  27  30
ENDBRANCH  25  26
ENDBRANCH  24  25
ENDBRANCH   3  24
TORSDOF 8
ENDMDL
MODEL 3
REMARK VINA RESULT:      -9.1      2.456      8.733
REMARK  8 active torsions:
REMARK  status: ('A' for Active; 'I' for Inactive)
REMARK    1  A    between atoms: C_8  and  C_9 
REMARK    2  A    between atoms: N_10  and  C_11 
REMARK    3  A    between atoms: C_11  and  C_12 
REMARK    4  A    between atoms: C_17  and  S_18 
REMARK    5  A    between atoms: S_18  and  C_19 
REMARK    6  A    between atoms: C_19  and  C_20 
REMARK       I    between atoms: C_20  and  N_21 
REMARK    7  A    between atoms: N_21  and  C_22 
REMARK    8  A    between atoms: C_30  and  O_31 
ROOT
HETATM    1  C   UNL     1      43.058 -14.955   5.869  1.00  0.00     0.167 A 
HETATM    2  N   UNL     1      41.962 -14.148   5.600  1.00  0.00    -0.301 N 
HETATM    3  C   UNL     1      42.315 -12.900   6.050  1.00  0.00     0.192 A 
HETATM    4  N   UNL     1      43.518 -12.928   6.561  1.00  0.00    -0.122 NA
HETATM    5  N   UNL     1      43.986 -14.198   6.439  1.00  0.00    -0.128 NA
ENDROOT
BRANCH   1   6
HETATM    6  C   UNL     1      43.303 -16.369   5.541  1.00  0.00     0.046 A 
HETATM    7  C   UNL     1      43.339 -16.862   4.230  1.00  0.00     0.030 A 
HETATM    8  C   UNL     1      43.552 -18.230   3.956  1.00  0.00    -0.025 A 
HETATM    9  C   UNL     1      43.600 -18.715   2.638  1.00  0.00     0.012 A 
HETATM   10  C   UNL     1      43.712 -19.138   5.024  1.00  0.00    -0.023 A 
HETATM   11  C   UNL     1      43.796 -20.074   2.383  1.00  0.00     0.001 A 
HETATM   12  C   UNL     1      43.945 -20.967   3.439  1.00  0.00     0.001 A 
HETATM   13  C   UNL     1      43.904 -20.503   4.754  1.00  0.00     0.012 A 
HETATM   14  C   UNL     1      43.660 -18.660   6.338  1.00  0.00     0.049 A 
HETATM   15  C   UNL     1      43.450 -17.304   6.585  1.00  0.00     0.080 A 
BRANCH  15  16
HETATM   16  O   UNL     1      43.387 -16.954   7.912  1.00  0.00    -0.360 OA
HETATM   17  H   UNL     1      44.096 -16.302   8.090  1.00  0.00     0.217 HD
ENDBRANCH  15  16
ENDBRANCH   1   6
BRANCH   2  18
HETATM   18  C   UNL     1      40.681 -14.519   5.028  1.00  0.00     0.198 C 
BRANCH  18  19
HETATM   19  C   UNL     1      40.736 -14.730   3.563  1.00  0.00     0.070 A 
HETATM   20  O   UNL     1      41.531 -13.859   2.876  1.00  0.00    -0.325 OA
HETATM   21  C   UNL     1      41.484 -14.221   1.569  1.00  0.00     0.142 A 
HETATM   22  C   UNL     1      40.671 -15.318   1.405  1.00  0.00     0.027 A 
HETATM   23  C   UNL     1      40.189 -15.651   2.694  1.00  0.00     0.036 A 
ENDBRANCH  18  19
ENDBRANCH   2  18
BRANCH   3  24
HETATM   24  S   UNL     1      41.334 -11.480   5.961  1.00  0.00    -0.081 SA
BRANCH  24  25
HETATM   25  C   UNL     1      42.524 -10.216   6.495  1.00  0.00     0.185 C 
BRANCH  25  26
HETATM   26  C   UNL     1      42.135  -9.529   7.794  1.00  0.00     0.227 C 
HETATM   27  N   UNL     1      42.931  -9.812   8.879  1.00  0.00    -0.356 N 
HETATM   28  H   UNL     1      43.713 -10.454   8.747  1.00  0.00     0.162 HD
HETATM   29  O   UNL     1      41.119  -8.841   7.872  1.00  0.00    -0.273 OA
BRANCH  27  30
HETATM   30  C   UNL     1      42.579  -9.443  10.230  1.00  0.00     0.084 C 
HETATM   31  C   UNL     1      43.145 -10.415  11.259  1.00  0.00     0.025 C 
HETATM   32  C   UNL     1      43.033  -9.661  12.577  1.00  0.00     0.002 C 
HETATM   33  C   UNL     1      43.092  -8.177  12.215  1.00  0.00     0.002 C 
HETATM   34  C   UNL     1      43.165  -8.110  10.692  1.00  0.00     0.025 C 
ENDBRANCH  27  30
ENDBRANCH  25  26
ENDBRANCH  24  25
ENDBRANCH   3  24
TORSDOF 8
ENDMDL
MODEL 4
REMARK VINA RESULT:      -9.1      2.812      7.169
REMARK  8 active torsions:
REMARK  status: ('A' for Active; 'I' for Inactive)
REMARK    1  A    between atoms: C_8  and  C_9 
REMARK    2  A    between atoms: N_10  and  C_11 
REMARK    3  A    between atoms: C_11  and  C_12 
REMARK    4  A    between atoms: C_17  and  S_18 
REMARK    5  A    between atoms: S_18  and  C_19 
REMARK    6  A    between atoms: C_19  and  C_20 
REMARK       I    between atoms: C_20  and  N_21 
REMARK    7  A    between atoms: N_21  and  C_22 
REMARK    8  A    between atoms: C_30  and  O_31 
ROOT
HETATM    1  C   UNL     1      41.111 -14.209   5.674  1.00  0.00     0.167 A 
HETATM    2  N   UNL     1      41.405 -12.874   5.442  1.00  0.00    -0.301 N 
HETATM    3  C   UNL     1      40.340 -12.176   5.956  1.00  0.00     0.192 A 
HETATM    4  N   UNL     1      39.457 -13.002   6.455  1.00  0.00    -0.122 NA
HETATM    5  N   UNL     1      39.938 -14.263   6.292  1.00  0.00    -0.128 NA
ENDROOT
BRANCH   1   6
HETATM    6  C   UNL     1      41.911 -15.419   5.420  1.00  0.00     0.046 A 
HETATM    7  C   UNL     1      42.012 -16.026   4.161  1.00  0.00     0.030 A 
HETATM    8  C   UNL     1      42.768 -17.200   3.961  1.00  0.00    -0.025 A 
HETATM    9  C   UNL     1      42.877 -17.796   2.693  1.00  0.00     0.012 A 
HETATM   10  C   UNL     1      43.428 -17.799   5.056  1.00  0.00    -0.023 A 
HETATM   11  C   UNL     1      43.617 -18.966   2.514  1.00  0.00     0.001 A 
HETATM   12  C   UNL     1      44.259 -19.558   3.597  1.00  0.00     0.001 A 
HETATM   13  C   UNL     1      44.166 -18.978   4.862  1.00  0.00     0.012 A 
HETATM   14  C   UNL     1      43.320 -17.211   6.320  1.00  0.00     0.049 A 
HETATM   15  C   UNL     1      42.568 -16.051   6.495  1.00  0.00     0.080 A 
BRANCH  15  16
HETATM   16  O   UNL     1      42.508 -15.581   7.784  1.00  0.00    -0.360 OA
HETATM   17  H   UNL     1      43.159 -16.079   8.321  1.00  0.00     0.217 HD
ENDBRANCH  15  16
ENDBRANCH   1   6
BRANCH   2  18
HETATM   18  C   UNL     1      42.549 -12.303   4.755  1.00  0.00     0.198 C 
BRANCH  18  19
HETATM   19  C   UNL     1      43.678 -11.991   5.660  1.00  0.00     0.070 A 
HETATM   20  O   UNL     1      44.734 -11.351   5.080  1.00  0.00    -0.325 OA
HETATM   21  C   UNL     1      45.647 -11.122   6.057  1.00  0.00     0.142 A 
HETATM   22  C   UNL     1      45.192 -11.602   7.262  1.00  0.00     0.027 A 
HETATM   23  C   UNL     1      43.916 -12.161   7.008  1.00  0.00     0.036 A 
ENDBRANCH  18  19
ENDBRANCH   2  18
BRANCH   3  24
HETATM   24  S   UNL     1      40.168 -10.456   5.961  1.00  0.00    -0.081 SA
BRANCH  24  25
HETATM   25  C   UNL     1      39.101 -10.221   4.510  1.00  0.00     0.185 C 
BRANCH  25  26
HETATM   26  C   UNL     1      39.726 -10.710   3.213  1.00  0.00     0.227 C 
HETATM   27  N   UNL     1      39.262 -11.919   2.747  1.00  0.00    -0.356 N 
HETATM   28  H   UNL     1      38.547 -12.401   3.291  1.00  0.00     0.162 HD
HETATM   29  O   UNL     1      40.648 -10.097   2.679  1.00  0.00    -0.273 OA
BRANCH  27  30
HETATM   30  C   UNL     1      39.899 -12.643   1.672  1.00  0.00     0.084 C 
HETATM   31  C   UNL     1      39.901 -14.148   1.915  1.00  0.00     0.025 C 
HETATM   32  C   UNL     1      40.216 -14.740   0.548  1.00  0.00     0.002 C 
HETATM   33  C   UNL     1      39.712 -13.721  -0.474  1.00  0.00     0.002 C 
HETATM   34  C   UNL     1      39.183 -12.535   0.328  1.00  0.00     0.025 C 
ENDBRANCH  27  30
ENDBRANCH  25  26
ENDBRANCH  24  25
ENDBRANCH   3  24
TORSDOF 8
ENDMDL
MODEL 5
REMARK VINA RESULT:      -9.0      3.289      7.463
REMARK  8 active torsions:
REMARK  status: ('A' for Active; 'I' for Inactive)
REMARK    1  A    between atoms: C_8  and  C_9 
REMARK    2  A    between atoms: N_10  and  C_11 
REMARK    3  A    between atoms: C_11  and  C_12 
REMARK    4  A    between atoms: C_17  and  S_18 
REMARK    5  A    between atoms: S_18  and  C_19 
REMARK    6  A    between atoms: C_19  and  C_20 
REMARK       I    between atoms: C_20  and  N_21 
REMARK    7  A    between atoms: N_21  and  C_22 
REMARK    8  A    between atoms: C_30  and  O_31 
ROOT
HETATM    1  C   UNL     1      41.371 -13.675   3.202  1.00  0.00     0.167 A 
HETATM    2  N   UNL     1      41.913 -12.410   3.371  1.00  0.00    -0.301 N 
HETATM    3  C   UNL     1      40.838 -11.555   3.375  1.00  0.00     0.192 A 
HETATM    4  N   UNL     1      39.727 -12.226   3.214  1.00  0.00    -0.122 NA
HETATM    5  N   UNL     1      40.053 -13.542   3.118  1.00  0.00    -0.128 NA
ENDROOT
BRANCH   1   6
HETATM    6  C   UNL     1      42.019 -14.997   3.200  1.00  0.00     0.046 A 
HETATM    7  C   UNL     1      42.337 -15.702   4.369  1.00  0.00     0.030 A 
HETATM    8  C   UNL     1      42.982 -16.956   4.327  1.00  0.00    -0.025 A 
HETATM    9  C   UNL     1      43.285 -17.664   5.503  1.00  0.00     0.012 A 
HETATM   10  C   UNL     1      43.341 -17.515   3.082  1.00  0.00    -0.023 A 
HETATM   11  C   UNL     1      43.938 -18.897   5.447  1.00  0.00     0.001 A 
HETATM   12  C   UNL     1      44.297 -19.441   4.218  1.00  0.00     0.001 A 
HETATM   13  C   UNL     1      44.000 -18.754   3.040  1.00  0.00     0.012 A 
HETATM   14  C   UNL     1      43.043 -16.812   1.910  1.00  0.00     0.049 A 
HETATM   15  C   UNL     1      42.405 -15.575   1.974  1.00  0.00     0.080 A 
BRANCH  15  16
HETATM   16  O   UNL     1      42.192 -14.962   0.763  1.00  0.00    -0.360 OA
HETATM   17  H   UNL     1      43.046 -14.595   0.453  1.00  0.00     0.217 HD
ENDBRANCH  15  16
ENDBRANCH   1   6
BRANCH   2  18
HETATM   18  C   UNL     1      43.310 -12.026   3.464  1.00  0.00     0.198 C 
BRANCH  18  19
HETATM   19  C   UNL     1      43.814 -11.996   4.855  1.00  0.00     0.070 A 
HETATM   20  O   UNL     1      44.923 -11.227   5.060  1.00  0.00    -0.325 OA
HETATM   21  C   UNL     1      45.218 -11.295   6.383  1.00  0.00     0.142 A 
HETATM   22  C   UNL     1      44.310 -12.094   7.036  1.00  0.00     0.027 A 
HETATM   23  C   UNL     1      43.399 -12.546   6.051  1.00  0.00     0.036 A 
ENDBRANCH  18  19
ENDBRANCH   2  18
BRANCH   3  24
HETATM   24  S   UNL     1      40.913  -9.840   3.569  1.00  0.00    -0.081 SA
BRANCH  24  25
HETATM   25  C   UNL     1      40.370  -9.292   1.925  1.00  0.00     0.185 C 
BRANCH  25  26
HETATM   26  C   UNL     1      40.986 -10.090   0.787  1.00  0.00     0.227 C 
HETATM   27  N   UNL     1      40.151 -10.999   0.178  1.00  0.00    -0.356 N 
HETATM   28  H   UNL     1      39.195 -11.080   0.523  1.00  0.00     0.162 HD
HETATM   29  O   UNL     1      42.177  -9.982   0.504  1.00  0.00    -0.273 OA
BRANCH  27  30
HETATM   30  C   UNL     1      40.624 -11.999  -0.751  1.00  0.00     0.084 C 
HETATM   31  C   UNL     1      39.706 -13.214  -0.803  1.00  0.00     0.025 C 
HETATM   32  C   UNL     1      40.118 -13.930  -2.083  1.00  0.00     0.002 C 
HETATM   33  C   UNL     1      40.678 -12.848  -3.005  1.00  0.00     0.002 C 
HETATM   34  C   UNL     1      40.641 -11.545  -2.209  1.00  0.00     0.025 C 
ENDBRANCH  27  30
ENDBRANCH  25  26
ENDBRANCH  24  25
ENDBRANCH   3  24
TORSDOF 8
ENDMDL
MODEL 6
REMARK VINA RESULT:      -8.9      3.362      7.779
REMARK  8 active torsions:
REMARK  status: ('A' for Active; 'I' for Inactive)
REMARK    1  A    between atoms: C_8  and  C_9 
REMARK    2  A    between atoms: N_10  and  C_11 
REMARK    3  A    between atoms: C_11  and  C_12 
REMARK    4  A    between atoms: C_17  and  S_18 
REMARK    5  A    between atoms: S_18  and  C_19 
REMARK    6  A    between atoms: C_19  and  C_20 
REMARK       I    between atoms: C_20  and  N_21 
REMARK    7  A    between atoms: N_21  and  C_22 
REMARK    8  A    between atoms: C_30  and  O_31 
ROOT
HETATM    1  C   UNL     1      43.136 -14.842   5.837  1.00  0.00     0.167 A 
HETATM    2  N   UNL     1      42.069 -14.013   5.524  1.00  0.00    -0.301 N 
HETATM    3  C   UNL     1      42.445 -12.764   5.954  1.00  0.00     0.192 A 
HETATM    4  N   UNL     1      43.635 -12.812   6.494  1.00  0.00    -0.122 NA
HETATM    5  N   UNL     1      44.071 -14.097   6.413  1.00  0.00    -0.128 NA
ENDROOT
BRANCH   1   6
HETATM    6  C   UNL     1      43.350 -16.270   5.549  1.00  0.00     0.046 A 
HETATM    7  C   UNL     1      43.405 -16.794   4.250  1.00  0.00     0.030 A 
HETATM    8  C   UNL     1      43.587 -18.172   4.013  1.00  0.00    -0.025 A 
HETATM    9  C   UNL     1      43.656 -18.689   2.708  1.00  0.00     0.012 A 
HETATM   10  C   UNL     1      43.695 -19.060   5.105  1.00  0.00    -0.023 A 
HETATM   11  C   UNL     1      43.821 -20.059   2.488  1.00  0.00     0.001 A 
HETATM   12  C   UNL     1      43.918 -20.931   3.568  1.00  0.00     0.001 A 
HETATM   13  C   UNL     1      43.856 -20.435   4.870  1.00  0.00     0.012 A 
HETATM   14  C   UNL     1      43.623 -18.550   6.406  1.00  0.00     0.049 A 
HETATM   15  C   UNL     1      43.445 -17.184   6.617  1.00  0.00     0.080 A 
BRANCH  15  16
HETATM   16  O   UNL     1      43.358 -16.802   7.934  1.00  0.00    -0.360 OA
HETATM   17  H   UNL     1      43.287 -17.611   8.482  1.00  0.00     0.217 HD
ENDBRANCH  15  16
ENDBRANCH   1   6
BRANCH   2  18
HETATM   18  C   UNL     1      40.792 -14.363   4.930  1.00  0.00     0.198 C 
BRANCH  18  19
HETATM   19  C   UNL     1      40.889 -14.688   3.489  1.00  0.00     0.070 A 
HETATM   20  O   UNL     1      41.890 -14.054   2.811  1.00  0.00    -0.325 OA
HETATM   21  C   UNL     1      41.846 -14.494   1.529  1.00  0.00     0.142 A 
HETATM   22  C   UNL     1      40.832 -15.409   1.371  1.00  0.00     0.027 A 
HETATM   23  C   UNL     1      40.215 -15.539   2.638  1.00  0.00     0.036 A 
ENDBRANCH  18  19
ENDBRANCH   2  18
BRANCH   3  24
HETATM   24  S   UNL     1      41.505 -11.321   5.809  1.00  0.00    -0.081 SA
BRANCH  24  25
HETATM   25  C   UNL     1      42.250 -10.584   4.325  1.00  0.00     0.185 C 
BRANCH  25  26
HETATM   26  C   UNL     1      41.235 -10.240   3.246  1.00  0.00     0.227 C 
HETATM   27  N   UNL     1      40.871 -11.277   2.419  1.00  0.00    -0.356 N 
HETATM   28  H   UNL     1      41.299 -12.189   2.575  1.00  0.00     0.162 HD
HETATM   29  O   UNL     1      40.846  -9.085   3.082  1.00  0.00    -0.273 OA
BRANCH  27  30
HETATM   30  C   UNL     1      40.110 -11.084   1.206  1.00  0.00     0.084 C 
HETATM   31  C   UNL     1      40.936 -11.368  -0.043  1.00  0.00     0.025 C 
HETATM   32  C   UNL     1      39.896 -11.518  -1.144  1.00  0.00     0.002 C 
HETATM   33  C   UNL     1      38.621 -11.998  -0.452  1.00  0.00     0.002 C 
HETATM   34  C   UNL     1      38.936 -12.046   1.041  1.00  0.00     0.025 C 
ENDBRANCH  27  30
ENDBRANCH  25  26
ENDBRANCH  24  25
ENDBRANCH   3  24
TORSDOF 8
ENDMDL
MODEL 7
REMARK VINA RESULT:      -8.6      2.498      8.248
REMARK  8 active torsions:
REMARK  status: ('A' for Active; 'I' for Inactive)
REMARK    1  A    between atoms: C_8  and  C_9 
REMARK    2  A    between atoms: N_10  and  C_11 
REMARK    3  A    between atoms: C_11  and  C_12 
REMARK    4  A    between atoms: C_17  and  S_18 
REMARK    5  A    between atoms: S_18  and  C_19 
REMARK    6  A    between atoms: C_19  and  C_20 
REMARK       I    between atoms: C_20  and  N_21 
REMARK    7  A    between atoms: N_21  and  C_22 
REMARK    8  A    between atoms: C_30  and  O_31 
ROOT
HETATM    1  C   UNL     1      40.908 -14.347   5.406  1.00  0.00     0.167 A 
HETATM    2  N   UNL     1      40.928 -13.105   4.788  1.00  0.00    -0.301 N 
HETATM    3  C   UNL     1      39.987 -12.358   5.453  1.00  0.00     0.192 A 
HETATM    4  N   UNL     1      39.426 -13.072   6.394  1.00  0.00    -0.122 NA
HETATM    5  N   UNL     1      40.003 -14.302   6.375  1.00  0.00    -0.128 NA
ENDROOT
BRANCH   1   6
HETATM    6  C   UNL     1      41.751 -15.534   5.184  1.00  0.00     0.046 A 
HETATM    7  C   UNL     1      41.859 -16.182   3.946  1.00  0.00     0.030 A 
HETATM    8  C   UNL     1      42.658 -17.333   3.778  1.00  0.00    -0.025 A 
HETATM    9  C   UNL     1      42.773 -17.970   2.531  1.00  0.00     0.012 A 
HETATM   10  C   UNL     1      43.354 -17.867   4.884  1.00  0.00    -0.023 A 
HETATM   11  C   UNL     1      43.556 -19.117   2.383  1.00  0.00     0.001 A 
HETATM   12  C   UNL     1      44.233 -19.645   3.478  1.00  0.00     0.001 A 
HETATM   13  C   UNL     1      44.133 -19.023   4.722  1.00  0.00     0.012 A 
HETATM   14  C   UNL     1      43.239 -17.238   6.128  1.00  0.00     0.049 A 
HETATM   15  C   UNL     1      42.445 -16.101   6.271  1.00  0.00     0.080 A 
BRANCH  15  16
HETATM   16  O   UNL     1      42.382 -15.587   7.544  1.00  0.00    -0.360 OA
HETATM   17  H   UNL     1      42.341 -16.337   8.174  1.00  0.00     0.217 HD
ENDBRANCH  15  16
ENDBRANCH   1   6
BRANCH   2  18
HETATM   18  C   UNL     1      41.711 -12.671   3.646  1.00  0.00     0.198 C 
BRANCH  18  19
HETATM   19  C   UNL     1      41.025 -12.887   2.353  1.00  0.00     0.070 A 
HETATM   20  O   UNL     1      41.417 -12.063   1.337  1.00  0.00    -0.325 OA
HETATM   21  C   UNL     1      40.712 -12.424   0.235  1.00  0.00     0.142 A 
HETATM   22  C   UNL     1      39.872 -13.473   0.526  1.00  0.00     0.027 A 
HETATM   23  C   UNL     1      40.076 -13.776   1.894  1.00  0.00     0.036 A 
ENDBRANCH  18  19
ENDBRANCH   2  18
BRANCH   3  24
HETATM   24  S   UNL     1      39.587 -10.710   5.121  1.00  0.00    -0.081 SA
BRANCH  24  25
HETATM   25  C   UNL     1      40.262  -9.896   6.598  1.00  0.00     0.185 C 
BRANCH  25  26
HETATM   26  C   UNL     1      41.761 -10.086   6.763  1.00  0.00     0.227 C 
HETATM   27  N   UNL     1      42.213 -10.150   8.060  1.00  0.00    -0.356 N 
HETATM   28  H   UNL     1      41.531 -10.063   8.813  1.00  0.00     0.162 HD
HETATM   29  O   UNL     1      42.514 -10.091   5.791  1.00  0.00    -0.273 OA
BRANCH  27  30
HETATM   30  C   UNL     1      43.615 -10.091   8.407  1.00  0.00     0.084 C 
HETATM   31  C   UNL     1      44.156  -8.667   8.373  1.00  0.00     0.025 C 
HETATM   32  C   UNL     1      45.468  -8.755   9.141  1.00  0.00     0.002 C 
HETATM   33  C   UNL     1      45.303  -9.920  10.117  1.00  0.00     0.002 C 
HETATM   34  C   UNL     1      43.928 -10.521   9.838  1.00  0.00     0.025 C 
ENDBRANCH  27  30
ENDBRANCH  25  26
ENDBRANCH  24  25
ENDBRANCH   3  24
TORSDOF 8
ENDMDL
MODEL 8
REMARK VINA RESULT:      -8.4      2.842      4.363
REMARK  8 active torsions:
REMARK  status: ('A' for Active; 'I' for Inactive)
REMARK    1  A    between atoms: C_8  and  C_9 
REMARK    2  A    between atoms: N_10  and  C_11 
REMARK    3  A    between atoms: C_11  and  C_12 
REMARK    4  A    between atoms: C_17  and  S_18 
REMARK    5  A    between atoms: S_18  and  C_19 
REMARK    6  A    between atoms: C_19  and  C_20 
REMARK       I    between atoms: C_20  and  N_21 
REMARK    7  A    between atoms: N_21  and  C_22 
REMARK    8  A    between atoms: C_30  and  O_31 
ROOT
HETATM    1  C   UNL     1      43.892 -10.285   8.720  1.00  0.00     0.167 A 
HETATM    2  N   UNL     1      43.353 -10.191   7.445  1.00  0.00    -0.301 N 
HETATM    3  C   UNL     1      44.057 -11.095   6.689  1.00  0.00     0.192 A 
HETATM    4  N   UNL     1      44.960 -11.692   7.423  1.00  0.00    -0.122 NA
HETATM    5  N   UNL     1      44.853 -11.200   8.686  1.00  0.00    -0.128 NA
ENDROOT
BRANCH   1   6
HETATM    6  C   UNL     1      43.496  -9.622   9.973  1.00  0.00     0.046 A 
HETATM    7  C   UNL     1      43.232  -8.249  10.069  1.00  0.00     0.030 A 
HETATM    8  C   UNL     1      42.878  -7.644  11.293  1.00  0.00    -0.025 A 
HETATM    9  C   UNL     1      42.602  -6.269  11.379  1.00  0.00     0.012 A 
HETATM   10  C   UNL     1      42.806  -8.430  12.464  1.00  0.00    -0.023 A 
HETATM   11  C   UNL     1      42.268  -5.682  12.602  1.00  0.00     0.001 A 
HETATM   12  C   UNL     1      42.206  -6.458  13.755  1.00  0.00     0.001 A 
HETATM   13  C   UNL     1      42.473  -7.825  13.687  1.00  0.00     0.012 A 
HETATM   14  C   UNL     1      43.083  -9.798  12.383  1.00  0.00     0.049 A 
HETATM   15  C   UNL     1      43.430 -10.375  11.162  1.00  0.00     0.080 A 
BRANCH  15  16
HETATM   16  O   UNL     1      43.711 -11.719  11.209  1.00  0.00    -0.360 OA
HETATM   17  H   UNL     1      42.952 -12.175  11.629  1.00  0.00     0.217 HD
ENDBRANCH  15  16
ENDBRANCH   1   6
BRANCH   2  18
HETATM   18  C   UNL     1      42.313  -9.301   6.963  1.00  0.00     0.198 C 
BRANCH  18  19
HETATM   19  C   UNL     1      40.950  -9.736   7.343  1.00  0.00     0.070 A 
HETATM   20  O   UNL     1      40.329 -10.563   6.453  1.00  0.00    -0.325 OA
HETATM   21  C   UNL     1      39.119 -10.880   6.978  1.00  0.00     0.142 A 
HETATM   22  C   UNL     1      38.952 -10.271   8.199  1.00  0.00     0.027 A 
HETATM   23  C   UNL     1      40.137  -9.533   8.439  1.00  0.00     0.036 A 
ENDBRANCH  18  19
ENDBRANCH   2  18
BRANCH   3  24
HETATM   24  S   UNL     1      43.804 -11.422   5.011  1.00  0.00    -0.081 SA
BRANCH  24  25
HETATM   25  C   UNL     1      42.678 -12.844   5.112  1.00  0.00     0.185 C 
BRANCH  25  26
HETATM   26  C   UNL     1      42.911 -13.879   4.024  1.00  0.00     0.227 C 
HETATM   27  N   UNL     1      42.956 -15.188   4.447  1.00  0.00    -0.356 N 
HETATM   28  H   UNL     1      42.838 -15.375   5.442  1.00  0.00     0.162 HD
HETATM   29  O   UNL     1      43.132 -13.544   2.862  1.00  0.00    -0.273 OA
BRANCH  27  30
HETATM   30  C   UNL     1      43.399 -16.272   3.601  1.00  0.00     0.084 C 
HETATM   31  C   UNL     1      43.866 -17.477   4.408  1.00  0.00     0.025 C 
HETATM   32  C   UNL     1      43.889 -18.612   3.393  1.00  0.00     0.002 C 
HETATM   33  C   UNL     1      42.849 -18.246   2.335  1.00  0.00     0.002 C 
HETATM   34  C   UNL     1      42.302 -16.876   2.727  1.00  0.00     0.025 C 
ENDBRANCH  27  30
ENDBRANCH  25  26
ENDBRANCH  24  25
ENDBRANCH   3  24
TORSDOF 8
ENDMDL
MODEL 9
REMARK VINA RESULT:      -8.4      3.006      8.721
REMARK  8 active torsions:
REMARK  status: ('A' for Active; 'I' for Inactive)
REMARK    1  A    between atoms: C_8  and  C_9 
REMARK    2  A    between atoms: N_10  and  C_11 
REMARK    3  A    between atoms: C_11  and  C_12 
REMARK    4  A    between atoms: C_17  and  S_18 
REMARK    5  A    between atoms: S_18  and  C_19 
REMARK    6  A    between atoms: C_19  and  C_20 
REMARK       I    between atoms: C_20  and  N_21 
REMARK    7  A    between atoms: N_21  and  C_22 
REMARK    8  A    between atoms: C_30  and  O_31 
ROOT
HETATM    1  C   UNL     1      42.697 -14.109   5.134  1.00  0.00     0.167 A 
HETATM    2  N   UNL     1      41.519 -13.453   4.809  1.00  0.00    -0.301 N 
HETATM    3  C   UNL     1      41.763 -12.126   5.061  1.00  0.00     0.192 A 
HETATM    4  N   UNL     1      42.981 -11.969   5.512  1.00  0.00    -0.122 NA
HETATM    5  N   UNL     1      43.566 -13.195   5.547  1.00  0.00    -0.128 NA
ENDROOT
BRANCH   1   6
HETATM    6  C   UNL     1      43.068 -15.527   4.998  1.00  0.00     0.046 A 
HETATM    7  C   UNL     1      43.009 -16.225   3.784  1.00  0.00     0.030 A 
HETATM    8  C   UNL     1      43.349 -17.592   3.697  1.00  0.00    -0.025 A 
HETATM    9  C   UNL     1      43.302 -18.283   2.474  1.00  0.00     0.012 A 
HETATM   10  C   UNL     1      43.738 -18.290   4.860  1.00  0.00    -0.023 A 
HETATM   11  C   UNL     1      43.626 -19.639   2.406  1.00  0.00     0.001 A 
HETATM   12  C   UNL     1      44.000 -20.325   3.556  1.00  0.00     0.001 A 
HETATM   13  C   UNL     1      44.057 -19.655   4.778  1.00  0.00     0.012 A 
HETATM   14  C   UNL     1      43.783 -17.607   6.080  1.00  0.00     0.049 A 
HETATM   15  C   UNL     1      43.445 -16.256   6.143  1.00  0.00     0.080 A 
BRANCH  15  16
HETATM   16  O   UNL     1      43.495 -15.698   7.398  1.00  0.00    -0.360 OA
HETATM   17  H   UNL     1      43.229 -14.758   7.324  1.00  0.00     0.217 HD
ENDBRANCH  15  16
ENDBRANCH   1   6
BRANCH   2  18
HETATM   18  C   UNL     1      40.261 -14.019   4.356  1.00  0.00     0.198 C 
BRANCH  18  19
HETATM   19  C   UNL     1      40.271 -14.391   2.924  1.00  0.00     0.070 A 
HETATM   20  O   UNL     1      40.904 -13.510   2.094  1.00  0.00    -0.325 OA
HETATM   21  C   UNL     1      40.841 -14.026   0.841  1.00  0.00     0.142 A 
HETATM   22  C   UNL     1      40.179 -15.231   0.851  1.00  0.00     0.027 A 
HETATM   23  C   UNL     1      39.813 -15.471   2.198  1.00  0.00     0.036 A 
ENDBRANCH  18  19
ENDBRANCH   2  18
BRANCH   3  24
HETATM   24  S   UNL     1      40.646 -10.830   4.821  1.00  0.00    -0.081 SA
BRANCH  24  25
HETATM   25  C   UNL     1      39.676 -10.935   6.353  1.00  0.00     0.185 C 
BRANCH  25  26
HETATM   26  C   UNL     1      40.256 -10.115   7.494  1.00  0.00     0.227 C 
HETATM   27  N   UNL     1      39.537 -10.134   8.667  1.00  0.00    -0.356 N 
HETATM   28  H   UNL     1      38.677 -10.682   8.695  1.00  0.00     0.162 HD
HETATM   29  O   UNL     1      41.254  -9.415   7.333  1.00  0.00    -0.273 OA
BRANCH  27  30
HETATM   30  C   UNL     1      39.806  -9.238   9.767  1.00  0.00     0.084 C 
HETATM   31  C   UNL     1      38.741  -8.155   9.899  1.00  0.00     0.025 C 
HETATM   32  C   UNL     1      38.957  -7.596  11.299  1.00  0.00     0.002 C 
HETATM   33  C   UNL     1      39.574  -8.735  12.112  1.00  0.00     0.002 C 
HETATM   34  C   UNL     1      39.764  -9.899  11.143  1.00  0.00     0.025 C 
ENDBRANCH  27  30
ENDBRANCH  25  26
ENDBRANCH  24  25
ENDBRANCH   3  24
TORSDOF 8
ENDMDL
MODEL 10
REMARK VINA RESULT:      -8.4      2.324      7.864
REMARK  8 active torsions:
REMARK  status: ('A' for Active; 'I' for Inactive)
REMARK    1  A    between atoms: C_8  and  C_9 
REMARK    2  A    between atoms: N_10  and  C_11 
REMARK    3  A    between atoms: C_11  and  C_12 
REMARK    4  A    between atoms: C_17  and  S_18 
REMARK    5  A    between atoms: S_18  and  C_19 
REMARK    6  A    between atoms: C_19  and  C_20 
REMARK       I    between atoms: C_20  and  N_21 
REMARK    7  A    between atoms: N_21  and  C_22 
REMARK    8  A    between atoms: C_30  and  O_31 
ROOT
HETATM    1  C   UNL     1      42.854 -13.949   3.372  1.00  0.00     0.167 A 
HETATM    2  N   UNL     1      41.714 -13.201   3.117  1.00  0.00    -0.301 N 
HETATM    3  C   UNL     1      42.111 -11.891   3.226  1.00  0.00     0.192 A 
HETATM    4  N   UNL     1      43.382 -11.828   3.531  1.00  0.00    -0.122 NA
HETATM    5  N   UNL     1      43.847 -13.103   3.610  1.00  0.00    -0.128 NA
ENDROOT
BRANCH   1   6
HETATM    6  C   UNL     1      43.069 -15.405   3.320  1.00  0.00     0.046 A 
HETATM    7  C   UNL     1      43.278 -16.194   4.460  1.00  0.00     0.030 A 
HETATM    8  C   UNL     1      43.506 -17.583   4.369  1.00  0.00    -0.025 A 
HETATM    9  C   UNL     1      43.700 -18.371   5.517  1.00  0.00     0.012 A 
HETATM   10  C   UNL     1      43.548 -18.202   3.101  1.00  0.00    -0.023 A 
HETATM   11  C   UNL     1      43.940 -19.743   5.410  1.00  0.00     0.001 A 
HETATM   12  C   UNL     1      43.990 -20.347   4.158  1.00  0.00     0.001 A 
HETATM   13  C   UNL     1      43.795 -19.581   3.008  1.00  0.00     0.012 A 
HETATM   14  C   UNL     1      43.359 -17.421   1.956  1.00  0.00     0.049 A 
HETATM   15  C   UNL     1      43.134 -16.050   2.070  1.00  0.00     0.080 A 
BRANCH  15  16
HETATM   16  O   UNL     1      42.993 -15.379   0.878  1.00  0.00    -0.360 OA
HETATM   17  H   UNL     1      43.797 -14.838   0.736  1.00  0.00     0.217 HD
ENDBRANCH  15  16
ENDBRANCH   1   6
BRANCH   2  18
HETATM   18  C   UNL     1      40.365 -13.665   2.850  1.00  0.00     0.198 C 
BRANCH  18  19
HETATM   19  C   UNL     1      40.047 -13.734   1.407  1.00  0.00     0.070 A 
HETATM   20  O   UNL     1      40.040 -14.988   0.867  1.00  0.00    -0.325 OA
HETATM   21  C   UNL     1      39.701 -14.859  -0.440  1.00  0.00     0.142 A 
HETATM   22  C   UNL     1      39.483 -13.537  -0.751  1.00  0.00     0.027 A 
HETATM   23  C   UNL     1      39.703 -12.809   0.443  1.00  0.00     0.036 A 
ENDBRANCH  18  19
ENDBRANCH   2  18
BRANCH   3  24
HETATM   24  S   UNL     1      41.102 -10.508   2.993  1.00  0.00    -0.081 SA
BRANCH  24  25
HETATM   25  C   UNL     1      40.289 -10.409   4.614  1.00  0.00     0.185 C 
BRANCH  25  26
HETATM   26  C   UNL     1      41.101 -11.031   5.738  1.00  0.00     0.227 C 
HETATM   27  N   UNL     1      42.185 -10.299   6.165  1.00  0.00    -0.356 N 
HETATM   28  H   UNL     1      42.373  -9.407   5.707  1.00  0.00     0.162 HD
HETATM   29  O   UNL     1      40.845 -12.156   6.164  1.00  0.00    -0.273 OA
BRANCH  27  30
HETATM   30  C   UNL     1      43.196 -10.833   7.048  1.00  0.00     0.084 C 
HETATM   31  C   UNL     1      44.561 -10.917   6.375  1.00  0.00     0.025 C 
HETATM   32  C   UNL     1      45.531 -11.093   7.536  1.00  0.00     0.002 C 
HETATM   33  C   UNL     1      44.861 -10.437   8.743  1.00  0.00     0.002 C 
HETATM   34  C   UNL     1      43.490  -9.962   8.267  1.00  0.00     0.025 C 
ENDBRANCH  27  30
ENDBRANCH  25  26
ENDBRANCH  24  25
ENDBRANCH   3  24
TORSDOF 8
ENDMDL
