MODEL 1
REMARK VINA RESULT:      -9.2      0.000      0.000
REMARK  2 active torsions:
REMARK  status: ('A' for Active; 'I' for Inactive)
REMARK    1  A    between atoms: C_4  and  C_5 
REMARK    2  A    between atoms: N_11  and  C_12 
ROOT
HETATM    1  C   UNL     1      43.669 -12.122   6.905  1.00  0.00     0.069 A 
HETATM    2  N   UNL     1      44.295 -13.346   6.749  1.00  0.00    -0.343 N 
HETATM    3  C   UNL     1      43.705 -14.375   6.072  1.00  0.00     0.119 A 
HETATM    4  C   UNL     1      42.518 -14.209   5.464  1.00  0.00     0.125 A 
HETATM    5  C   UNL     1      42.219 -15.468   4.763  1.00  0.00     0.280 A 
HETATM    6  O   UNL     1      41.228 -15.675   4.086  1.00  0.00    -0.265 OA
HETATM    7  N   UNL     1      43.304 -16.314   5.042  1.00  0.00    -0.236 N 
HETATM    8  N   UNL     1      44.214 -15.645   5.888  1.00  0.00    -0.179 NA
HETATM    9  C   UNL     1      41.804 -12.928   5.527  1.00  0.00     0.215 A 
HETATM   10  O   UNL     1      40.737 -12.748   4.952  1.00  0.00    -0.285 OA
HETATM   11  C   UNL     1      42.471 -11.848   6.342  1.00  0.00     0.112 A 
HETATM   12 CL   UNL     1      41.642 -10.344   6.492  1.00  0.00    -0.077 Cl
HETATM   13  H   UNL     1      45.117 -13.542   7.313  1.00  0.00     0.167 HD
HETATM   14  H   UNL     1      45.154 -15.603   5.493  1.00  0.00     0.155 HD
ENDROOT
BRANCH   7  15
HETATM   15  C   UNL     1      43.529 -17.652   4.654  1.00  0.00     0.055 A 
HETATM   16  C   UNL     1      43.759 -18.657   5.607  1.00  0.00     0.034 A 
HETATM   17  C   UNL     1      43.970 -19.984   5.215  1.00  0.00     0.044 A 
HETATM   18  C   UNL     1      43.955 -20.313   3.868  1.00  0.00     0.116 A 
HETATM   19  F   UNL     1      44.156 -21.583   3.492  1.00  0.00    -0.206 F 
HETATM   20  C   UNL     1      43.736 -19.340   2.903  1.00  0.00     0.044 A 
HETATM   21  C   UNL     1      43.524 -18.015   3.296  1.00  0.00     0.034 A 
ENDBRANCH   7  15
BRANCH   1  22
HETATM   22  C   UNL     1      44.397 -11.140   7.727  1.00  0.00    -0.008 A 
HETATM   23  C   UNL     1      45.550 -10.521   7.229  1.00  0.00     0.014 A 
HETATM   24  C   UNL     1      46.234  -9.583   8.006  1.00  0.00     0.001 A 
HETATM   25  C   UNL     1      45.768  -9.261   9.280  1.00  0.00     0.000 A 
HETATM   26  C   UNL     1      44.619  -9.872   9.780  1.00  0.00     0.001 A 
HETATM   27  C   UNL     1      43.934 -10.809   9.006  1.00  0.00     0.014 A 
ENDBRANCH   1  22
TORSDOF 2
ENDMDL
MODEL 2
REMARK VINA RESULT:      -8.9      0.545      1.096
REMARK  2 active torsions:
REMARK  status: ('A' for Active; 'I' for Inactive)
REMARK    1  A    between atoms: C_4  and  C_5 
REMARK    2  A    between atoms: N_11  and  C_12 
ROOT
HETATM    1  C   UNL     1      43.620 -11.830   6.954  1.00  0.00     0.069 A 
HETATM    2  N   UNL     1      44.190 -13.080   6.789  1.00  0.00    -0.343 N 
HETATM    3  C   UNL     1      43.631 -14.025   5.976  1.00  0.00     0.119 A 
HETATM    4  C   UNL     1      42.540 -13.744   5.244  1.00  0.00     0.125 A 
HETATM    5  C   UNL     1      42.259 -14.935   4.426  1.00  0.00     0.280 A 
HETATM    6  O   UNL     1      41.349 -15.034   3.623  1.00  0.00    -0.265 OA
HETATM    7  N   UNL     1      43.251 -15.866   4.773  1.00  0.00    -0.236 N 
HETATM    8  N   UNL     1      44.086 -15.311   5.766  1.00  0.00    -0.179 NA
HETATM    9  C   UNL     1      41.897 -12.425   5.309  1.00  0.00     0.215 A 
HETATM   10  O   UNL     1      40.922 -12.142   4.625  1.00  0.00    -0.285 OA
HETATM   11  C   UNL     1      42.519 -11.444   6.272  1.00  0.00     0.112 A 
HETATM   12 CL   UNL     1      41.765  -9.902   6.426  1.00  0.00    -0.077 Cl
HETATM   13  H   UNL     1      44.923 -13.364   7.433  1.00  0.00     0.167 HD
HETATM   14  H   UNL     1      45.067 -15.306   5.490  1.00  0.00     0.155 HD
ENDROOT
BRANCH   7  15
HETATM   15  C   UNL     1      43.445 -17.189   4.322  1.00  0.00     0.055 A 
HETATM   16  C   UNL     1      43.154 -17.557   2.999  1.00  0.00     0.034 A 
HETATM   17  C   UNL     1      43.360 -18.868   2.556  1.00  0.00     0.044 A 
HETATM   18  C   UNL     1      43.855 -19.820   3.434  1.00  0.00     0.116 A 
HETATM   19  F   UNL     1      44.053 -21.074   3.011  1.00  0.00    -0.206 F 
HETATM   20  C   UNL     1      44.147 -19.487   4.749  1.00  0.00     0.044 A 
HETATM   21  C   UNL     1      43.942 -18.176   5.191  1.00  0.00     0.034 A 
ENDBRANCH   7  15
BRANCH   1  22
HETATM   22  C   UNL     1      44.295 -10.951   7.923  1.00  0.00    -0.008 A 
HETATM   23  C   UNL     1      45.436 -10.230   7.547  1.00  0.00     0.014 A 
HETATM   24  C   UNL     1      46.069  -9.390   8.465  1.00  0.00     0.001 A 
HETATM   25  C   UNL     1      45.566  -9.266   9.759  1.00  0.00     0.000 A 
HETATM   26  C   UNL     1      44.430  -9.978  10.139  1.00  0.00     0.001 A 
HETATM   27  C   UNL     1      43.795 -10.818   9.224  1.00  0.00     0.014 A 
ENDBRANCH   1  22
TORSDOF 2
ENDMDL
MODEL 3
REMARK VINA RESULT:      -8.6      5.373      8.570
REMARK  2 active torsions:
REMARK  status: ('A' for Active; 'I' for Inactive)
REMARK    1  A    between atoms: C_4  and  C_5 
REMARK    2  A    between atoms: N_11  and  C_12 
ROOT
HETATM    1  C   UNL     1      42.987 -16.715   3.026  1.00  0.00     0.069 A 
HETATM    2  N   UNL     1      42.386 -16.431   1.812  1.00  0.00    -0.343 N 
HETATM    3  C   UNL     1      41.936 -15.178   1.507  1.00  0.00     0.119 A 
HETATM    4  C   UNL     1      42.131 -14.152   2.353  1.00  0.00     0.125 A 
HETATM    5  C   UNL     1      41.611 -12.947   1.686  1.00  0.00     0.280 A 
HETATM    6  O   UNL     1      41.638 -11.822   2.152  1.00  0.00    -0.265 OA
HETATM    7  N   UNL     1      41.120 -13.392   0.448  1.00  0.00    -0.236 N 
HETATM    8  N   UNL     1      41.290 -14.789   0.351  1.00  0.00    -0.179 NA
HETATM    9  C   UNL     1      42.809 -14.345   3.641  1.00  0.00     0.215 A 
HETATM   10  O   UNL     1      43.024 -13.415   4.409  1.00  0.00    -0.285 OA
HETATM   11  C   UNL     1      43.226 -15.761   3.953  1.00  0.00     0.112 A 
HETATM   12 CL   UNL     1      43.974 -16.047   5.479  1.00  0.00    -0.077 Cl
HETATM   13  H   UNL     1      42.100 -17.208   1.223  1.00  0.00     0.167 HD
HETATM   14  H   UNL     1      41.829 -15.059  -0.471  1.00  0.00     0.155 HD
ENDROOT
BRANCH   7  15
HETATM   15  C   UNL     1      40.481 -12.669  -0.582  1.00  0.00     0.055 A 
HETATM   16  C   UNL     1      41.173 -11.701  -1.328  1.00  0.00     0.034 A 
HETATM   17  C   UNL     1      40.537 -10.996  -2.356  1.00  0.00     0.044 A 
HETATM   18  C   UNL     1      39.204 -11.252  -2.642  1.00  0.00     0.116 A 
HETATM   19  F   UNL     1      38.595 -10.578  -3.625  1.00  0.00    -0.206 F 
HETATM   20  C   UNL     1      38.493 -12.198  -1.918  1.00  0.00     0.044 A 
HETATM   21  C   UNL     1      39.130 -12.904  -0.892  1.00  0.00     0.034 A 
ENDBRANCH   7  15
BRANCH   1  22
HETATM   22  C   UNL     1      43.346 -18.128   3.239  1.00  0.00    -0.008 A 
HETATM   23  C   UNL     1      43.847 -18.550   4.476  1.00  0.00     0.014 A 
HETATM   24  C   UNL     1      44.177 -19.891   4.679  1.00  0.00     0.001 A 
HETATM   25  C   UNL     1      44.008 -20.814   3.648  1.00  0.00     0.000 A 
HETATM   26  C   UNL     1      43.507 -20.401   2.414  1.00  0.00     0.001 A 
HETATM   27  C   UNL     1      43.176 -19.061   2.209  1.00  0.00     0.014 A 
ENDBRANCH   1  22
TORSDOF 2
ENDMDL
MODEL 4
REMARK VINA RESULT:      -8.6      3.375      8.009
REMARK  2 active torsions:
REMARK  status: ('A' for Active; 'I' for Inactive)
REMARK    1  A    between atoms: C_4  and  C_5 
REMARK    2  A    between atoms: N_11  and  C_12 
ROOT
HETATM    1  C   UNL     1      43.037 -16.687   4.140  1.00  0.00     0.069 A 
HETATM    2  N   UNL     1      43.809 -16.093   5.124  1.00  0.00    -0.343 N 
HETATM    3  C   UNL     1      43.678 -14.771   5.441  1.00  0.00     0.119 A 
HETATM    4  C   UNL     1      42.735 -14.012   4.856  1.00  0.00     0.125 A 
HETATM    5  C   UNL     1      42.809 -12.683   5.483  1.00  0.00     0.280 A 
HETATM    6  O   UNL     1      42.087 -11.740   5.214  1.00  0.00    -0.265 OA
HETATM    7  N   UNL     1      43.850 -12.773   6.421  1.00  0.00    -0.236 N 
HETATM    8  N   UNL     1      44.416 -14.065   6.370  1.00  0.00    -0.179 NA
HETATM    9  C   UNL     1      41.831 -14.569   3.842  1.00  0.00     0.215 A 
HETATM   10  O   UNL     1      40.945 -13.901   3.322  1.00  0.00    -0.285 OA
HETATM   11  C   UNL     1      42.064 -16.016   3.484  1.00  0.00     0.112 A 
HETATM   12 CL   UNL     1      41.065 -16.698   2.256  1.00  0.00    -0.077 Cl
HETATM   13  H   UNL     1      44.616 -16.600   5.474  1.00  0.00     0.167 HD
HETATM   14  H   UNL     1      44.398 -14.534   7.275  1.00  0.00     0.155 HD
ENDROOT
BRANCH   7  15
HETATM   15  C   UNL     1      44.378 -11.787   7.282  1.00  0.00     0.055 A 
HETATM   16  C   UNL     1      43.663 -11.344   8.405  1.00  0.00     0.034 A 
HETATM   17  C   UNL     1      44.198 -10.374   9.261  1.00  0.00     0.044 A 
HETATM   18  C   UNL     1      45.450  -9.840   8.996  1.00  0.00     0.116 A 
HETATM   19  F   UNL     1      45.962  -8.912   9.815  1.00  0.00    -0.206 F 
HETATM   20  C   UNL     1      46.178 -10.254   7.890  1.00  0.00     0.044 A 
HETATM   21  C   UNL     1      45.643 -11.225   7.036  1.00  0.00     0.034 A 
ENDBRANCH   7  15
BRANCH   1  22
HETATM   22  C   UNL     1      43.349 -18.098   3.858  1.00  0.00    -0.008 A 
HETATM   23  C   UNL     1      43.251 -18.595   2.553  1.00  0.00     0.014 A 
HETATM   24  C   UNL     1      43.557 -19.931   2.285  1.00  0.00     0.001 A 
HETATM   25  C   UNL     1      43.963 -20.773   3.320  1.00  0.00     0.000 A 
HETATM   26  C   UNL     1      44.065 -20.284   4.621  1.00  0.00     0.001 A 
HETATM   27  C   UNL     1      43.760 -18.949   4.891  1.00  0.00     0.014 A 
ENDBRANCH   1  22
TORSDOF 2
ENDMDL
MODEL 5
REMARK VINA RESULT:      -8.5      3.620      8.099
REMARK  2 active torsions:
REMARK  status: ('A' for Active; 'I' for Inactive)
REMARK    1  A    between atoms: C_4  and  C_5 
REMARK    2  A    between atoms: N_11  and  C_12 
ROOT
HETATM    1  C   UNL     1      43.178 -16.365   4.960  1.00  0.00     0.069 A 
HETATM    2  N   UNL     1      43.710 -15.539   5.935  1.00  0.00    -0.343 N 
HETATM    3  C   UNL     1      43.565 -14.182   5.886  1.00  0.00     0.119 A 
HETATM    4  C   UNL     1      42.831 -13.602   4.922  1.00  0.00     0.125 A 
HETATM    5  C   UNL     1      42.808 -12.159   5.213  1.00  0.00     0.280 A 
HETATM    6  O   UNL     1      42.218 -11.321   4.556  1.00  0.00    -0.265 OA
HETATM    7  N   UNL     1      43.580 -12.004   6.376  1.00  0.00    -0.236 N 
HETATM    8  N   UNL     1      44.082 -13.261   6.776  1.00  0.00    -0.179 NA
HETATM    9  C   UNL     1      42.181 -14.401   3.875  1.00  0.00     0.215 A 
HETATM   10  O   UNL     1      41.481 -13.893   3.008  1.00  0.00    -0.285 OA
HETATM   11  C   UNL     1      42.428 -15.888   3.942  1.00  0.00     0.112 A 
HETATM   12 CL   UNL     1      41.734 -16.861   2.701  1.00  0.00    -0.077 Cl
HETATM   13  H   UNL     1      44.382 -15.934   6.587  1.00  0.00     0.167 HD
HETATM   14  H   UNL     1      43.819 -13.498   7.732  1.00  0.00     0.155 HD
ENDROOT
BRANCH   7  15
HETATM   15  C   UNL     1      43.924 -10.832   7.082  1.00  0.00     0.055 A 
HETATM   16  C   UNL     1      45.255 -10.555   7.429  1.00  0.00     0.034 A 
HETATM   17  C   UNL     1      45.590  -9.385   8.119  1.00  0.00     0.044 A 
HETATM   18  C   UNL     1      44.594  -8.485   8.469  1.00  0.00     0.116 A 
HETATM   19  F   UNL     1      44.913  -7.365   9.129  1.00  0.00    -0.206 F 
HETATM   20  C   UNL     1      43.268  -8.735   8.145  1.00  0.00     0.044 A 
HETATM   21  C   UNL     1      42.935  -9.904   7.453  1.00  0.00     0.034 A 
ENDBRANCH   7  15
BRANCH   1  22
HETATM   22  C   UNL     1      43.486 -17.797   5.109  1.00  0.00    -0.008 A 
HETATM   23  C   UNL     1      43.225 -18.453   6.318  1.00  0.00     0.014 A 
HETATM   24  C   UNL     1      43.509 -19.813   6.454  1.00  0.00     0.001 A 
HETATM   25  C   UNL     1      44.053 -20.522   5.384  1.00  0.00     0.000 A 
HETATM   26  C   UNL     1      44.314 -19.876   4.177  1.00  0.00     0.001 A 
HETATM   27  C   UNL     1      44.030 -18.517   4.038  1.00  0.00     0.014 A 
ENDBRANCH   1  22
TORSDOF 2
ENDMDL
MODEL 6
REMARK VINA RESULT:      -8.3      4.812      6.802
REMARK  2 active torsions:
REMARK  status: ('A' for Active; 'I' for Inactive)
REMARK    1  A    between atoms: C_4  and  C_5 
REMARK    2  A    between atoms: N_11  and  C_12 
ROOT
HETATM    1  C   UNL     1      40.159 -12.868   0.402  1.00  0.00     0.069 A 
HETATM    2  N   UNL     1      40.993 -13.972   0.398  1.00  0.00    -0.343 N 
HETATM    3  C   UNL     1      41.293 -14.652   1.544  1.00  0.00     0.119 A 
HETATM    4  C   UNL     1      40.725 -14.314   2.713  1.00  0.00     0.125 A 
HETATM    5  C   UNL     1      41.191 -15.292   3.711  1.00  0.00     0.280 A 
HETATM    6  O   UNL     1      40.862 -15.307   4.883  1.00  0.00    -0.265 OA
HETATM    7  N   UNL     1      42.047 -16.156   3.010  1.00  0.00    -0.236 N 
HETATM    8  N   UNL     1      42.139 -15.736   1.666  1.00  0.00    -0.179 NA
HETATM    9  C   UNL     1      39.783 -13.192   2.806  1.00  0.00     0.215 A 
HETATM   10  O   UNL     1      39.231 -12.891   3.857  1.00  0.00    -0.285 OA
HETATM   11  C   UNL     1      39.539 -12.437   1.523  1.00  0.00     0.112 A 
HETATM   12 CL   UNL     1      38.486 -11.075   1.595  1.00  0.00    -0.077 Cl
HETATM   13  H   UNL     1      41.543 -14.157  -0.437  1.00  0.00     0.167 HD
HETATM   14  H   UNL     1      41.878 -16.472   1.010  1.00  0.00     0.155 HD
ENDROOT
BRANCH   7  15
HETATM   15  C   UNL     1      42.798 -17.256   3.476  1.00  0.00     0.055 A 
HETATM   16  C   UNL     1      43.219 -17.336   4.813  1.00  0.00     0.034 A 
HETATM   17  C   UNL     1      43.953 -18.436   5.271  1.00  0.00     0.044 A 
HETATM   18  C   UNL     1      44.275 -19.460   4.393  1.00  0.00     0.116 A 
HETATM   19  F   UNL     1      44.978 -20.513   4.831  1.00  0.00    -0.206 F 
HETATM   20  C   UNL     1      43.879 -19.406   3.065  1.00  0.00     0.044 A 
HETATM   21  C   UNL     1      43.143 -18.308   2.608  1.00  0.00     0.034 A 
ENDBRANCH   7  15
BRANCH   1  22
HETATM   22  C   UNL     1      39.995 -12.195  -0.898  1.00  0.00    -0.008 A 
HETATM   23  C   UNL     1      38.841 -12.408  -1.662  1.00  0.00     0.014 A 
HETATM   24  C   UNL     1      38.683 -11.762  -2.889  1.00  0.00     0.001 A 
HETATM   25  C   UNL     1      39.675 -10.901  -3.357  1.00  0.00     0.000 A 
HETATM   26  C   UNL     1      40.825 -10.683  -2.600  1.00  0.00     0.001 A 
HETATM   27  C   UNL     1      40.986 -11.327  -1.373  1.00  0.00     0.014 A 
ENDBRANCH   1  22
TORSDOF 2
ENDMDL
MODEL 7
REMARK VINA RESULT:      -8.1      2.257      3.086
REMARK  2 active torsions:
REMARK  status: ('A' for Active; 'I' for Inactive)
REMARK    1  A    between atoms: C_4  and  C_5 
REMARK    2  A    between atoms: N_11  and  C_12 
ROOT
HETATM    1  C   UNL     1      42.921 -10.254   7.608  1.00  0.00     0.069 A 
HETATM    2  N   UNL     1      43.228 -11.578   7.342  1.00  0.00    -0.343 N 
HETATM    3  C   UNL     1      42.934 -12.157   6.141  1.00  0.00     0.119 A 
HETATM    4  C   UNL     1      42.402 -11.435   5.140  1.00  0.00     0.125 A 
HETATM    5  C   UNL     1      42.299 -12.332   3.977  1.00  0.00     0.280 A 
HETATM    6  O   UNL     1      41.876 -12.012   2.881  1.00  0.00    -0.265 OA
HETATM    7  N   UNL     1      42.792 -13.570   4.419  1.00  0.00    -0.236 N 
HETATM    8  N   UNL     1      43.156 -13.471   5.779  1.00  0.00    -0.179 NA
HETATM    9  C   UNL     1      42.095 -10.010   5.309  1.00  0.00     0.215 A 
HETATM   10  O   UNL     1      41.640  -9.329   4.398  1.00  0.00    -0.285 OA
HETATM   11  C   UNL     1      42.378  -9.439   6.676  1.00  0.00     0.112 A 
HETATM   12 CL   UNL     1      41.980  -7.783   6.941  1.00  0.00    -0.077 Cl
HETATM   13  H   UNL     1      43.494 -12.176   8.119  1.00  0.00     0.167 HD
HETATM   14  H   UNL     1      44.128 -13.730   5.941  1.00  0.00     0.155 HD
ENDROOT
BRANCH   7  15
HETATM   15  C   UNL     1      42.896 -14.798   3.732  1.00  0.00     0.055 A 
HETATM   16  C   UNL     1      42.654 -16.019   4.382  1.00  0.00     0.034 A 
HETATM   17  C   UNL     1      42.747 -17.232   3.691  1.00  0.00     0.044 A 
HETATM   18  C   UNL     1      43.087 -17.232   2.346  1.00  0.00     0.116 A 
HETATM   19  F   UNL     1      43.176 -18.392   1.684  1.00  0.00    -0.206 F 
HETATM   20  C   UNL     1      43.338 -16.042   1.679  1.00  0.00     0.044 A 
HETATM   21  C   UNL     1      43.243 -14.829   2.370  1.00  0.00     0.034 A 
ENDBRANCH   7  15
BRANCH   1  22
HETATM   22  C   UNL     1      43.227  -9.797   8.974  1.00  0.00    -0.008 A 
HETATM   23  C   UNL     1      42.190  -9.456   9.852  1.00  0.00     0.014 A 
HETATM   24  C   UNL     1      42.481  -9.032  11.150  1.00  0.00     0.001 A 
HETATM   25  C   UNL     1      43.806  -8.949  11.576  1.00  0.00     0.000 A 
HETATM   26  C   UNL     1      44.842  -9.289  10.708  1.00  0.00     0.001 A 
HETATM   27  C   UNL     1      44.554  -9.713   9.410  1.00  0.00     0.014 A 
ENDBRANCH   1  22
TORSDOF 2
ENDMDL
MODEL 8
REMARK VINA RESULT:      -8.1      4.292      8.362
REMARK  2 active torsions:
REMARK  status: ('A' for Active; 'I' for Inactive)
REMARK    1  A    between atoms: C_4  and  C_5 
REMARK    2  A    between atoms: N_11  and  C_12 
ROOT
HETATM    1  C   UNL     1      42.318 -13.106   3.887  1.00  0.00     0.069 A 
HETATM    2  N   UNL     1      42.714 -13.046   5.212  1.00  0.00    -0.343 N 
HETATM    3  C   UNL     1      42.706 -11.874   5.913  1.00  0.00     0.119 A 
HETATM    4  C   UNL     1      42.238 -10.743   5.359  1.00  0.00     0.125 A 
HETATM    5  C   UNL     1      42.289  -9.706   6.402  1.00  0.00     0.280 A 
HETATM    6  O   UNL     1      41.922  -8.553   6.262  1.00  0.00    -0.265 OA
HETATM    7  N   UNL     1      42.821 -10.344   7.534  1.00  0.00    -0.236 N 
HETATM    8  N   UNL     1      43.115 -11.688   7.219  1.00  0.00    -0.179 NA
HETATM    9  C   UNL     1      41.743 -10.721   3.977  1.00  0.00     0.215 A 
HETATM   10  O   UNL     1      41.283  -9.706   3.467  1.00  0.00    -0.285 OA
HETATM   11  C   UNL     1      41.836 -12.027   3.229  1.00  0.00     0.112 A 
HETATM   12 CL   UNL     1      41.321 -12.036   1.585  1.00  0.00    -0.077 Cl
HETATM   13  H   UNL     1      43.202 -13.845   5.605  1.00  0.00     0.167 HD
HETATM   14  H   UNL     1      42.644 -12.345   7.841  1.00  0.00     0.155 HD
ENDROOT
BRANCH   7  15
HETATM   15  C   UNL     1      43.120  -9.820   8.809  1.00  0.00     0.055 A 
HETATM   16  C   UNL     1      42.135  -9.187   9.585  1.00  0.00     0.034 A 
HETATM   17  C   UNL     1      42.436  -8.680  10.854  1.00  0.00     0.044 A 
HETATM   18  C   UNL     1      43.724  -8.798  11.353  1.00  0.00     0.116 A 
HETATM   19  F   UNL     1      44.012  -8.313  12.567  1.00  0.00    -0.206 F 
HETATM   20  C   UNL     1      44.720  -9.412  10.607  1.00  0.00     0.044 A 
HETATM   21  C   UNL     1      44.418  -9.921   9.340  1.00  0.00     0.034 A 
ENDBRANCH   7  15
BRANCH   1  22
HETATM   22  C   UNL     1      42.458 -14.423   3.244  1.00  0.00    -0.008 A 
HETATM   23  C   UNL     1      43.374 -14.605   2.201  1.00  0.00     0.014 A 
HETATM   24  C   UNL     1      43.513 -15.858   1.599  1.00  0.00     0.001 A 
HETATM   25  C   UNL     1      42.739 -16.931   2.038  1.00  0.00     0.000 A 
HETATM   26  C   UNL     1      41.827 -16.757   3.077  1.00  0.00     0.001 A 
HETATM   27  C   UNL     1      41.686 -15.507   3.681  1.00  0.00     0.014 A 
ENDBRANCH   1  22
TORSDOF 2
ENDMDL
MODEL 9
REMARK VINA RESULT:      -7.9      2.393      3.041
REMARK  2 active torsions:
REMARK  status: ('A' for Active; 'I' for Inactive)
REMARK    1  A    between atoms: C_4  and  C_5 
REMARK    2  A    between atoms: N_11  and  C_12 
ROOT
HETATM    1  C   UNL     1      41.576 -11.792   5.240  1.00  0.00     0.069 A 
HETATM    2  N   UNL     1      41.865 -13.097   5.600  1.00  0.00    -0.343 N 
HETATM    3  C   UNL     1      42.207 -14.040   4.673  1.00  0.00     0.119 A 
HETATM    4  C   UNL     1      42.349 -13.712   3.377  1.00  0.00     0.125 A 
HETATM    5  C   UNL     1      42.804 -14.925   2.679  1.00  0.00     0.280 A 
HETATM    6  O   UNL     1      43.056 -14.996   1.490  1.00  0.00    -0.265 OA
HETATM    7  N   UNL     1      42.883 -15.916   3.671  1.00  0.00    -0.236 N 
HETATM    8  N   UNL     1      42.477 -15.373   4.908  1.00  0.00    -0.179 NA
HETATM    9  C   UNL     1      42.118 -12.340   2.909  1.00  0.00     0.215 A 
HETATM   10  O   UNL     1      42.274 -12.016   1.738  1.00  0.00    -0.285 OA
HETATM   11  C   UNL     1      41.680 -11.356   3.965  1.00  0.00     0.112 A 
HETATM   12 CL   UNL     1      41.341  -9.745   3.453  1.00  0.00    -0.077 Cl
HETATM   13  H   UNL     1      41.628 -13.401   6.539  1.00  0.00     0.167 HD
HETATM   14  H   UNL     1      43.190 -15.474   5.630  1.00  0.00     0.155 HD
ENDROOT
BRANCH   7  15
HETATM   15  C   UNL     1      43.234 -17.279   3.560  1.00  0.00     0.055 A 
HETATM   16  C   UNL     1      43.918 -17.940   4.593  1.00  0.00     0.034 A 
HETATM   17  C   UNL     1      44.252 -19.294   4.481  1.00  0.00     0.044 A 
HETATM   18  C   UNL     1      43.907 -19.994   3.334  1.00  0.00     0.116 A 
HETATM   19  F   UNL     1      44.226 -21.290   3.227  1.00  0.00    -0.206 F 
HETATM   20  C   UNL     1      43.237 -19.366   2.295  1.00  0.00     0.044 A 
HETATM   21  C   UNL     1      42.901 -18.013   2.408  1.00  0.00     0.034 A 
ENDBRANCH   7  15
BRANCH   1  22
HETATM   22  C   UNL     1      41.147 -10.914   6.341  1.00  0.00    -0.008 A 
HETATM   23  C   UNL     1      39.796 -10.848   6.705  1.00  0.00     0.014 A 
HETATM   24  C   UNL     1      39.392 -10.022   7.756  1.00  0.00     0.001 A 
HETATM   25  C   UNL     1      40.334  -9.261   8.447  1.00  0.00     0.000 A 
HETATM   26  C   UNL     1      41.680  -9.324   8.091  1.00  0.00     0.001 A 
HETATM   27  C   UNL     1      42.087 -10.149   7.041  1.00  0.00     0.014 A 
ENDBRANCH   1  22
TORSDOF 2
ENDMDL
MODEL 10
REMARK VINA RESULT:      -7.9      3.891      8.290
REMARK  2 active torsions:
REMARK  status: ('A' for Active; 'I' for Inactive)
REMARK    1  A    between atoms: C_4  and  C_5 
REMARK    2  A    between atoms: N_11  and  C_12 
ROOT
HETATM    1  C   UNL     1      42.292 -15.221   4.303  1.00  0.00     0.069 A 
HETATM    2  N   UNL     1      43.053 -14.399   5.116  1.00  0.00    -0.343 N 
HETATM    3  C   UNL     1      42.653 -13.132   5.434  1.00  0.00     0.119 A 
HETATM    4  C   UNL     1      41.461 -12.664   5.027  1.00  0.00     0.125 A 
HETATM    5  C   UNL     1      41.310 -11.321   5.611  1.00  0.00     0.280 A 
HETATM    6  O   UNL     1      40.338 -10.601   5.470  1.00  0.00    -0.265 OA
HETATM    7  N   UNL     1      42.490 -11.098   6.338  1.00  0.00    -0.236 N 
HETATM    8  N   UNL     1      43.344 -12.213   6.199  1.00  0.00    -0.179 NA
HETATM    9  C   UNL     1      40.560 -13.484   4.208  1.00  0.00     0.215 A 
HETATM   10  O   UNL     1      39.457 -13.085   3.856  1.00  0.00    -0.285 OA
HETATM   11  C   UNL     1      41.081 -14.849   3.833  1.00  0.00     0.112 A 
HETATM   12 CL   UNL     1      40.083 -15.826   2.824  1.00  0.00    -0.077 Cl
HETATM   13  H   UNL     1      44.011 -14.671   5.315  1.00  0.00     0.167 HD
HETATM   14  H   UNL     1      43.606 -12.617   7.098  1.00  0.00     0.155 HD
ENDROOT
BRANCH   7  15
HETATM   15  C   UNL     1      42.899  -9.963   7.071  1.00  0.00     0.055 A 
HETATM   16  C   UNL     1      42.135  -8.785   7.073  1.00  0.00     0.034 A 
HETATM   17  C   UNL     1      42.540  -7.668   7.812  1.00  0.00     0.044 A 
HETATM   18  C   UNL     1      43.713  -7.720   8.550  1.00  0.00     0.116 A 
HETATM   19  F   UNL     1      44.101  -6.652   9.257  1.00  0.00    -0.206 F 
HETATM   20  C   UNL     1      44.492  -8.869   8.562  1.00  0.00     0.044 A 
HETATM   21  C   UNL     1      44.085  -9.986   7.825  1.00  0.00     0.034 A 
ENDBRANCH   7  15
BRANCH   1  22
HETATM   22  C   UNL     1      42.894 -16.528   3.986  1.00  0.00    -0.008 A 
HETATM   23  C   UNL     1      43.413 -17.332   5.009  1.00  0.00     0.014 A 
HETATM   24  C   UNL     1      43.974 -18.574   4.708  1.00  0.00     0.001 A 
HETATM   25  C   UNL     1      44.019 -19.017   3.387  1.00  0.00     0.000 A 
HETATM   26  C   UNL     1      43.503 -18.223   2.365  1.00  0.00     0.001 A 
HETATM   27  C   UNL     1      42.940 -16.981   2.663  1.00  0.00     0.014 A 
ENDBRANCH   1  22
TORSDOF 2
ENDMDL
