MODEL 1
REMARK VINA RESULT:      -9.2      0.000      0.000
REMARK  5 active torsions:
REMARK  status: ('A' for Active; 'I' for Inactive)
REMARK    1  A    between atoms: C_5  and  N_6 
REMARK       I    between atoms: N_6  and  C_7 
REMARK       I    between atoms: C_7  and  N_8 
REMARK    2  A    between atoms: N_8  and  C_9 
REMARK    3  A    between atoms: C_11  and  C_12 
REMARK       I    between atoms: C_12  and  N_13 
REMARK    4  A    between atoms: N_13  and  C_14 
REMARK    5  A    between atoms: C_14  and  C_15 
ROOT
HETATM    1  C   UNL     1      44.490 -11.290   6.889  1.00  0.00     0.175 A 
HETATM    2  S   UNL     1      43.984 -11.330   5.269  1.00  0.00    -0.044 SA
HETATM    3  C   UNL     1      43.311 -12.892   5.530  1.00  0.00     0.100 A 
HETATM    4  C   UNL     1      43.558 -13.283   6.841  1.00  0.00     0.056 A 
HETATM    5  C   UNL     1      43.164 -14.568   7.481  1.00  0.00     0.072 C 
HETATM    6  N   UNL     1      44.236 -12.349   7.615  1.00  0.00    -0.228 NA
ENDROOT
BRANCH   1   7
HETATM    7  N   UNL     1      45.108 -10.141   7.279  1.00  0.00    -0.287 N 
HETATM    8  C   UNL     1      44.913  -9.477   8.459  1.00  0.00     0.326 C 
HETATM    9  N   UNL     1      44.040 -10.045   9.348  1.00  0.00    -0.309 N 
HETATM   10  O   UNL     1      45.527  -8.424   8.620  1.00  0.00    -0.247 OA
HETATM   11  H   UNL     1      43.677 -10.954   9.069  1.00  0.00     0.170 HD
HETATM   12  H   UNL     1      45.736  -9.689   6.631  1.00  0.00     0.172 HD
BRANCH   9  13
HETATM   13  C   UNL     1      43.584  -9.540  10.578  1.00  0.00     0.036 A 
HETATM   14  C   UNL     1      43.343  -8.189  10.827  1.00  0.00     0.030 A 
HETATM   15  C   UNL     1      42.860  -7.772  12.073  1.00  0.00     0.009 A 
HETATM   16  C   UNL     1      42.606  -8.700  13.089  1.00  0.00    -0.062 A 
HETATM   17  C   UNL     1      42.106  -8.238  14.424  1.00  0.00     0.048 C 
HETATM   18  C   UNL     1      42.864 -10.052  12.846  1.00  0.00     0.009 A 
HETATM   19  C   UNL     1      43.343 -10.467  11.599  1.00  0.00     0.030 A 
ENDBRANCH   9  13
ENDBRANCH   1   7
BRANCH   3  20
HETATM   20  C   UNL     1      42.604 -13.627   4.495  1.00  0.00     0.260 C 
HETATM   21  N   UNL     1      43.155 -14.833   4.121  1.00  0.00    -0.352 N 
HETATM   22  H   UNL     1      44.057 -15.096   4.496  1.00  0.00     0.163 HD
HETATM   23  O   UNL     1      41.579 -13.207   3.960  1.00  0.00    -0.267 OA
BRANCH  21  24
HETATM   24  C   UNL     1      42.617 -15.589   3.015  1.00  0.00     0.161 C 
BRANCH  24  25
HETATM   25  C   UNL     1      43.013 -17.039   3.108  1.00  0.00    -0.040 A 
HETATM   26  C   UNL     1      43.676 -17.514   4.250  1.00  0.00     0.010 A 
HETATM   27  C   UNL     1      44.049 -18.857   4.347  1.00  0.00     0.024 A 
HETATM   28  C   UNL     1      43.761 -19.731   3.301  1.00  0.00     0.034 A 
HETATM   29 CL   UNL     1      44.214 -21.386   3.421  1.00  0.00    -0.084 Cl
HETATM   30  C   UNL     1      43.109 -19.273   2.158  1.00  0.00     0.024 A 
HETATM   31  C   UNL     1      42.738 -17.929   2.060  1.00  0.00     0.010 A 
ENDBRANCH  24  25
ENDBRANCH  21  24
ENDBRANCH   3  20
TORSDOF 5
ENDMDL
MODEL 2
REMARK VINA RESULT:      -8.7      5.169      8.870
REMARK  5 active torsions:
REMARK  status: ('A' for Active; 'I' for Inactive)
REMARK    1  A    between atoms: C_5  and  N_6 
REMARK       I    between atoms: N_6  and  C_7 
REMARK       I    between atoms: C_7  and  N_8 
REMARK    2  A    between atoms: N_8  and  C_9 
REMARK    3  A    between atoms: C_11  and  C_12 
REMARK       I    between atoms: C_12  and  N_13 
REMARK    4  A    between atoms: N_13  and  C_14 
REMARK    5  A    between atoms: C_14  and  C_15 
ROOT
HETATM    1  C   UNL     1      41.669 -13.351   6.026  1.00  0.00     0.175 A 
HETATM    2  S   UNL     1      40.170 -13.457   5.234  1.00  0.00    -0.044 SA
HETATM    3  C   UNL     1      40.483 -11.949   4.467  1.00  0.00     0.100 A 
HETATM    4  C   UNL     1      41.707 -11.458   4.905  1.00  0.00     0.056 A 
HETATM    5  C   UNL     1      42.352 -10.177   4.507  1.00  0.00     0.072 C 
HETATM    6  N   UNL     1      42.382 -12.278   5.802  1.00  0.00    -0.228 NA
ENDROOT
BRANCH   1   7
HETATM    7  N   UNL     1      41.987 -14.415   6.815  1.00  0.00    -0.287 N 
HETATM    8  C   UNL     1      42.457 -15.626   6.389  1.00  0.00     0.326 C 
HETATM    9  N   UNL     1      42.662 -15.769   5.043  1.00  0.00    -0.309 N 
HETATM   10  O   UNL     1      42.647 -16.488   7.246  1.00  0.00    -0.247 OA
HETATM   11  H   UNL     1      42.513 -14.925   4.496  1.00  0.00     0.170 HD
HETATM   12  H   UNL     1      41.821 -14.343   7.808  1.00  0.00     0.172 HD
BRANCH   9  13
HETATM   13  C   UNL     1      43.043 -16.919   4.328  1.00  0.00     0.036 A 
HETATM   14  C   UNL     1      43.949 -17.868   4.800  1.00  0.00     0.030 A 
HETATM   15  C   UNL     1      44.252 -19.001   4.036  1.00  0.00     0.009 A 
HETATM   16  C   UNL     1      43.649 -19.206   2.791  1.00  0.00    -0.062 A 
HETATM   17  C   UNL     1      43.995 -20.415   1.976  1.00  0.00     0.048 C 
HETATM   18  C   UNL     1      42.754 -18.247   2.310  1.00  0.00     0.009 A 
HETATM   19  C   UNL     1      42.450 -17.116   3.076  1.00  0.00     0.030 A 
ENDBRANCH   9  13
ENDBRANCH   1   7
BRANCH   3  20
HETATM   20  C   UNL     1      39.565 -11.346   3.515  1.00  0.00     0.260 C 
HETATM   21  N   UNL     1      39.697 -11.749   2.204  1.00  0.00    -0.352 N 
HETATM   22  H   UNL     1      40.472 -12.348   1.953  1.00  0.00     0.163 HD
HETATM   23  O   UNL     1      38.722 -10.511   3.838  1.00  0.00    -0.267 OA
BRANCH  21  24
HETATM   24  C   UNL     1      38.932 -11.126   1.151  1.00  0.00     0.161 C 
BRANCH  24  25
HETATM   25  C   UNL     1      38.766 -12.056  -0.021  1.00  0.00    -0.040 A 
HETATM   26  C   UNL     1      37.765 -11.813  -0.975  1.00  0.00     0.010 A 
HETATM   27  C   UNL     1      37.601 -12.670  -2.066  1.00  0.00     0.024 A 
HETATM   28  C   UNL     1      38.437 -13.776  -2.207  1.00  0.00     0.034 A 
HETATM   29 CL   UNL     1      38.240 -14.829  -3.553  1.00  0.00    -0.084 Cl
HETATM   30  C   UNL     1      39.431 -14.034  -1.265  1.00  0.00     0.024 A 
HETATM   31  C   UNL     1      39.593 -13.178  -0.173  1.00  0.00     0.010 A 
ENDBRANCH  24  25
ENDBRANCH  21  24
ENDBRANCH   3  20
TORSDOF 5
ENDMDL
MODEL 3
REMARK VINA RESULT:      -8.7      3.592     10.258
REMARK  5 active torsions:
REMARK  status: ('A' for Active; 'I' for Inactive)
REMARK    1  A    between atoms: C_5  and  N_6 
REMARK       I    between atoms: N_6  and  C_7 
REMARK       I    between atoms: C_7  and  N_8 
REMARK    2  A    between atoms: N_8  and  C_9 
REMARK    3  A    between atoms: C_11  and  C_12 
REMARK       I    between atoms: C_12  and  N_13 
REMARK    4  A    between atoms: N_13  and  C_14 
REMARK    5  A    between atoms: C_14  and  C_15 
ROOT
HETATM    1  C   UNL     1      42.950 -11.575   5.488  1.00  0.00     0.175 A 
HETATM    2  S   UNL     1      42.512 -10.624   6.825  1.00  0.00    -0.044 SA
HETATM    3  C   UNL     1      44.176 -10.436   7.220  1.00  0.00     0.100 A 
HETATM    4  C   UNL     1      44.946 -11.151   6.310  1.00  0.00     0.056 A 
HETATM    5  C   UNL     1      46.430 -11.272   6.294  1.00  0.00     0.072 C 
HETATM    6  N   UNL     1      44.227 -11.800   5.314  1.00  0.00    -0.228 NA
ENDROOT
BRANCH   1   7
HETATM    7  N   UNL     1      41.914 -12.004   4.713  1.00  0.00    -0.287 N 
HETATM    8  C   UNL     1      41.797 -13.235   4.129  1.00  0.00     0.326 C 
HETATM    9  N   UNL     1      42.800 -14.133   4.378  1.00  0.00    -0.309 N 
HETATM   10  O   UNL     1      40.810 -13.430   3.421  1.00  0.00    -0.247 OA
HETATM   11  H   UNL     1      43.502 -13.817   5.042  1.00  0.00     0.170 HD
HETATM   12  H   UNL     1      41.177 -11.352   4.493  1.00  0.00     0.172 HD
BRANCH   9  13
HETATM   13  C   UNL     1      42.983 -15.420   3.840  1.00  0.00     0.036 A 
HETATM   14  C   UNL     1      42.973 -15.704   2.474  1.00  0.00     0.030 A 
HETATM   15  C   UNL     1      43.194 -17.009   2.020  1.00  0.00     0.009 A 
HETATM   16  C   UNL     1      43.431 -18.051   2.923  1.00  0.00    -0.062 A 
HETATM   17  C   UNL     1      43.649 -19.447   2.423  1.00  0.00     0.048 C 
HETATM   18  C   UNL     1      43.424 -17.770   4.292  1.00  0.00     0.009 A 
HETATM   19  C   UNL     1      43.207 -16.464   4.745  1.00  0.00     0.030 A 
ENDBRANCH   9  13
ENDBRANCH   1   7
BRANCH   3  20
HETATM   20  C   UNL     1      44.631  -9.635   8.344  1.00  0.00     0.260 C 
HETATM   21  N   UNL     1      44.521 -10.215   9.589  1.00  0.00    -0.352 N 
HETATM   22  H   UNL     1      44.044 -11.103   9.673  1.00  0.00     0.163 HD
HETATM   23  O   UNL     1      45.080  -8.497   8.214  1.00  0.00    -0.267 OA
BRANCH  21  24
HETATM   24  C   UNL     1      44.818  -9.470  10.789  1.00  0.00     0.161 C 
BRANCH  24  25
HETATM   25  C   UNL     1      43.554  -9.052  11.492  1.00  0.00    -0.040 A 
HETATM   26  C   UNL     1      43.030  -7.765  11.289  1.00  0.00     0.010 A 
HETATM   27  C   UNL     1      41.859  -7.365  11.936  1.00  0.00     0.024 A 
HETATM   28  C   UNL     1      41.206  -8.250  12.791  1.00  0.00     0.034 A 
HETATM   29 CL   UNL     1      39.759  -7.761  13.584  1.00  0.00    -0.084 Cl
HETATM   30  C   UNL     1      41.716  -9.528  13.008  1.00  0.00     0.024 A 
HETATM   31  C   UNL     1      42.890  -9.928  12.363  1.00  0.00     0.010 A 
ENDBRANCH  24  25
ENDBRANCH  21  24
ENDBRANCH   3  20
TORSDOF 5
ENDMDL
MODEL 4
REMARK VINA RESULT:      -8.5      2.570      3.111
REMARK  5 active torsions:
REMARK  status: ('A' for Active; 'I' for Inactive)
REMARK    1  A    between atoms: C_5  and  N_6 
REMARK       I    between atoms: N_6  and  C_7 
REMARK       I    between atoms: C_7  and  N_8 
REMARK    2  A    between atoms: N_8  and  C_9 
REMARK    3  A    between atoms: C_11  and  C_12 
REMARK       I    between atoms: C_12  and  N_13 
REMARK    4  A    between atoms: N_13  and  C_14 
REMARK    5  A    between atoms: C_14  and  C_15 
ROOT
HETATM    1  C   UNL     1      40.324 -10.924   6.644  1.00  0.00     0.175 A 
HETATM    2  S   UNL     1      39.716 -12.011   5.489  1.00  0.00    -0.044 SA
HETATM    3  C   UNL     1      41.297 -12.172   4.827  1.00  0.00     0.100 A 
HETATM    4  C   UNL     1      42.172 -11.347   5.526  1.00  0.00     0.056 A 
HETATM    5  C   UNL     1      43.628 -11.169   5.274  1.00  0.00     0.072 C 
HETATM    6  N   UNL     1      41.598 -10.635   6.573  1.00  0.00    -0.228 NA
ENDROOT
BRANCH   1   7
HETATM    7  N   UNL     1      39.413 -10.465   7.548  1.00  0.00    -0.287 N 
HETATM    8  C   UNL     1      39.694  -9.855   8.739  1.00  0.00     0.326 C 
HETATM    9  N   UNL     1      41.016  -9.654   9.033  1.00  0.00    -0.309 N 
HETATM   10  O   UNL     1      38.739  -9.547   9.451  1.00  0.00    -0.247 OA
HETATM   11  H   UNL     1      41.663  -9.914   8.292  1.00  0.00     0.170 HD
HETATM   12  H   UNL     1      38.434 -10.624   7.366  1.00  0.00     0.172 HD
BRANCH   9  13
HETATM   13  C   UNL     1      41.588  -9.145  10.212  1.00  0.00     0.036 A 
HETATM   14  C   UNL     1      42.324  -9.909  11.118  1.00  0.00     0.030 A 
HETATM   15  C   UNL     1      42.885  -9.316  12.254  1.00  0.00     0.009 A 
HETATM   16  C   UNL     1      42.724  -7.949  12.502  1.00  0.00    -0.062 A 
HETATM   17  C   UNL     1      43.316  -7.331  13.732  1.00  0.00     0.048 C 
HETATM   18  C   UNL     1      41.972  -7.186  11.605  1.00  0.00     0.009 A 
HETATM   19  C   UNL     1      41.415  -7.779  10.466  1.00  0.00     0.030 A 
ENDBRANCH   9  13
ENDBRANCH   1   7
BRANCH   3  20
HETATM   20  C   UNL     1      41.597 -13.056   3.714  1.00  0.00     0.260 C 
HETATM   21  N   UNL     1      42.418 -14.127   3.992  1.00  0.00    -0.352 N 
HETATM   22  H   UNL     1      42.848 -14.189   4.906  1.00  0.00     0.163 HD
HETATM   23  O   UNL     1      41.165 -12.869   2.578  1.00  0.00    -0.267 OA
BRANCH  21  24
HETATM   24  C   UNL     1      42.891 -14.998   2.943  1.00  0.00     0.161 C 
BRANCH  24  25
HETATM   25  C   UNL     1      43.269 -16.348   3.490  1.00  0.00    -0.040 A 
HETATM   26  C   UNL     1      43.388 -17.448   2.625  1.00  0.00     0.010 A 
HETATM   27  C   UNL     1      43.738 -18.706   3.121  1.00  0.00     0.024 A 
HETATM   28  C   UNL     1      43.970 -18.871   4.485  1.00  0.00     0.034 A 
HETATM   29 CL   UNL     1      44.407 -20.418   5.097  1.00  0.00    -0.084 Cl
HETATM   30  C   UNL     1      43.849 -17.790   5.357  1.00  0.00     0.024 A 
HETATM   31  C   UNL     1      43.497 -16.532   4.861  1.00  0.00     0.010 A 
ENDBRANCH  24  25
ENDBRANCH  21  24
ENDBRANCH   3  20
TORSDOF 5
ENDMDL
MODEL 5
REMARK VINA RESULT:      -8.4      2.035      2.476
REMARK  5 active torsions:
REMARK  status: ('A' for Active; 'I' for Inactive)
REMARK    1  A    between atoms: C_5  and  N_6 
REMARK       I    between atoms: N_6  and  C_7 
REMARK       I    between atoms: C_7  and  N_8 
REMARK    2  A    between atoms: N_8  and  C_9 
REMARK    3  A    between atoms: C_11  and  C_12 
REMARK       I    between atoms: C_12  and  N_13 
REMARK    4  A    between atoms: N_13  and  C_14 
REMARK    5  A    between atoms: C_14  and  C_15 
ROOT
HETATM    1  C   UNL     1      42.815  -9.491   7.184  1.00  0.00     0.175 A 
HETATM    2  S   UNL     1      41.384 -10.041   6.454  1.00  0.00    -0.044 SA
HETATM    3  C   UNL     1      42.096 -11.595   6.256  1.00  0.00     0.100 A 
HETATM    4  C   UNL     1      43.401 -11.564   6.737  1.00  0.00     0.056 A 
HETATM    5  C   UNL     1      44.378 -12.687   6.745  1.00  0.00     0.072 C 
HETATM    6  N   UNL     1      43.801 -10.346   7.272  1.00  0.00    -0.228 NA
ENDROOT
BRANCH   1   7
HETATM    7  N   UNL     1      42.789  -8.200   7.620  1.00  0.00    -0.287 N 
HETATM    8  C   UNL     1      42.671  -7.788   8.919  1.00  0.00     0.326 C 
HETATM    9  N   UNL     1      42.611  -8.768   9.873  1.00  0.00    -0.309 N 
HETATM   10  O   UNL     1      42.617  -6.576   9.121  1.00  0.00    -0.247 OA
HETATM   11  H   UNL     1      42.738  -9.715   9.523  1.00  0.00     0.170 HD
HETATM   12  H   UNL     1      42.805  -7.461   6.935  1.00  0.00     0.172 HD
BRANCH   9  13
HETATM   13  C   UNL     1      42.397  -8.637  11.257  1.00  0.00     0.036 A 
HETATM   14  C   UNL     1      43.370  -8.211  12.161  1.00  0.00     0.030 A 
HETATM   15  C   UNL     1      43.065  -8.079  13.521  1.00  0.00     0.009 A 
HETATM   16  C   UNL     1      41.782  -8.366  13.998  1.00  0.00    -0.062 A 
HETATM   17  C   UNL     1      41.474  -8.236  15.459  1.00  0.00     0.048 C 
HETATM   18  C   UNL     1      40.812  -8.809  13.095  1.00  0.00     0.009 A 
HETATM   19  C   UNL     1      41.117  -8.937  11.736  1.00  0.00     0.030 A 
ENDBRANCH   9  13
ENDBRANCH   1   7
BRANCH   3  20
HETATM   20  C   UNL     1      41.383 -12.718   5.673  1.00  0.00     0.260 C 
HETATM   21  N   UNL     1      41.059 -13.745   6.533  1.00  0.00    -0.352 N 
HETATM   22  H   UNL     1      41.414 -13.720   7.480  1.00  0.00     0.163 HD
HETATM   23  O   UNL     1      41.089 -12.775   4.481  1.00  0.00    -0.267 OA
BRANCH  21  24
HETATM   24  C   UNL     1      40.468 -14.968   6.046  1.00  0.00     0.161 C 
BRANCH  24  25
HETATM   25  C   UNL     1      41.526 -15.934   5.584  1.00  0.00    -0.040 A 
HETATM   26  C   UNL     1      42.338 -16.589   6.524  1.00  0.00     0.010 A 
HETATM   27  C   UNL     1      43.323 -17.487   6.107  1.00  0.00     0.024 A 
HETATM   28  C   UNL     1      43.502 -17.734   4.748  1.00  0.00     0.034 A 
HETATM   29 CL   UNL     1      44.712 -18.845   4.234  1.00  0.00    -0.084 Cl
HETATM   30  C   UNL     1      42.709 -17.088   3.803  1.00  0.00     0.024 A 
HETATM   31  C   UNL     1      41.724 -16.187   4.219  1.00  0.00     0.010 A 
ENDBRANCH  24  25
ENDBRANCH  21  24
ENDBRANCH   3  20
TORSDOF 5
ENDMDL
MODEL 6
REMARK VINA RESULT:      -8.3      3.692     10.399
REMARK  5 active torsions:
REMARK  status: ('A' for Active; 'I' for Inactive)
REMARK    1  A    between atoms: C_5  and  N_6 
REMARK       I    between atoms: N_6  and  C_7 
REMARK       I    between atoms: C_7  and  N_8 
REMARK    2  A    between atoms: N_8  and  C_9 
REMARK    3  A    between atoms: C_11  and  C_12 
REMARK       I    between atoms: C_12  and  N_13 
REMARK    4  A    between atoms: N_13  and  C_14 
REMARK    5  A    between atoms: C_14  and  C_15 
ROOT
HETATM    1  C   UNL     1      41.191 -13.412   5.237  1.00  0.00     0.175 A 
HETATM    2  S   UNL     1      42.312 -13.784   6.457  1.00  0.00    -0.044 SA
HETATM    3  C   UNL     1      42.924 -12.178   6.367  1.00  0.00     0.100 A 
HETATM    4  C   UNL     1      42.239 -11.483   5.376  1.00  0.00     0.056 A 
HETATM    5  C   UNL     1      42.461 -10.072   4.957  1.00  0.00     0.072 C 
HETATM    6  N   UNL     1      41.241 -12.206   4.734  1.00  0.00    -0.228 NA
ENDROOT
BRANCH   1   7
HETATM    7  N   UNL     1      40.333 -14.418   4.908  1.00  0.00    -0.287 N 
HETATM    8  C   UNL     1      40.680 -15.663   4.460  1.00  0.00     0.326 C 
HETATM    9  N   UNL     1      42.019 -15.934   4.370  1.00  0.00    -0.309 N 
HETATM   10  O   UNL     1      39.764 -16.430   4.165  1.00  0.00    -0.247 OA
HETATM   11  H   UNL     1      42.628 -15.200   4.721  1.00  0.00     0.170 HD
HETATM   12  H   UNL     1      39.341 -14.234   4.941  1.00  0.00     0.172 HD
BRANCH   9  13
HETATM   13  C   UNL     1      42.652 -17.081   3.858  1.00  0.00     0.036 A 
HETATM   14  C   UNL     1      43.627 -17.806   4.542  1.00  0.00     0.030 A 
HETATM   15  C   UNL     1      44.186 -18.956   3.973  1.00  0.00     0.009 A 
HETATM   16  C   UNL     1      43.775 -19.402   2.712  1.00  0.00    -0.062 A 
HETATM   17  C   UNL     1      44.395 -20.626   2.107  1.00  0.00     0.048 C 
HETATM   18  C   UNL     1      42.811 -18.667   2.019  1.00  0.00     0.009 A 
HETATM   19  C   UNL     1      42.250 -17.520   2.591  1.00  0.00     0.030 A 
ENDBRANCH   9  13
ENDBRANCH   1   7
BRANCH   3  20
HETATM   20  C   UNL     1      43.988 -11.693   7.228  1.00  0.00     0.260 C 
HETATM   21  N   UNL     1      43.595 -10.960   8.328  1.00  0.00    -0.352 N 
HETATM   22  H   UNL     1      42.619 -10.711   8.425  1.00  0.00     0.163 HD
HETATM   23  O   UNL     1      45.178 -11.900   7.000  1.00  0.00    -0.267 OA
BRANCH  21  24
HETATM   24  C   UNL     1      44.564 -10.317   9.182  1.00  0.00     0.161 C 
BRANCH  24  25
HETATM   25  C   UNL     1      43.937  -9.884  10.480  1.00  0.00    -0.040 A 
HETATM   26  C   UNL     1      43.544 -10.844  11.426  1.00  0.00     0.010 A 
HETATM   27  C   UNL     1      42.962 -10.454  12.634  1.00  0.00     0.024 A 
HETATM   28  C   UNL     1      42.768  -9.101  12.902  1.00  0.00     0.034 A 
HETATM   29 CL   UNL     1      42.056  -8.619  14.392  1.00  0.00    -0.084 Cl
HETATM   30  C   UNL     1      43.147  -8.136  11.971  1.00  0.00     0.024 A 
HETATM   31  C   UNL     1      43.728  -8.526  10.762  1.00  0.00     0.010 A 
ENDBRANCH  24  25
ENDBRANCH  21  24
ENDBRANCH   3  20
TORSDOF 5
ENDMDL
MODEL 7
REMARK VINA RESULT:      -8.2      3.144      3.921
REMARK  5 active torsions:
REMARK  status: ('A' for Active; 'I' for Inactive)
REMARK    1  A    between atoms: C_5  and  N_6 
REMARK       I    between atoms: N_6  and  C_7 
REMARK       I    between atoms: C_7  and  N_8 
REMARK    2  A    between atoms: N_8  and  C_9 
REMARK    3  A    between atoms: C_11  and  C_12 
REMARK       I    between atoms: C_12  and  N_13 
REMARK    4  A    between atoms: N_13  and  C_14 
REMARK    5  A    between atoms: C_14  and  C_15 
ROOT
HETATM    1  C   UNL     1      44.037 -11.727   6.766  1.00  0.00     0.175 A 
HETATM    2  S   UNL     1      43.584 -11.861   5.134  1.00  0.00    -0.044 SA
HETATM    3  C   UNL     1      43.097 -13.487   5.416  1.00  0.00     0.100 A 
HETATM    4  C   UNL     1      43.352 -13.818   6.742  1.00  0.00     0.056 A 
HETATM    5  C   UNL     1      43.097 -15.128   7.403  1.00  0.00     0.072 C 
HETATM    6  N   UNL     1      43.892 -12.793   7.510  1.00  0.00    -0.228 NA
ENDROOT
BRANCH   1   7
HETATM    7  N   UNL     1      44.502 -10.503   7.143  1.00  0.00    -0.287 N 
HETATM    8  C   UNL     1      44.196  -9.844   8.302  1.00  0.00     0.326 C 
HETATM    9  N   UNL     1      43.374 -10.495   9.182  1.00  0.00    -0.309 N 
HETATM   10  O   UNL     1      44.674  -8.722   8.453  1.00  0.00    -0.247 OA
HETATM   11  H   UNL     1      43.130 -11.446   8.917  1.00  0.00     0.170 HD
HETATM   12  H   UNL     1      45.088  -9.993   6.501  1.00  0.00     0.172 HD
BRANCH   9  13
HETATM   13  C   UNL     1      42.827 -10.023  10.389  1.00  0.00     0.036 A 
HETATM   14  C   UNL     1      41.756  -9.133  10.467  1.00  0.00     0.030 A 
HETATM   15  C   UNL     1      41.252  -8.736  11.711  1.00  0.00     0.009 A 
HETATM   16  C   UNL     1      41.808  -9.226  12.897  1.00  0.00    -0.062 A 
HETATM   17  C   UNL     1      41.270  -8.779  14.223  1.00  0.00     0.048 C 
HETATM   18  C   UNL     1      42.892 -10.104  12.821  1.00  0.00     0.009 A 
HETATM   19  C   UNL     1      43.392 -10.503  11.576  1.00  0.00     0.030 A 
ENDBRANCH   9  13
ENDBRANCH   1   7
BRANCH   3  20
HETATM   20  C   UNL     1      42.512 -14.323   4.381  1.00  0.00     0.260 C 
HETATM   21  N   UNL     1      41.136 -14.321   4.303  1.00  0.00    -0.352 N 
HETATM   22  H   UNL     1      40.607 -13.836   5.016  1.00  0.00     0.163 HD
HETATM   23  O   UNL     1      43.187 -15.011   3.618  1.00  0.00    -0.267 OA
BRANCH  21  24
HETATM   24  C   UNL     1      40.438 -15.208   3.405  1.00  0.00     0.161 C 
BRANCH  24  25
HETATM   25  C   UNL     1      40.110 -14.517   2.108  1.00  0.00    -0.040 A 
HETATM   26  C   UNL     1      40.192 -15.222   0.896  1.00  0.00     0.010 A 
HETATM   27  C   UNL     1      39.890 -14.591  -0.313  1.00  0.00     0.024 A 
HETATM   28  C   UNL     1      39.507 -13.252  -0.316  1.00  0.00     0.034 A 
HETATM   29 CL   UNL     1      39.129 -12.475  -1.805  1.00  0.00    -0.084 Cl
HETATM   30  C   UNL     1      39.426 -12.538   0.877  1.00  0.00     0.024 A 
HETATM   31  C   UNL     1      39.730 -13.168   2.087  1.00  0.00     0.010 A 
ENDBRANCH  24  25
ENDBRANCH  21  24
ENDBRANCH   3  20
TORSDOF 5
ENDMDL
MODEL 8
REMARK VINA RESULT:      -8.2      3.595      9.989
REMARK  5 active torsions:
REMARK  status: ('A' for Active; 'I' for Inactive)
REMARK    1  A    between atoms: C_5  and  N_6 
REMARK       I    between atoms: N_6  and  C_7 
REMARK       I    between atoms: C_7  and  N_8 
REMARK    2  A    between atoms: N_8  and  C_9 
REMARK    3  A    between atoms: C_11  and  C_12 
REMARK       I    between atoms: C_12  and  N_13 
REMARK    4  A    between atoms: N_13  and  C_14 
REMARK    5  A    between atoms: C_14  and  C_15 
ROOT
HETATM    1  C   UNL     1      42.096 -12.646   5.319  1.00  0.00     0.175 A 
HETATM    2  S   UNL     1      41.283 -11.305   5.970  1.00  0.00    -0.044 SA
HETATM    3  C   UNL     1      42.785 -10.685   6.539  1.00  0.00     0.100 A 
HETATM    4  C   UNL     1      43.800 -11.578   6.213  1.00  0.00     0.056 A 
HETATM    5  C   UNL     1      45.248 -11.440   6.529  1.00  0.00     0.072 C 
HETATM    6  N   UNL     1      43.390 -12.702   5.507  1.00  0.00    -0.228 NA
ENDROOT
BRANCH   1   7
HETATM    7  N   UNL     1      41.311 -13.533   4.646  1.00  0.00    -0.287 N 
HETATM    8  C   UNL     1      41.495 -14.887   4.581  1.00  0.00     0.326 C 
HETATM    9  N   UNL     1      42.548 -15.401   5.290  1.00  0.00    -0.309 N 
HETATM   10  O   UNL     1      40.710 -15.528   3.884  1.00  0.00    -0.247 OA
HETATM   11  H   UNL     1      43.049 -14.726   5.862  1.00  0.00     0.170 HD
HETATM   12  H   UNL     1      40.545 -13.177   4.096  1.00  0.00     0.172 HD
BRANCH   9  13
HETATM   13  C   UNL     1      43.022 -16.725   5.326  1.00  0.00     0.036 A 
HETATM   14  C   UNL     1      42.931 -17.557   6.442  1.00  0.00     0.030 A 
HETATM   15  C   UNL     1      43.401 -18.874   6.384  1.00  0.00     0.009 A 
HETATM   16  C   UNL     1      43.965 -19.382   5.209  1.00  0.00    -0.062 A 
HETATM   17  C   UNL     1      44.480 -20.789   5.167  1.00  0.00     0.048 C 
HETATM   18  C   UNL     1      44.072 -18.544   4.096  1.00  0.00     0.009 A 
HETATM   19  C   UNL     1      43.598 -17.228   4.154  1.00  0.00     0.030 A 
ENDBRANCH   9  13
ENDBRANCH   1   7
BRANCH   3  20
HETATM   20  C   UNL     1      42.898  -9.417   7.238  1.00  0.00     0.260 C 
HETATM   21  N   UNL     1      44.016  -9.255   8.027  1.00  0.00    -0.352 N 
HETATM   22  H   UNL     1      44.635 -10.043   8.164  1.00  0.00     0.163 HD
HETATM   23  O   UNL     1      42.049  -8.531   7.155  1.00  0.00    -0.267 OA
BRANCH  21  24
HETATM   24  C   UNL     1      44.173  -8.094   8.870  1.00  0.00     0.161 C 
BRANCH  24  25
HETATM   25  C   UNL     1      43.606  -8.341  10.242  1.00  0.00    -0.040 A 
HETATM   26  C   UNL     1      42.910  -7.320  10.908  1.00  0.00     0.010 A 
HETATM   27  C   UNL     1      42.379  -7.537  12.182  1.00  0.00     0.024 A 
HETATM   28  C   UNL     1      42.543  -8.776  12.796  1.00  0.00     0.034 A 
HETATM   29 CL   UNL     1      41.885  -9.047  14.363  1.00  0.00    -0.084 Cl
HETATM   30  C   UNL     1      43.237  -9.798  12.151  1.00  0.00     0.024 A 
HETATM   31  C   UNL     1      43.770  -9.580  10.878  1.00  0.00     0.010 A 
ENDBRANCH  24  25
ENDBRANCH  21  24
ENDBRANCH   3  20
TORSDOF 5
ENDMDL
MODEL 9
REMARK VINA RESULT:      -8.1      5.892     10.105
REMARK  5 active torsions:
REMARK  status: ('A' for Active; 'I' for Inactive)
REMARK    1  A    between atoms: C_5  and  N_6 
REMARK       I    between atoms: N_6  and  C_7 
REMARK       I    between atoms: C_7  and  N_8 
REMARK    2  A    between atoms: N_8  and  C_9 
REMARK    3  A    between atoms: C_11  and  C_12 
REMARK       I    between atoms: C_12  and  N_13 
REMARK    4  A    between atoms: N_13  and  C_14 
REMARK    5  A    between atoms: C_14  and  C_15 
ROOT
HETATM    1  C   UNL     1      40.311 -14.158   0.207  1.00  0.00     0.175 A 
HETATM    2  S   UNL     1      41.311 -15.134   1.174  1.00  0.00    -0.044 SA
HETATM    3  C   UNL     1      40.766 -14.286   2.570  1.00  0.00     0.100 A 
HETATM    4  C   UNL     1      39.879 -13.289   2.182  1.00  0.00     0.056 A 
HETATM    5  C   UNL     1      39.185 -12.315   3.068  1.00  0.00     0.072 C 
HETATM    6  N   UNL     1      39.623 -13.228   0.817  1.00  0.00    -0.228 NA
ENDROOT
BRANCH   1   7
HETATM    7  N   UNL     1      40.319 -14.454  -1.122  1.00  0.00    -0.287 N 
HETATM    8  C   UNL     1      40.148 -13.567  -2.149  1.00  0.00     0.326 C 
HETATM    9  N   UNL     1      39.993 -12.250  -1.806  1.00  0.00    -0.309 N 
HETATM   10  O   UNL     1      40.138 -14.024  -3.291  1.00  0.00    -0.247 OA
HETATM   11  H   UNL     1      40.096 -12.052  -0.814  1.00  0.00     0.170 HD
HETATM   12  H   UNL     1      40.405 -15.420  -1.399  1.00  0.00     0.172 HD
BRANCH   9  13
HETATM   13  C   UNL     1      39.710 -11.152  -2.638  1.00  0.00     0.036 A 
HETATM   14  C   UNL     1      38.421 -10.737  -2.973  1.00  0.00     0.030 A 
HETATM   15  C   UNL     1      38.226  -9.613  -3.784  1.00  0.00     0.009 A 
HETATM   16  C   UNL     1      39.316  -8.884  -4.270  1.00  0.00    -0.062 A 
HETATM   17  C   UNL     1      39.092  -7.692  -5.152  1.00  0.00     0.048 C 
HETATM   18  C   UNL     1      40.607  -9.309  -3.950  1.00  0.00     0.009 A 
HETATM   19  C   UNL     1      40.801 -10.430  -3.135  1.00  0.00     0.030 A 
ENDBRANCH   9  13
ENDBRANCH   1   7
BRANCH   3  20
HETATM   20  C   UNL     1      41.206 -14.621   3.913  1.00  0.00     0.260 C 
HETATM   21  N   UNL     1      42.557 -14.499   4.160  1.00  0.00    -0.352 N 
HETATM   22  H   UNL     1      43.177 -14.291   3.388  1.00  0.00     0.163 HD
HETATM   23  O   UNL     1      40.436 -15.006   4.792  1.00  0.00    -0.267 OA
BRANCH  21  24
HETATM   24  C   UNL     1      43.129 -14.925   5.414  1.00  0.00     0.161 C 
BRANCH  24  25
HETATM   25  C   UNL     1      43.386 -16.409   5.414  1.00  0.00    -0.040 A 
HETATM   26  C   UNL     1      43.864 -17.039   4.254  1.00  0.00     0.010 A 
HETATM   27  C   UNL     1      44.107 -18.414   4.242  1.00  0.00     0.024 A 
HETATM   28  C   UNL     1      43.871 -19.167   5.391  1.00  0.00     0.034 A 
HETATM   29 CL   UNL     1      44.175 -20.861   5.379  1.00  0.00    -0.084 Cl
HETATM   30  C   UNL     1      43.392 -18.557   6.548  1.00  0.00     0.024 A 
HETATM   31  C   UNL     1      43.147 -17.182   6.559  1.00  0.00     0.010 A 
ENDBRANCH  24  25
ENDBRANCH  21  24
ENDBRANCH   3  20
TORSDOF 5
ENDMDL
MODEL 10
REMARK VINA RESULT:      -8.0      4.660     10.323
REMARK  5 active torsions:
REMARK  status: ('A' for Active; 'I' for Inactive)
REMARK    1  A    between atoms: C_5  and  N_6 
REMARK       I    between atoms: N_6  and  C_7 
REMARK       I    between atoms: C_7  and  N_8 
REMARK    2  A    between atoms: N_8  and  C_9 
REMARK    3  A    between atoms: C_11  and  C_12 
REMARK       I    between atoms: C_12  and  N_13 
REMARK    4  A    between atoms: N_13  and  C_14 
REMARK    5  A    between atoms: C_14  and  C_15 
ROOT
HETATM    1  C   UNL     1      41.755 -10.251   5.065  1.00  0.00     0.175 A 
HETATM    2  S   UNL     1      41.841 -10.182   6.759  1.00  0.00    -0.044 SA
HETATM    3  C   UNL     1      40.130 -10.005   6.826  1.00  0.00     0.100 A 
HETATM    4  C   UNL     1      39.622  -9.977   5.532  1.00  0.00     0.056 A 
HETATM    5  C   UNL     1      38.196  -9.823   5.134  1.00  0.00     0.072 C 
HETATM    6  N   UNL     1      40.570 -10.123   4.526  1.00  0.00    -0.228 NA
ENDROOT
BRANCH   1   7
HETATM    7  N   UNL     1      42.944 -10.447   4.428  1.00  0.00    -0.287 N 
HETATM    8  C   UNL     1      43.369 -11.611   3.851  1.00  0.00     0.326 C 
HETATM    9  N   UNL     1      42.501 -12.669   3.884  1.00  0.00    -0.309 N 
HETATM   10  O   UNL     1      44.497 -11.616   3.361  1.00  0.00    -0.247 OA
HETATM   11  H   UNL     1      41.585 -12.459   4.274  1.00  0.00     0.170 HD
HETATM   12  H   UNL     1      43.611  -9.690   4.413  1.00  0.00     0.172 HD
BRANCH   9  13
HETATM   13  C   UNL     1      42.710 -13.993   3.458  1.00  0.00     0.036 A 
HETATM   14  C   UNL     1      42.914 -14.363   2.129  1.00  0.00     0.030 A 
HETATM   15  C   UNL     1      43.146 -15.702   1.793  1.00  0.00     0.009 A 
HETATM   16  C   UNL     1      43.181 -16.692   2.781  1.00  0.00    -0.062 A 
HETATM   17  C   UNL     1      43.412 -18.124   2.405  1.00  0.00     0.048 C 
HETATM   18  C   UNL     1      42.960 -16.324   4.111  1.00  0.00     0.009 A 
HETATM   19  C   UNL     1      42.733 -14.985   4.446  1.00  0.00     0.030 A 
ENDBRANCH   9  13
ENDBRANCH   1   7
BRANCH   3  20
HETATM   20  C   UNL     1      39.398  -9.910   8.078  1.00  0.00     0.260 C 
HETATM   21  N   UNL     1      39.594  -8.761   8.812  1.00  0.00    -0.352 N 
HETATM   22  H   UNL     1      40.299  -8.102   8.508  1.00  0.00     0.163 HD
HETATM   23  O   UNL     1      38.652 -10.800   8.483  1.00  0.00    -0.267 OA
BRANCH  21  24
HETATM   24  C   UNL     1      39.025  -8.610  10.129  1.00  0.00     0.161 C 
BRANCH  24  25
HETATM   25  C   UNL     1      40.086  -8.265  11.140  1.00  0.00    -0.040 A 
HETATM   26  C   UNL     1      41.148  -7.419  10.783  1.00  0.00     0.010 A 
HETATM   27  C   UNL     1      42.138  -7.092  11.713  1.00  0.00     0.024 A 
HETATM   28  C   UNL     1      42.071  -7.610  13.004  1.00  0.00     0.034 A 
HETATM   29 CL   UNL     1      43.287  -7.203  14.152  1.00  0.00    -0.084 Cl
HETATM   30  C   UNL     1      41.026  -8.455  13.373  1.00  0.00     0.024 A 
HETATM   31  C   UNL     1      40.037  -8.784  12.442  1.00  0.00     0.010 A 
ENDBRANCH  24  25
ENDBRANCH  21  24
ENDBRANCH   3  20
TORSDOF 5
ENDMDL
