MODEL 1
REMARK VINA RESULT:      -8.9      0.000      0.000
REMARK  6 active torsions:
REMARK  status: ('A' for Active; 'I' for Inactive)
REMARK    1  A    between atoms: C_2  and  C_3 
REMARK    2  A    between atoms: C_3  and  N_4 
REMARK    3  A    between atoms: C_5  and  S_6 
REMARK    4  A    between atoms: S_6  and  C_7 
REMARK    5  A    between atoms: C_7  and  C_8 
REMARK       I    between atoms: C_8  and  N_9 
REMARK    6  A    between atoms: N_9  and  C_10 
ROOT
HETATM    1  C   UNL     1      39.917 -13.046   2.878  1.00  0.00     0.231 C 
HETATM    2  N   UNL     1      40.792 -13.164   1.806  1.00  0.00    -0.325 N 
HETATM    3  O   UNL     1      38.718 -12.792   2.771  1.00  0.00    -0.272 OA
HETATM    4  H   UNL     1      41.546 -13.819   1.986  1.00  0.00     0.169 HD
ENDROOT
BRANCH   1   5
HETATM    5  C   UNL     1      40.542 -13.244   4.253  1.00  0.00     0.185 C 
BRANCH   5   6
HETATM    6  S   UNL     1      42.365 -13.176   4.217  1.00  0.00    -0.083 SA
BRANCH   6   7
HETATM    7  C   UNL     1      42.732 -14.860   4.012  1.00  0.00     0.170 A 
HETATM    8  N   UNL     1      43.384 -15.620   4.953  1.00  0.00    -0.324 N 
HETATM    9  C   UNL     1      43.589 -16.870   4.400  1.00  0.00     0.065 A 
HETATM   10  C   UNL     1      42.991 -16.790   3.143  1.00  0.00     0.088 A 
HETATM   11  C   UNL     1      44.217 -18.035   4.860  1.00  0.00     0.034 A 
HETATM   12  N   UNL     1      42.457 -15.549   2.930  1.00  0.00    -0.222 NA
HETATM   13  C   UNL     1      43.006 -17.902   2.290  1.00  0.00     0.057 A 
HETATM   14  C   UNL     1      43.634 -19.068   2.735  1.00  0.00     0.036 A 
HETATM   15 CL   UNL     1      43.678 -20.448   1.704  1.00  0.00    -0.084 Cl
HETATM   16  C   UNL     1      44.230 -19.136   3.995  1.00  0.00     0.026 A 
BRANCH   8  17
HETATM   17  C   UNL     1      43.816 -15.209   6.275  1.00  0.00     0.131 C 
BRANCH  17  18
HETATM   18  C   UNL     1      43.002 -15.824   7.417  1.00  0.00     0.016 C 
HETATM   19  C   UNL     1      43.818 -16.743   8.315  1.00  0.00     0.006 C 
ENDBRANCH  17  18
ENDBRANCH   8  17
ENDBRANCH   6   7
ENDBRANCH   5   6
ENDBRANCH   1   5
BRANCH   2  20
HETATM   20  C   UNL     1      40.360 -13.038   0.462  1.00  0.00     0.054 A 
HETATM   21  C   UNL     1      40.388 -11.812  -0.268  1.00  0.00     0.040 A 
HETATM   22 BR   UNL     1      41.299 -10.259   0.364  1.00  0.00    -0.049 Br
HETATM   23  C   UNL     1      39.875 -11.729  -1.572  1.00  0.00     0.053 A 
HETATM   24  C   UNL     1      39.378 -12.888  -2.115  1.00  0.00     0.064 A 
HETATM   25  C   UNL     1      39.398 -14.099  -1.429  1.00  0.00     0.065 A 
HETATM   26  N   UNL     1      38.809 -13.111  -3.364  1.00  0.00    -0.306 N 
HETATM   27  N   UNL     1      38.839 -15.068  -2.254  1.00  0.00    -0.306 N 
HETATM   28  C   UNL     1      39.895 -14.213  -0.151  1.00  0.00     0.063 A 
HETATM   29  C   UNL     1      38.461 -14.467  -3.464  1.00  0.00     0.325 A 
HETATM   30  H   UNL     1      38.695 -16.043  -2.051  1.00  0.00     0.170 HD
HETATM   31  O   UNL     1      37.936 -15.016  -4.415  1.00  0.00    -0.247 OA
HETATM   32  H   UNL     1      38.645 -12.437  -4.093  1.00  0.00     0.170 HD
ENDBRANCH   2  20
TORSDOF 6
ENDMDL
MODEL 2
REMARK VINA RESULT:      -8.2      3.486      7.398
REMARK  6 active torsions:
REMARK  status: ('A' for Active; 'I' for Inactive)
REMARK    1  A    between atoms: C_2  and  C_3 
REMARK    2  A    between atoms: C_3  and  N_4 
REMARK    3  A    between atoms: C_5  and  S_6 
REMARK    4  A    between atoms: S_6  and  C_7 
REMARK    5  A    between atoms: C_7  and  C_8 
REMARK       I    between atoms: C_8  and  N_9 
REMARK    6  A    between atoms: N_9  and  C_10 
ROOT
HETATM    1  C   UNL     1      41.479 -13.887   4.590  1.00  0.00     0.231 C 
HETATM    2  N   UNL     1      42.720 -14.355   4.177  1.00  0.00    -0.325 N 
HETATM    3  O   UNL     1      40.566 -14.606   4.993  1.00  0.00    -0.272 OA
HETATM    4  H   UNL     1      43.466 -13.691   4.351  1.00  0.00     0.169 HD
ENDROOT
BRANCH   1   5
HETATM    5  C   UNL     1      41.292 -12.378   4.507  1.00  0.00     0.185 C 
BRANCH   5   6
HETATM    6  S   UNL     1      42.253 -11.621   3.154  1.00  0.00    -0.083 SA
BRANCH   6   7
HETATM    7  C   UNL     1      41.300 -12.109   1.788  1.00  0.00     0.170 A 
HETATM    8  N   UNL     1      40.229 -11.394   1.309  1.00  0.00    -0.324 N 
HETATM    9  C   UNL     1      39.661 -12.138   0.292  1.00  0.00     0.065 A 
HETATM   10  C   UNL     1      40.478 -13.263   0.194  1.00  0.00     0.088 A 
HETATM   11  C   UNL     1      38.547 -11.945  -0.536  1.00  0.00     0.034 A 
HETATM   12  N   UNL     1      41.490 -13.218   1.115  1.00  0.00    -0.222 NA
HETATM   13  C   UNL     1      40.195 -14.253  -0.757  1.00  0.00     0.057 A 
HETATM   14  C   UNL     1      39.083 -14.074  -1.584  1.00  0.00     0.036 A 
HETATM   15 CL   UNL     1      38.703 -15.278  -2.757  1.00  0.00    -0.084 Cl
HETATM   16  C   UNL     1      38.272 -12.943  -1.477  1.00  0.00     0.026 A 
BRANCH   8  17
HETATM   17  C   UNL     1      39.742 -10.110   1.780  1.00  0.00     0.131 C 
BRANCH  17  18
HETATM   18  C   UNL     1      38.518 -10.205   2.694  1.00  0.00     0.016 C 
HETATM   19  C   UNL     1      38.760  -9.646   4.090  1.00  0.00     0.006 C 
ENDBRANCH  17  18
ENDBRANCH   8  17
ENDBRANCH   6   7
ENDBRANCH   5   6
ENDBRANCH   1   5
BRANCH   2  20
HETATM   20  C   UNL     1      43.061 -15.730   4.222  1.00  0.00     0.054 A 
HETATM   21  C   UNL     1      43.615 -16.372   5.370  1.00  0.00     0.040 A 
HETATM   22 BR   UNL     1      43.675 -15.538   7.085  1.00  0.00    -0.049 Br
HETATM   23  C   UNL     1      44.005 -17.719   5.333  1.00  0.00     0.053 A 
HETATM   24  C   UNL     1      43.799 -18.391   4.153  1.00  0.00     0.064 A 
HETATM   25  C   UNL     1      43.209 -17.786   3.047  1.00  0.00     0.065 A 
HETATM   26  N   UNL     1      44.085 -19.710   3.819  1.00  0.00    -0.306 N 
HETATM   27  N   UNL     1      43.134 -18.731   2.031  1.00  0.00    -0.306 N 
HETATM   28  C   UNL     1      42.814 -16.467   3.052  1.00  0.00     0.063 A 
HETATM   29  C   UNL     1      43.681 -19.937   2.495  1.00  0.00     0.325 A 
HETATM   30  H   UNL     1      42.771 -18.609   1.100  1.00  0.00     0.170 HD
HETATM   31  O   UNL     1      43.783 -20.976   1.870  1.00  0.00    -0.247 OA
HETATM   32  H   UNL     1      44.520 -20.409   4.399  1.00  0.00     0.170 HD
ENDBRANCH   2  20
TORSDOF 6
ENDMDL
MODEL 3
REMARK VINA RESULT:      -7.9      4.869      7.899
REMARK  6 active torsions:
REMARK  status: ('A' for Active; 'I' for Inactive)
REMARK    1  A    between atoms: C_2  and  C_3 
REMARK    2  A    between atoms: C_3  and  N_4 
REMARK    3  A    between atoms: C_5  and  S_6 
REMARK    4  A    between atoms: S_6  and  C_7 
REMARK    5  A    between atoms: C_7  and  C_8 
REMARK       I    between atoms: C_8  and  N_9 
REMARK    6  A    between atoms: N_9  and  C_10 
ROOT
HETATM    1  C   UNL     1      41.454 -13.907   3.635  1.00  0.00     0.231 C 
HETATM    2  N   UNL     1      42.739 -14.396   3.441  1.00  0.00    -0.325 N 
HETATM    3  O   UNL     1      40.514 -14.577   4.061  1.00  0.00    -0.272 OA
HETATM    4  H   UNL     1      43.452 -13.686   3.573  1.00  0.00     0.169 HD
ENDROOT
BRANCH   1   5
HETATM    5  C   UNL     1      41.253 -12.443   3.270  1.00  0.00     0.185 C 
BRANCH   5   6
HETATM    6  S   UNL     1      42.824 -11.526   3.137  1.00  0.00    -0.083 SA
BRANCH   6   7
HETATM    7  C   UNL     1      43.049 -11.058   4.794  1.00  0.00     0.170 A 
HETATM    8  N   UNL     1      42.306 -10.087   5.421  1.00  0.00    -0.324 N 
HETATM    9  C   UNL     1      42.836  -9.919   6.687  1.00  0.00     0.065 A 
HETATM   10  C   UNL     1      43.864 -10.859   6.754  1.00  0.00     0.088 A 
HETATM   11  C   UNL     1      42.527  -9.067   7.755  1.00  0.00     0.034 A 
HETATM   12  N   UNL     1      43.969 -11.559   5.583  1.00  0.00    -0.222 NA
HETATM   13  C   UNL     1      44.632 -10.973   7.922  1.00  0.00     0.057 A 
HETATM   14  C   UNL     1      44.337 -10.124   8.991  1.00  0.00     0.036 A 
HETATM   15 CL   UNL     1      45.270 -10.234  10.436  1.00  0.00    -0.084 Cl
HETATM   16  C   UNL     1      43.305  -9.188   8.912  1.00  0.00     0.026 A 
BRANCH   8  17
HETATM   17  C   UNL     1      41.189  -9.339   4.876  1.00  0.00     0.131 C 
BRANCH  17  18
HETATM   18  C   UNL     1      39.826  -9.764   5.427  1.00  0.00     0.016 C 
HETATM   19  C   UNL     1      39.057  -8.625   6.083  1.00  0.00     0.006 C 
ENDBRANCH  17  18
ENDBRANCH   8  17
ENDBRANCH   6   7
ENDBRANCH   5   6
ENDBRANCH   1   5
BRANCH   2  20
HETATM   20  C   UNL     1      43.096 -15.730   3.762  1.00  0.00     0.054 A 
HETATM   21  C   UNL     1      43.611 -16.129   5.032  1.00  0.00     0.040 A 
HETATM   22 BR   UNL     1      43.591 -14.982   6.556  1.00  0.00    -0.049 Br
HETATM   23  C   UNL     1      44.019 -17.451   5.269  1.00  0.00     0.053 A 
HETATM   24  C   UNL     1      43.870 -18.339   4.233  1.00  0.00     0.064 A 
HETATM   25  C   UNL     1      43.317 -17.969   3.010  1.00  0.00     0.065 A 
HETATM   26  N   UNL     1      44.185 -19.692   4.169  1.00  0.00    -0.306 N 
HETATM   27  N   UNL     1      43.294 -19.092   2.192  1.00  0.00    -0.306 N 
HETATM   28  C   UNL     1      42.905 -16.682   2.748  1.00  0.00     0.063 A 
HETATM   29  C   UNL     1      43.837 -20.176   2.899  1.00  0.00     0.325 A 
HETATM   30  H   UNL     1      42.968 -19.158   1.242  1.00  0.00     0.170 HD
HETATM   31  O   UNL     1      43.978 -21.313   2.489  1.00  0.00    -0.247 OA
HETATM   32  H   UNL     1      44.605 -20.258   4.887  1.00  0.00     0.170 HD
ENDBRANCH   2  20
TORSDOF 6
ENDMDL
MODEL 4
REMARK VINA RESULT:      -7.9      5.634      8.519
REMARK  6 active torsions:
REMARK  status: ('A' for Active; 'I' for Inactive)
REMARK    1  A    between atoms: C_2  and  C_3 
REMARK    2  A    between atoms: C_3  and  N_4 
REMARK    3  A    between atoms: C_5  and  S_6 
REMARK    4  A    between atoms: S_6  and  C_7 
REMARK    5  A    between atoms: C_7  and  C_8 
REMARK       I    between atoms: C_8  and  N_9 
REMARK    6  A    between atoms: N_9  and  C_10 
ROOT
HETATM    1  C   UNL     1      41.185 -13.727   5.369  1.00  0.00     0.231 C 
HETATM    2  N   UNL     1      42.526 -14.043   5.184  1.00  0.00    -0.325 N 
HETATM    3  O   UNL     1      40.250 -14.467   5.068  1.00  0.00    -0.272 OA
HETATM    4  H   UNL     1      43.127 -13.615   5.880  1.00  0.00     0.169 HD
ENDROOT
BRANCH   1   5
HETATM    5  C   UNL     1      40.918 -12.358   5.980  1.00  0.00     0.185 C 
BRANCH   5   6
HETATM    6  S   UNL     1      42.095 -11.087   5.407  1.00  0.00    -0.083 SA
BRANCH   6   7
HETATM    7  C   UNL     1      42.563 -10.393   6.928  1.00  0.00     0.170 A 
HETATM    8  N   UNL     1      43.637 -10.828   7.668  1.00  0.00    -0.324 N 
HETATM    9  C   UNL     1      43.634 -10.116   8.852  1.00  0.00     0.065 A 
HETATM   10  C   UNL     1      42.554  -9.244   8.724  1.00  0.00     0.088 A 
HETATM   11  C   UNL     1      44.447 -10.140   9.993  1.00  0.00     0.034 A 
HETATM   12  N   UNL     1      41.917  -9.421   7.525  1.00  0.00    -0.222 NA
HETATM   13  C   UNL     1      42.249  -8.350   9.760  1.00  0.00     0.057 A 
HETATM   14  C   UNL     1      43.050  -8.370  10.905  1.00  0.00     0.036 A 
HETATM   15 CL   UNL     1      42.694  -7.290  12.200  1.00  0.00    -0.084 Cl
HETATM   16  C   UNL     1      44.128  -9.247  11.022  1.00  0.00     0.026 A 
BRANCH   8  17
HETATM   17  C   UNL     1      44.594 -11.859   7.313  1.00  0.00     0.131 C 
BRANCH  17  18
HETATM   18  C   UNL     1      45.768 -11.357   6.469  1.00  0.00     0.016 C 
HETATM   19  C   UNL     1      46.848 -10.661   7.286  1.00  0.00     0.006 C 
ENDBRANCH  17  18
ENDBRANCH   8  17
ENDBRANCH   6   7
ENDBRANCH   5   6
ENDBRANCH   1   5
BRANCH   2  20
HETATM   20  C   UNL     1      42.940 -15.290   4.657  1.00  0.00     0.054 A 
HETATM   21  C   UNL     1      43.037 -15.568   3.261  1.00  0.00     0.040 A 
HETATM   22 BR   UNL     1      42.923 -14.205   1.931  1.00  0.00    -0.049 Br
HETATM   23  C   UNL     1      43.380 -16.847   2.794  1.00  0.00     0.053 A 
HETATM   24  C   UNL     1      43.646 -17.801   3.745  1.00  0.00     0.064 A 
HETATM   25  C   UNL     1      43.608 -17.522   5.109  1.00  0.00     0.065 A 
HETATM   26  N   UNL     1      44.001 -19.136   3.590  1.00  0.00    -0.306 N 
HETATM   27  N   UNL     1      43.936 -18.686   5.793  1.00  0.00    -0.306 N 
HETATM   28  C   UNL     1      43.276 -16.279   5.597  1.00  0.00     0.063 A 
HETATM   29  C   UNL     1      44.180 -19.705   4.860  1.00  0.00     0.325 A 
HETATM   30  H   UNL     1      43.986 -18.824   6.789  1.00  0.00     0.170 HD
HETATM   31  O   UNL     1      44.488 -20.857   5.105  1.00  0.00    -0.247 OA
HETATM   32  H   UNL     1      44.108 -19.646   2.729  1.00  0.00     0.170 HD
ENDBRANCH   2  20
TORSDOF 6
ENDMDL
MODEL 5
REMARK VINA RESULT:      -7.7      3.296      5.007
REMARK  6 active torsions:
REMARK  status: ('A' for Active; 'I' for Inactive)
REMARK    1  A    between atoms: C_2  and  C_3 
REMARK    2  A    between atoms: C_3  and  N_4 
REMARK    3  A    between atoms: C_5  and  S_6 
REMARK    4  A    between atoms: S_6  and  C_7 
REMARK    5  A    between atoms: C_7  and  C_8 
REMARK       I    between atoms: C_8  and  N_9 
REMARK    6  A    between atoms: N_9  and  C_10 
ROOT
HETATM    1  C   UNL     1      41.862 -16.230   3.199  1.00  0.00     0.231 C 
HETATM    2  N   UNL     1      40.793 -15.396   2.896  1.00  0.00    -0.325 N 
HETATM    3  O   UNL     1      42.775 -16.497   2.420  1.00  0.00    -0.272 OA
HETATM    4  H   UNL     1      40.438 -14.904   3.709  1.00  0.00     0.169 HD
ENDROOT
BRANCH   1   5
HETATM    5  C   UNL     1      41.843 -16.831   4.598  1.00  0.00     0.185 C 
BRANCH   5   6
HETATM    6  S   UNL     1      40.678 -15.981   5.715  1.00  0.00    -0.083 SA
BRANCH   6   7
HETATM    7  C   UNL     1      41.594 -14.555   6.090  1.00  0.00     0.170 A 
HETATM    8  N   UNL     1      41.071 -13.285   6.074  1.00  0.00    -0.324 N 
HETATM    9  C   UNL     1      42.113 -12.410   6.319  1.00  0.00     0.065 A 
HETATM   10  C   UNL     1      43.216 -13.239   6.515  1.00  0.00     0.088 A 
HETATM   11  C   UNL     1      42.200 -11.013   6.392  1.00  0.00     0.034 A 
HETATM   12  N   UNL     1      42.872 -14.557   6.384  1.00  0.00    -0.222 NA
HETATM   13  C   UNL     1      44.471 -12.679   6.796  1.00  0.00     0.057 A 
HETATM   14  C   UNL     1      44.571 -11.287   6.865  1.00  0.00     0.036 A 
HETATM   15 CL   UNL     1      46.102 -10.568   7.198  1.00  0.00    -0.084 Cl
HETATM   16  C   UNL     1      43.460 -10.467   6.666  1.00  0.00     0.026 A 
BRANCH   8  17
HETATM   17  C   UNL     1      39.696 -12.899   5.822  1.00  0.00     0.131 C 
BRANCH  17  18
HETATM   18  C   UNL     1      39.427 -12.456   4.382  1.00  0.00     0.016 C 
HETATM   19  C   UNL     1      39.235 -10.952   4.237  1.00  0.00     0.006 C 
ENDBRANCH  17  18
ENDBRANCH   8  17
ENDBRANCH   6   7
ENDBRANCH   5   6
ENDBRANCH   1   5
BRANCH   2  20
HETATM   20  C   UNL     1      40.681 -14.736   1.648  1.00  0.00     0.054 A 
HETATM   21  C   UNL     1      41.277 -13.471   1.364  1.00  0.00     0.040 A 
HETATM   22 BR   UNL     1      42.557 -12.655   2.520  1.00  0.00    -0.049 Br
HETATM   23  C   UNL     1      41.069 -12.827   0.134  1.00  0.00     0.053 A 
HETATM   24  C   UNL     1      40.294 -13.488  -0.786  1.00  0.00     0.064 A 
HETATM   25  C   UNL     1      39.755 -14.747  -0.536  1.00  0.00     0.065 A 
HETATM   26  N   UNL     1      39.914 -13.105  -2.068  1.00  0.00    -0.306 N 
HETATM   27  N   UNL     1      39.041 -15.138  -1.663  1.00  0.00    -0.306 N 
HETATM   28  C   UNL     1      39.942 -15.404   0.658  1.00  0.00     0.063 A 
HETATM   29  C   UNL     1      39.126 -14.122  -2.627  1.00  0.00     0.325 A 
HETATM   30  H   UNL     1      38.522 -15.990  -1.800  1.00  0.00     0.170 HD
HETATM   31  O   UNL     1      38.616 -14.125  -3.732  1.00  0.00    -0.247 OA
HETATM   32  H   UNL     1      40.136 -12.246  -2.542  1.00  0.00     0.170 HD
ENDBRANCH   2  20
TORSDOF 6
ENDMDL
MODEL 6
REMARK VINA RESULT:      -7.7      4.115      7.920
REMARK  6 active torsions:
REMARK  status: ('A' for Active; 'I' for Inactive)
REMARK    1  A    between atoms: C_2  and  C_3 
REMARK    2  A    between atoms: C_3  and  N_4 
REMARK    3  A    between atoms: C_5  and  S_6 
REMARK    4  A    between atoms: S_6  and  C_7 
REMARK    5  A    between atoms: C_7  and  C_8 
REMARK       I    between atoms: C_8  and  N_9 
REMARK    6  A    between atoms: N_9  and  C_10 
ROOT
HETATM    1  C   UNL     1      41.618 -13.973   4.864  1.00  0.00     0.231 C 
HETATM    2  N   UNL     1      42.887 -14.504   4.670  1.00  0.00    -0.325 N 
HETATM    3  O   UNL     1      40.602 -14.647   5.026  1.00  0.00    -0.272 OA
HETATM    4  H   UNL     1      43.621 -13.906   5.036  1.00  0.00     0.169 HD
ENDROOT
BRANCH   1   5
HETATM    5  C   UNL     1      41.540 -12.453   4.856  1.00  0.00     0.185 C 
BRANCH   5   6
HETATM    6  S   UNL     1      39.911 -11.832   4.318  1.00  0.00    -0.083 SA
BRANCH   6   7
HETATM    7  C   UNL     1      40.296 -11.314   2.706  1.00  0.00     0.170 A 
HETATM    8  N   UNL     1      40.131 -12.099   1.591  1.00  0.00    -0.324 N 
HETATM    9  C   UNL     1      40.638 -11.395   0.515  1.00  0.00     0.065 A 
HETATM   10  C   UNL     1      41.045 -10.180   1.063  1.00  0.00     0.088 A 
HETATM   11  C   UNL     1      40.774 -11.687  -0.849  1.00  0.00     0.034 A 
HETATM   12  N   UNL     1      40.813 -10.145   2.411  1.00  0.00    -0.222 NA
HETATM   13  C   UNL     1      41.616  -9.198   0.241  1.00  0.00     0.057 A 
HETATM   14  C   UNL     1      41.762  -9.480  -1.119  1.00  0.00     0.036 A 
HETATM   15 CL   UNL     1      42.470  -8.297  -2.154  1.00  0.00    -0.084 Cl
HETATM   16  C   UNL     1      41.350 -10.701  -1.657  1.00  0.00     0.026 A 
BRANCH   8  17
HETATM   17  C   UNL     1      39.563 -13.433   1.526  1.00  0.00     0.131 C 
BRANCH  17  18
HETATM   18  C   UNL     1      40.602 -14.546   1.373  1.00  0.00     0.016 C 
HETATM   19  C   UNL     1      40.000 -15.945   1.410  1.00  0.00     0.006 C 
ENDBRANCH  17  18
ENDBRANCH   8  17
ENDBRANCH   6   7
ENDBRANCH   5   6
ENDBRANCH   1   5
BRANCH   2  20
HETATM   20  C   UNL     1      43.132 -15.899   4.682  1.00  0.00     0.054 A 
HETATM   21  C   UNL     1      43.416 -16.644   5.865  1.00  0.00     0.040 A 
HETATM   22 BR   UNL     1      43.195 -15.918   7.616  1.00  0.00    -0.049 Br
HETATM   23  C   UNL     1      43.726 -18.012   5.808  1.00  0.00     0.053 A 
HETATM   24  C   UNL     1      43.711 -18.598   4.566  1.00  0.00     0.064 A 
HETATM   25  C   UNL     1      43.381 -17.889   3.414  1.00  0.00     0.065 A 
HETATM   26  N   UNL     1      43.977 -19.912   4.200  1.00  0.00    -0.306 N 
HETATM   27  N   UNL     1      43.446 -18.766   2.338  1.00  0.00    -0.306 N 
HETATM   28  C   UNL     1      43.071 -16.549   3.438  1.00  0.00     0.063 A 
HETATM   29  C   UNL     1      43.821 -20.033   2.811  1.00  0.00     0.325 A 
HETATM   30  H   UNL     1      43.276 -18.565   1.366  1.00  0.00     0.170 HD
HETATM   31  O   UNL     1      43.981 -21.039   2.144  1.00  0.00    -0.247 OA
HETATM   32  H   UNL     1      44.250 -20.673   4.799  1.00  0.00     0.170 HD
ENDBRANCH   2  20
TORSDOF 6
ENDMDL
MODEL 7
REMARK VINA RESULT:      -7.5      4.093      8.514
REMARK  6 active torsions:
REMARK  status: ('A' for Active; 'I' for Inactive)
REMARK    1  A    between atoms: C_2  and  C_3 
REMARK    2  A    between atoms: C_3  and  N_4 
REMARK    3  A    between atoms: C_5  and  S_6 
REMARK    4  A    between atoms: S_6  and  C_7 
REMARK    5  A    between atoms: C_7  and  C_8 
REMARK       I    between atoms: C_8  and  N_9 
REMARK    6  A    between atoms: N_9  and  C_10 
ROOT
HETATM    1  C   UNL     1      41.443 -13.880   3.737  1.00  0.00     0.231 C 
HETATM    2  N   UNL     1      42.692 -14.393   3.411  1.00  0.00    -0.325 N 
HETATM    3  O   UNL     1      40.553 -14.522   4.293  1.00  0.00    -0.272 OA
HETATM    4  H   UNL     1      43.422 -13.688   3.434  1.00  0.00     0.169 HD
ENDROOT
BRANCH   1   5
HETATM    5  C   UNL     1      41.214 -12.426   3.346  1.00  0.00     0.185 C 
BRANCH   5   6
HETATM    6  S   UNL     1      39.607 -12.160   2.525  1.00  0.00    -0.083 SA
BRANCH   6   7
HETATM    7  C   UNL     1      40.116 -11.237   1.145  1.00  0.00     0.170 A 
HETATM    8  N   UNL     1      39.818 -11.576  -0.153  1.00  0.00    -0.324 N 
HETATM    9  C   UNL     1      40.473 -10.676  -0.973  1.00  0.00     0.065 A 
HETATM   10  C   UNL     1      41.104  -9.804  -0.087  1.00  0.00     0.088 A 
HETATM   11  C   UNL     1      40.572 -10.536  -2.363  1.00  0.00     0.034 A 
HETATM   12  N   UNL     1      40.859 -10.160   1.212  1.00  0.00    -0.222 NA
HETATM   13  C   UNL     1      41.873  -8.741  -0.581  1.00  0.00     0.057 A 
HETATM   14  C   UNL     1      41.984  -8.595  -1.965  1.00  0.00     0.036 A 
HETATM   15 CL   UNL     1      42.931  -7.303  -2.603  1.00  0.00    -0.084 Cl
HETATM   16  C   UNL     1      41.347  -9.474  -2.842  1.00  0.00     0.026 A 
BRANCH   8  17
HETATM   17  C   UNL     1      38.997 -12.682  -0.611  1.00  0.00     0.131 C 
BRANCH  17  18
HETATM   18  C   UNL     1      39.797 -13.891  -1.100  1.00  0.00     0.016 C 
HETATM   19  C   UNL     1      39.400 -14.357  -2.495  1.00  0.00     0.006 C 
ENDBRANCH  17  18
ENDBRANCH   8  17
ENDBRANCH   6   7
ENDBRANCH   5   6
ENDBRANCH   1   5
BRANCH   2  20
HETATM   20  C   UNL     1      43.071 -15.719   3.736  1.00  0.00     0.054 A 
HETATM   21  C   UNL     1      43.634 -16.099   4.990  1.00  0.00     0.040 A 
HETATM   22 BR   UNL     1      43.659 -14.933   6.501  1.00  0.00    -0.049 Br
HETATM   23  C   UNL     1      44.062 -17.414   5.229  1.00  0.00     0.053 A 
HETATM   24  C   UNL     1      43.884 -18.316   4.210  1.00  0.00     0.064 A 
HETATM   25  C   UNL     1      43.285 -17.965   3.003  1.00  0.00     0.065 A 
HETATM   26  N   UNL     1      44.208 -19.667   4.151  1.00  0.00    -0.306 N 
HETATM   27  N   UNL     1      43.243 -19.099   2.200  1.00  0.00    -0.306 N 
HETATM   28  C   UNL     1      42.854 -16.686   2.740  1.00  0.00     0.063 A 
HETATM   29  C   UNL     1      43.820 -20.169   2.900  1.00  0.00     0.325 A 
HETATM   30  H   UNL     1      42.884 -19.180   1.263  1.00  0.00     0.170 HD
HETATM   31  O   UNL     1      43.956 -21.311   2.499  1.00  0.00    -0.247 OA
HETATM   32  H   UNL     1      44.658 -20.221   4.861  1.00  0.00     0.170 HD
ENDBRANCH   2  20
TORSDOF 6
ENDMDL
MODEL 8
REMARK VINA RESULT:      -7.5      5.807      9.292
REMARK  6 active torsions:
REMARK  status: ('A' for Active; 'I' for Inactive)
REMARK    1  A    between atoms: C_2  and  C_3 
REMARK    2  A    between atoms: C_3  and  N_4 
REMARK    3  A    between atoms: C_5  and  S_6 
REMARK    4  A    between atoms: S_6  and  C_7 
REMARK    5  A    between atoms: C_7  and  C_8 
REMARK       I    between atoms: C_8  and  N_9 
REMARK    6  A    between atoms: N_9  and  C_10 
ROOT
HETATM    1  C   UNL     1      44.373 -11.308   7.201  1.00  0.00     0.231 C 
HETATM    2  N   UNL     1      43.190 -11.136   7.908  1.00  0.00    -0.325 N 
HETATM    3  O   UNL     1      45.314 -10.517   7.220  1.00  0.00    -0.272 OA
HETATM    4  H   UNL     1      42.768 -12.017   8.183  1.00  0.00     0.169 HD
ENDROOT
BRANCH   1   5
HETATM    5  C   UNL     1      44.448 -12.573   6.355  1.00  0.00     0.185 C 
BRANCH   5   6
HETATM    6  S   UNL     1      42.826 -13.072   5.685  1.00  0.00    -0.083 SA
BRANCH   6   7
HETATM    7  C   UNL     1      43.194 -14.682   5.151  1.00  0.00     0.170 A 
HETATM    8  N   UNL     1      43.079 -15.099   3.847  1.00  0.00    -0.324 N 
HETATM    9  C   UNL     1      43.354 -16.453   3.824  1.00  0.00     0.065 A 
HETATM   10  C   UNL     1      43.669 -16.760   5.147  1.00  0.00     0.088 A 
HETATM   11  C   UNL     1      43.365 -17.417   2.807  1.00  0.00     0.034 A 
HETATM   12  N   UNL     1      43.578 -15.652   5.945  1.00  0.00    -0.222 NA
HETATM   13  C   UNL     1      44.010 -18.074   5.498  1.00  0.00     0.057 A 
HETATM   14  C   UNL     1      44.018 -19.045   4.494  1.00  0.00     0.036 A 
HETATM   15 CL   UNL     1      44.423 -20.671   4.896  1.00  0.00    -0.084 Cl
HETATM   16  C   UNL     1      43.701 -18.725   3.173  1.00  0.00     0.026 A 
BRANCH   8  17
HETATM   17  C   UNL     1      42.711 -14.300   2.693  1.00  0.00     0.131 C 
BRANCH  17  18
HETATM   18  C   UNL     1      41.202 -14.201   2.459  1.00  0.00     0.016 C 
HETATM   19  C   UNL     1      40.663 -15.270   1.518  1.00  0.00     0.006 C 
ENDBRANCH  17  18
ENDBRANCH   8  17
ENDBRANCH   6   7
ENDBRANCH   5   6
ENDBRANCH   1   5
BRANCH   2  20
HETATM   20  C   UNL     1      42.978 -10.027   8.764  1.00  0.00     0.054 A 
HETATM   21  C   UNL     1      42.482  -8.766   8.319  1.00  0.00     0.040 A 
HETATM   22 BR   UNL     1      41.747  -8.506   6.577  1.00  0.00    -0.049 Br
HETATM   23  C   UNL     1      42.364  -7.678   9.198  1.00  0.00     0.053 A 
HETATM   24  C   UNL     1      42.718  -7.900  10.506  1.00  0.00     0.064 A 
HETATM   25  C   UNL     1      43.150  -9.143  10.959  1.00  0.00     0.065 A 
HETATM   26  N   UNL     1      42.714  -7.027  11.588  1.00  0.00    -0.306 N 
HETATM   27  N   UNL     1      43.414  -9.036  12.319  1.00  0.00    -0.306 N 
HETATM   28  C   UNL     1      43.275 -10.228  10.122  1.00  0.00     0.063 A 
HETATM   29  C   UNL     1      43.151  -7.720  12.727  1.00  0.00     0.325 A 
HETATM   30  H   UNL     1      43.753  -9.751  12.941  1.00  0.00     0.170 HD
HETATM   31  O   UNL     1      43.277  -7.268  13.851  1.00  0.00    -0.247 OA
HETATM   32  H   UNL     1      42.458  -6.053  11.590  1.00  0.00     0.170 HD
ENDBRANCH   2  20
TORSDOF 6
ENDMDL
MODEL 9
REMARK VINA RESULT:      -7.4      6.057      8.560
REMARK  6 active torsions:
REMARK  status: ('A' for Active; 'I' for Inactive)
REMARK    1  A    between atoms: C_2  and  C_3 
REMARK    2  A    between atoms: C_3  and  N_4 
REMARK    3  A    between atoms: C_5  and  S_6 
REMARK    4  A    between atoms: S_6  and  C_7 
REMARK    5  A    between atoms: C_7  and  C_8 
REMARK       I    between atoms: C_8  and  N_9 
REMARK    6  A    between atoms: N_9  and  C_10 
ROOT
HETATM    1  C   UNL     1      40.197 -12.215   6.059  1.00  0.00     0.231 C 
HETATM    2  N   UNL     1      41.191 -12.368   5.100  1.00  0.00    -0.325 N 
HETATM    3  O   UNL     1      39.490 -13.130   6.477  1.00  0.00    -0.272 OA
HETATM    4  H   UNL     1      41.956 -11.714   5.222  1.00  0.00     0.169 HD
ENDROOT
BRANCH   1   5
HETATM    5  C   UNL     1      40.011 -10.797   6.582  1.00  0.00     0.185 C 
BRANCH   5   6
HETATM    6  S   UNL     1      41.536  -9.801   6.480  1.00  0.00    -0.083 SA
BRANCH   6   7
HETATM    7  C   UNL     1      41.806  -9.479   8.165  1.00  0.00     0.170 A 
HETATM    8  N   UNL     1      43.052  -9.314   8.721  1.00  0.00    -0.324 N 
HETATM    9  C   UNL     1      42.878  -9.181  10.085  1.00  0.00     0.065 A 
HETATM   10  C   UNL     1      41.495  -9.232  10.260  1.00  0.00     0.088 A 
HETATM   11  C   UNL     1      43.764  -9.021  11.158  1.00  0.00     0.034 A 
HETATM   12  N   UNL     1      40.854  -9.401   9.062  1.00  0.00    -0.222 NA
HETATM   13  C   UNL     1      40.948  -9.123  11.546  1.00  0.00     0.057 A 
HETATM   14  C   UNL     1      41.822  -8.969  12.624  1.00  0.00     0.036 A 
HETATM   15 CL   UNL     1      41.180  -8.842  14.219  1.00  0.00    -0.084 Cl
HETATM   16  C   UNL     1      43.205  -8.919  12.437  1.00  0.00     0.026 A 
BRANCH   8  17
HETATM   17  C   UNL     1      44.331  -9.306   8.036  1.00  0.00     0.131 C 
BRANCH  17  18
HETATM   18  C   UNL     1      45.124 -10.608   8.180  1.00  0.00     0.016 C 
HETATM   19  C   UNL     1      44.580 -11.746   7.327  1.00  0.00     0.006 C 
ENDBRANCH  17  18
ENDBRANCH   8  17
ENDBRANCH   6   7
ENDBRANCH   5   6
ENDBRANCH   1   5
BRANCH   2  20
HETATM   20  C   UNL     1      41.508 -13.629   4.537  1.00  0.00     0.054 A 
HETATM   21  C   UNL     1      40.778 -14.226   3.467  1.00  0.00     0.040 A 
HETATM   22 BR   UNL     1      39.478 -13.270   2.449  1.00  0.00    -0.049 Br
HETATM   23  C   UNL     1      41.090 -15.513   3.000  1.00  0.00     0.053 A 
HETATM   24  C   UNL     1      42.148 -16.149   3.602  1.00  0.00     0.064 A 
HETATM   25  C   UNL     1      42.899 -15.550   4.610  1.00  0.00     0.065 A 
HETATM   26  N   UNL     1      42.680 -17.410   3.362  1.00  0.00    -0.306 N 
HETATM   27  N   UNL     1      43.893 -16.444   4.991  1.00  0.00    -0.306 N 
HETATM   28  C   UNL     1      42.619 -14.290   5.087  1.00  0.00     0.063 A 
HETATM   29  C   UNL     1      43.767 -17.612   4.225  1.00  0.00     0.325 A 
HETATM   30  H   UNL     1      44.594 -16.320   5.703  1.00  0.00     0.170 HD
HETATM   31  O   UNL     1      44.466 -18.606   4.297  1.00  0.00    -0.247 OA
HETATM   32  H   UNL     1      42.359 -18.095   2.699  1.00  0.00     0.170 HD
ENDBRANCH   2  20
TORSDOF 6
ENDMDL
MODEL 10
REMARK VINA RESULT:      -7.4      5.483      8.513
REMARK  6 active torsions:
REMARK  status: ('A' for Active; 'I' for Inactive)
REMARK    1  A    between atoms: C_2  and  C_3 
REMARK    2  A    between atoms: C_3  and  N_4 
REMARK    3  A    between atoms: C_5  and  S_6 
REMARK    4  A    between atoms: S_6  and  C_7 
REMARK    5  A    between atoms: C_7  and  C_8 
REMARK       I    between atoms: C_8  and  N_9 
REMARK    6  A    between atoms: N_9  and  C_10 
ROOT
HETATM    1  C   UNL     1      43.240 -11.319   6.207  1.00  0.00     0.231 C 
HETATM    2  N   UNL     1      43.315 -11.069   7.572  1.00  0.00    -0.325 N 
HETATM    3  O   UNL     1      42.997 -10.463   5.358  1.00  0.00    -0.272 OA
HETATM    4  H   UNL     1      43.966 -11.686   8.046  1.00  0.00     0.169 HD
ENDROOT
BRANCH   1   5
HETATM    5  C   UNL     1      43.473 -12.767   5.797  1.00  0.00     0.185 C 
BRANCH   5   6
HETATM    6  S   UNL     1      42.013 -13.521   5.005  1.00  0.00    -0.083 SA
BRANCH   6   7
HETATM    7  C   UNL     1      42.632 -15.106   4.663  1.00  0.00     0.170 A 
HETATM    8  N   UNL     1      42.662 -15.660   3.406  1.00  0.00    -0.324 N 
HETATM    9  C   UNL     1      43.119 -16.958   3.541  1.00  0.00     0.065 A 
HETATM   10  C   UNL     1      43.383 -17.088   4.903  1.00  0.00     0.088 A 
HETATM   11  C   UNL     1      43.329 -18.004   2.632  1.00  0.00     0.034 A 
HETATM   12  N   UNL     1      43.089 -15.931   5.574  1.00  0.00    -0.222 NA
HETATM   13  C   UNL     1      43.874 -18.300   5.408  1.00  0.00     0.057 A 
HETATM   14  C   UNL     1      44.081 -19.352   4.514  1.00  0.00     0.036 A 
HETATM   15 CL   UNL     1      44.675 -20.858   5.106  1.00  0.00    -0.084 Cl
HETATM   16  C   UNL     1      43.814 -19.210   3.151  1.00  0.00     0.026 A 
BRANCH   8  17
HETATM   17  C   UNL     1      42.268 -15.037   2.157  1.00  0.00     0.131 C 
BRANCH  17  18
HETATM   18  C   UNL     1      40.955 -15.572   1.580  1.00  0.00     0.016 C 
HETATM   19  C   UNL     1      40.435 -14.760   0.401  1.00  0.00     0.006 C 
ENDBRANCH  17  18
ENDBRANCH   8  17
ENDBRANCH   6   7
ENDBRANCH   5   6
ENDBRANCH   1   5
BRANCH   2  20
HETATM   20  C   UNL     1      43.153  -9.769   8.111  1.00  0.00     0.054 A 
HETATM   21  C   UNL     1      44.239  -8.934   8.508  1.00  0.00     0.040 A 
HETATM   22 BR   UNL     1      46.055  -9.334   8.076  1.00  0.00    -0.049 Br
HETATM   23  C   UNL     1      44.017  -7.685   9.107  1.00  0.00     0.053 A 
HETATM   24  C   UNL     1      42.708  -7.298   9.262  1.00  0.00     0.064 A 
HETATM   25  C   UNL     1      41.645  -8.083   8.826  1.00  0.00     0.065 A 
HETATM   26  N   UNL     1      42.185  -6.136   9.817  1.00  0.00    -0.306 N 
HETATM   27  N   UNL     1      40.466  -7.406   9.116  1.00  0.00    -0.306 N 
HETATM   28  C   UNL     1      41.831  -9.311   8.234  1.00  0.00     0.063 A 
HETATM   29  C   UNL     1      40.785  -6.191   9.739  1.00  0.00     0.325 A 
HETATM   30  H   UNL     1      39.522  -7.708   8.940  1.00  0.00     0.170 HD
HETATM   31  O   UNL     1      40.000  -5.349  10.134  1.00  0.00    -0.247 OA
HETATM   32  H   UNL     1      42.692  -5.370  10.228  1.00  0.00     0.170 HD
ENDBRANCH   2  20
TORSDOF 6
ENDMDL
