MODEL 1
REMARK VINA RESULT:      -8.2      0.000      0.000
REMARK  7 active torsions:
REMARK  status: ('A' for Active; 'I' for Inactive)
REMARK    1  A    between atoms: C_2  and  N_3 
REMARK       I    between atoms: N_3  and  C_4 
REMARK    2  A    between atoms: C_4  and  C_5 
REMARK    3  A    between atoms: C_9  and  N_10 
REMARK       I    between atoms: N_10  and  C_11 
REMARK    4  A    between atoms: C_11  and  C_12 
REMARK    5  A    between atoms: C_12  and  S_13 
REMARK    6  A    between atoms: S_13  and  C_14 
REMARK    7  A    between atoms: C_14  and  C_15 
ROOT
HETATM    1  N   UNL     1      41.951 -14.543   4.016  1.00  0.00    -0.326 N 
HETATM    2  C   UNL     1      41.351 -14.135   5.200  1.00  0.00     0.231 C 
HETATM    3  O   UNL     1      40.228 -13.650   5.316  1.00  0.00    -0.272 OA
HETATM    4  H   UNL     1      42.820 -15.067   4.109  1.00  0.00     0.169 HD
ENDROOT
BRANCH   2   5
HETATM    5  C   UNL     1      42.223 -14.347   6.429  1.00  0.00     0.177 C 
BRANCH   5   6
HETATM    6  S   UNL     1      41.989 -16.015   7.137  1.00  0.00    -0.147 SA
BRANCH   6   7
HETATM    7  C   UNL     1      43.649 -16.726   6.821  1.00  0.00     0.113 C 
HETATM    8  C   UNL     1      44.663 -15.598   6.645  1.00  0.00     0.029 C 
BRANCH   7   9
HETATM    9  C   UNL     1      43.592 -17.633   5.629  1.00  0.00     0.118 A 
HETATM   10  N   UNL     1      43.313 -17.275   4.388  1.00  0.00    -0.232 NA
HETATM   11  C   UNL     1      43.414 -18.427   3.641  1.00  0.00     0.085 A 
HETATM   12  C   UNL     1      43.816 -19.497   4.432  1.00  0.00     0.062 A 
HETATM   13  C   UNL     1      43.190 -18.635   2.272  1.00  0.00     0.034 A 
HETATM   14  N   UNL     1      43.931 -18.966   5.688  1.00  0.00    -0.342 N 
HETATM   15  C   UNL     1      44.027 -20.784   3.933  1.00  0.00     0.032 A 
HETATM   16  H   UNL     1      44.236 -19.460   6.514  1.00  0.00     0.167 HD
HETATM   17  C   UNL     1      43.801 -20.973   2.565  1.00  0.00     0.002 A 
HETATM   18  C   UNL     1      43.387 -19.919   1.747  1.00  0.00     0.002 A 
ENDBRANCH   7   9
ENDBRANCH   6   7
ENDBRANCH   5   6
ENDBRANCH   2   5
BRANCH   1  19
HETATM   19  C   UNL     1      41.437 -14.401   2.700  1.00  0.00     0.040 A 
HETATM   20  C   UNL     1      41.676 -13.202   1.991  1.00  0.00    -0.034 A 
HETATM   21  C   UNL     1      41.193 -13.060   0.672  1.00  0.00     0.026 A 
HETATM   22  C   UNL     1      42.455 -12.054   2.577  1.00  0.00     0.050 C 
HETATM   23  C   UNL     1      40.470 -14.086   0.057  1.00  0.00     0.032 A 
HETATM   24  C   UNL     1      40.199 -15.248   0.774  1.00  0.00     0.019 A 
HETATM   25  C   UNL     1      40.681 -15.403   2.079  1.00  0.00     0.031 A 
BRANCH  23  26
HETATM   26  C   UNL     1      39.957 -13.973  -1.337  1.00  0.00     0.251 C 
HETATM   27  N   UNL     1      38.770 -14.626  -1.606  1.00  0.00    -0.357 N 
HETATM   28  H   UNL     1      38.224 -14.988  -0.837  1.00  0.00     0.162 HD
HETATM   29  O   UNL     1      40.560 -13.298  -2.164  1.00  0.00    -0.268 OA
BRANCH  27  30
HETATM   30  C   UNL     1      38.113 -14.494  -2.890  1.00  0.00     0.118 C 
HETATM   31  C   UNL     1      37.108 -13.356  -2.886  1.00  0.00     0.026 C 
ENDBRANCH  27  30
ENDBRANCH  23  26
ENDBRANCH   1  19
TORSDOF 7
ENDMDL
MODEL 2
REMARK VINA RESULT:      -7.8      2.926      7.737
REMARK  7 active torsions:
REMARK  status: ('A' for Active; 'I' for Inactive)
REMARK    1  A    between atoms: C_2  and  N_3 
REMARK       I    between atoms: N_3  and  C_4 
REMARK    2  A    between atoms: C_4  and  C_5 
REMARK    3  A    between atoms: C_9  and  N_10 
REMARK       I    between atoms: N_10  and  C_11 
REMARK    4  A    between atoms: C_11  and  C_12 
REMARK    5  A    between atoms: C_12  and  S_13 
REMARK    6  A    between atoms: S_13  and  C_14 
REMARK    7  A    between atoms: C_14  and  C_15 
ROOT
HETATM    1  N   UNL     1      41.721 -12.811   2.620  1.00  0.00    -0.326 N 
HETATM    2  C   UNL     1      42.471 -11.662   2.833  1.00  0.00     0.231 C 
HETATM    3  O   UNL     1      43.679 -11.613   3.052  1.00  0.00    -0.272 OA
HETATM    4  H   UNL     1      40.764 -12.670   2.297  1.00  0.00     0.169 HD
ENDROOT
BRANCH   2   5
HETATM    5  C   UNL     1      41.654 -10.379   2.766  1.00  0.00     0.177 C 
BRANCH   5   6
HETATM    6  S   UNL     1      41.319  -9.889   1.037  1.00  0.00    -0.147 SA
BRANCH   6   7
HETATM    7  C   UNL     1      39.528 -10.271   0.944  1.00  0.00     0.113 C 
HETATM    8  C   UNL     1      38.990 -10.541   2.347  1.00  0.00     0.029 C 
BRANCH   7   9
HETATM    9  C   UNL     1      39.306 -11.428   0.016  1.00  0.00     0.118 A 
HETATM   10  N   UNL     1      39.787 -12.650   0.162  1.00  0.00    -0.232 NA
HETATM   11  C   UNL     1      39.293 -13.369  -0.902  1.00  0.00     0.085 A 
HETATM   12  C   UNL     1      38.452 -12.586  -1.683  1.00  0.00     0.062 A 
HETATM   13  C   UNL     1      39.510 -14.707  -1.264  1.00  0.00     0.034 A 
HETATM   14  N   UNL     1      38.469 -11.359  -1.075  1.00  0.00    -0.342 N 
HETATM   15  C   UNL     1      37.787 -13.063  -2.814  1.00  0.00     0.032 A 
HETATM   16  H   UNL     1      37.939 -10.549  -1.361  1.00  0.00     0.167 HD
HETATM   17  C   UNL     1      38.013 -14.401  -3.158  1.00  0.00     0.002 A 
HETATM   18  C   UNL     1      38.862 -15.210  -2.400  1.00  0.00     0.002 A 
ENDBRANCH   7   9
ENDBRANCH   6   7
ENDBRANCH   5   6
ENDBRANCH   2   5
BRANCH   1  19
HETATM   19  C   UNL     1      42.168 -14.156   2.702  1.00  0.00     0.040 A 
HETATM   20  C   UNL     1      41.951 -14.884   3.894  1.00  0.00    -0.034 A 
HETATM   21  C   UNL     1      42.368 -16.230   3.978  1.00  0.00     0.026 A 
HETATM   22  C   UNL     1      41.265 -14.289   5.094  1.00  0.00     0.050 C 
HETATM   23  C   UNL     1      43.004 -16.854   2.901  1.00  0.00     0.032 A 
HETATM   24  C   UNL     1      43.255 -16.121   1.744  1.00  0.00     0.019 A 
HETATM   25  C   UNL     1      42.838 -14.788   1.647  1.00  0.00     0.031 A 
BRANCH  23  26
HETATM   26  C   UNL     1      43.445 -18.276   2.952  1.00  0.00     0.251 C 
HETATM   27  N   UNL     1      44.021 -18.695   4.135  1.00  0.00    -0.357 N 
HETATM   28  H   UNL     1      43.961 -18.098   4.948  1.00  0.00     0.162 HD
HETATM   29  O   UNL     1      43.255 -19.016   1.993  1.00  0.00    -0.268 OA
BRANCH  27  30
HETATM   30  C   UNL     1      44.382 -20.081   4.347  1.00  0.00     0.118 C 
HETATM   31  C   UNL     1      43.805 -20.613   5.647  1.00  0.00     0.026 C 
ENDBRANCH  27  30
ENDBRANCH  23  26
ENDBRANCH   1  19
TORSDOF 7
ENDMDL
MODEL 3
REMARK VINA RESULT:      -7.8      2.921      6.462
REMARK  7 active torsions:
REMARK  status: ('A' for Active; 'I' for Inactive)
REMARK    1  A    between atoms: C_2  and  N_3 
REMARK       I    between atoms: N_3  and  C_4 
REMARK    2  A    between atoms: C_4  and  C_5 
REMARK    3  A    between atoms: C_9  and  N_10 
REMARK       I    between atoms: N_10  and  C_11 
REMARK    4  A    between atoms: C_11  and  C_12 
REMARK    5  A    between atoms: C_12  and  S_13 
REMARK    6  A    between atoms: S_13  and  C_14 
REMARK    7  A    between atoms: C_14  and  C_15 
ROOT
HETATM    1  N   UNL     1      41.486 -13.044   2.781  1.00  0.00    -0.326 N 
HETATM    2  C   UNL     1      42.276 -11.903   2.815  1.00  0.00     0.231 C 
HETATM    3  O   UNL     1      43.503 -11.868   2.809  1.00  0.00    -0.272 OA
HETATM    4  H   UNL     1      40.488 -12.897   2.632  1.00  0.00     0.169 HD
ENDROOT
BRANCH   2   5
HETATM    5  C   UNL     1      41.475 -10.609   2.853  1.00  0.00     0.177 C 
BRANCH   5   6
HETATM    6  S   UNL     1      41.716  -9.718   4.431  1.00  0.00    -0.147 SA
BRANCH   6   7
HETATM    7  C   UNL     1      40.364 -10.462   5.421  1.00  0.00     0.113 C 
HETATM    8  C   UNL     1      40.050  -9.562   6.614  1.00  0.00     0.029 C 
BRANCH   7   9
HETATM    9  C   UNL     1      40.748 -11.849   5.839  1.00  0.00     0.118 A 
HETATM   10  N   UNL     1      40.022 -12.942   5.682  1.00  0.00    -0.232 NA
HETATM   11  C   UNL     1      40.790 -13.970   6.178  1.00  0.00     0.085 A 
HETATM   12  C   UNL     1      42.030 -13.504   6.597  1.00  0.00     0.062 A 
HETATM   13  C   UNL     1      40.500 -15.337   6.293  1.00  0.00     0.034 A 
HETATM   14  N   UNL     1      41.983 -12.156   6.364  1.00  0.00    -0.342 N 
HETATM   15  C   UNL     1      43.026 -14.332   7.120  1.00  0.00     0.032 A 
HETATM   16  H   UNL     1      42.734 -11.500   6.525  1.00  0.00     0.167 HD
HETATM   17  C   UNL     1      42.720 -15.693   7.225  1.00  0.00     0.002 A 
HETATM   18  C   UNL     1      41.478 -16.190   6.823  1.00  0.00     0.002 A 
ENDBRANCH   7   9
ENDBRANCH   6   7
ENDBRANCH   5   6
ENDBRANCH   2   5
BRANCH   1  19
HETATM   19  C   UNL     1      41.925 -14.394   2.827  1.00  0.00     0.040 A 
HETATM   20  C   UNL     1      41.166 -15.390   2.172  1.00  0.00    -0.034 A 
HETATM   21  C   UNL     1      41.608 -16.730   2.189  1.00  0.00     0.026 A 
HETATM   22  C   UNL     1      39.897 -15.082   1.425  1.00  0.00     0.050 C 
HETATM   23  C   UNL     1      42.783 -17.092   2.854  1.00  0.00     0.032 A 
HETATM   24  C   UNL     1      43.505 -16.115   3.535  1.00  0.00     0.019 A 
HETATM   25  C   UNL     1      43.081 -14.782   3.517  1.00  0.00     0.031 A 
BRANCH  23  26
HETATM   26  C   UNL     1      43.283 -18.495   2.880  1.00  0.00     0.251 C 
HETATM   27  N   UNL     1      43.876 -18.911   4.056  1.00  0.00    -0.357 N 
HETATM   28  H   UNL     1      43.791 -18.332   4.880  1.00  0.00     0.162 HD
HETATM   29  O   UNL     1      43.125 -19.225   1.908  1.00  0.00    -0.268 OA
BRANCH  27  30
HETATM   30  C   UNL     1      44.296 -20.284   4.244  1.00  0.00     0.118 C 
HETATM   31  C   UNL     1      43.852 -20.822   5.592  1.00  0.00     0.026 C 
ENDBRANCH  27  30
ENDBRANCH  23  26
ENDBRANCH   1  19
TORSDOF 7
ENDMDL
MODEL 4
REMARK VINA RESULT:      -7.6      6.484      9.982
REMARK  7 active torsions:
REMARK  status: ('A' for Active; 'I' for Inactive)
REMARK    1  A    between atoms: C_2  and  N_3 
REMARK       I    between atoms: N_3  and  C_4 
REMARK    2  A    between atoms: C_4  and  C_5 
REMARK    3  A    between atoms: C_9  and  N_10 
REMARK       I    between atoms: N_10  and  C_11 
REMARK    4  A    between atoms: C_11  and  C_12 
REMARK    5  A    between atoms: C_12  and  S_13 
REMARK    6  A    between atoms: S_13  and  C_14 
REMARK    7  A    between atoms: C_14  and  C_15 
ROOT
HETATM    1  N   UNL     1      43.392 -10.583   8.737  1.00  0.00    -0.326 N 
HETATM    2  C   UNL     1      44.572 -11.044   8.169  1.00  0.00     0.231 C 
HETATM    3  O   UNL     1      45.697 -10.952   8.654  1.00  0.00    -0.272 OA
HETATM    4  H   UNL     1      42.528 -10.877   8.282  1.00  0.00     0.169 HD
ENDROOT
BRANCH   2   5
HETATM    5  C   UNL     1      44.374 -11.726   6.822  1.00  0.00     0.177 C 
BRANCH   5   6
HETATM    6  S   UNL     1      43.632 -13.385   7.015  1.00  0.00    -0.147 SA
BRANCH   6   7
HETATM    7  C   UNL     1      42.741 -13.518   5.417  1.00  0.00     0.113 C 
HETATM    8  C   UNL     1      41.253 -13.256   5.639  1.00  0.00     0.029 C 
BRANCH   7   9
HETATM    9  C   UNL     1      42.999 -14.861   4.805  1.00  0.00     0.118 A 
HETATM   10  N   UNL     1      43.645 -15.866   5.370  1.00  0.00    -0.232 NA
HETATM   11  C   UNL     1      43.601 -16.893   4.455  1.00  0.00     0.085 A 
HETATM   12  C   UNL     1      42.867 -16.527   3.333  1.00  0.00     0.062 A 
HETATM   13  C   UNL     1      44.156 -18.180   4.517  1.00  0.00     0.034 A 
HETATM   14  N   UNL     1      42.488 -15.235   3.583  1.00  0.00    -0.342 N 
HETATM   15  C   UNL     1      42.633 -17.382   2.255  1.00  0.00     0.032 A 
HETATM   16  H   UNL     1      41.911 -14.661   2.985  1.00  0.00     0.167 HD
HETATM   17  C   UNL     1      43.192 -18.662   2.335  1.00  0.00     0.002 A 
HETATM   18  C   UNL     1      43.944 -19.057   3.445  1.00  0.00     0.002 A 
ENDBRANCH   7   9
ENDBRANCH   6   7
ENDBRANCH   5   6
ENDBRANCH   2   5
BRANCH   1  19
HETATM   19  C   UNL     1      43.251  -9.835   9.935  1.00  0.00     0.040 A 
HETATM   20  C   UNL     1      43.158  -8.427   9.863  1.00  0.00    -0.034 A 
HETATM   21  C   UNL     1      42.991  -7.674  11.046  1.00  0.00     0.026 A 
HETATM   22  C   UNL     1      43.207  -7.676   8.559  1.00  0.00     0.050 C 
HETATM   23  C   UNL     1      42.927  -8.302  12.294  1.00  0.00     0.032 A 
HETATM   24  C   UNL     1      43.063  -9.685  12.365  1.00  0.00     0.019 A 
HETATM   25  C   UNL     1      43.220 -10.442  11.197  1.00  0.00     0.031 A 
BRANCH  23  26
HETATM   26  C   UNL     1      42.739  -7.539  13.560  1.00  0.00     0.251 C 
HETATM   27  N   UNL     1      41.439  -7.412  14.009  1.00  0.00    -0.357 N 
HETATM   28  H   UNL     1      40.715  -7.970  13.579  1.00  0.00     0.162 HD
HETATM   29  O   UNL     1      43.709  -7.096  14.164  1.00  0.00    -0.268 OA
BRANCH  27  30
HETATM   30  C   UNL     1      41.140  -6.795  15.284  1.00  0.00     0.118 C 
HETATM   31  C   UNL     1      41.099  -7.820  16.402  1.00  0.00     0.026 C 
ENDBRANCH  27  30
ENDBRANCH  23  26
ENDBRANCH   1  19
TORSDOF 7
ENDMDL
MODEL 5
REMARK VINA RESULT:      -7.5      5.138      8.980
REMARK  7 active torsions:
REMARK  status: ('A' for Active; 'I' for Inactive)
REMARK    1  A    between atoms: C_2  and  N_3 
REMARK       I    between atoms: N_3  and  C_4 
REMARK    2  A    between atoms: C_4  and  C_5 
REMARK    3  A    between atoms: C_9  and  N_10 
REMARK       I    between atoms: N_10  and  C_11 
REMARK    4  A    between atoms: C_11  and  C_12 
REMARK    5  A    between atoms: C_12  and  S_13 
REMARK    6  A    between atoms: S_13  and  C_14 
REMARK    7  A    between atoms: C_14  and  C_15 
ROOT
HETATM    1  N   UNL     1      42.345 -12.515   4.766  1.00  0.00    -0.326 N 
HETATM    2  C   UNL     1      43.127 -11.387   4.551  1.00  0.00     0.231 C 
HETATM    3  O   UNL     1      44.173 -11.341   3.910  1.00  0.00    -0.272 OA
HETATM    4  H   UNL     1      41.429 -12.355   5.184  1.00  0.00     0.169 HD
ENDROOT
BRANCH   2   5
HETATM    5  C   UNL     1      42.565 -10.126   5.192  1.00  0.00     0.177 C 
BRANCH   5   6
HETATM    6  S   UNL     1      42.131 -10.402   6.946  1.00  0.00    -0.147 SA
BRANCH   6   7
HETATM    7  C   UNL     1      43.707  -9.905   7.741  1.00  0.00     0.113 C 
HETATM    8  C   UNL     1      44.731 -11.028   7.591  1.00  0.00     0.029 C 
BRANCH   7   9
HETATM    9  C   UNL     1      43.458  -9.549   9.176  1.00  0.00     0.118 A 
HETATM   10  N   UNL     1      43.503  -8.336   9.698  1.00  0.00    -0.232 NA
HETATM   11  C   UNL     1      43.173  -8.494  11.025  1.00  0.00     0.085 A 
HETATM   12  C   UNL     1      42.869  -9.820  11.306  1.00  0.00     0.062 A 
HETATM   13  C   UNL     1      43.099  -7.544  12.054  1.00  0.00     0.034 A 
HETATM   14  N   UNL     1      43.049 -10.469  10.114  1.00  0.00    -0.342 N 
HETATM   15  C   UNL     1      42.473 -10.267  12.568  1.00  0.00     0.032 A 
HETATM   16  H   UNL     1      42.885 -11.451   9.943  1.00  0.00     0.167 HD
HETATM   17  C   UNL     1      42.402  -9.306  13.582  1.00  0.00     0.002 A 
HETATM   18  C   UNL     1      42.713  -7.967  13.333  1.00  0.00     0.002 A 
ENDBRANCH   7   9
ENDBRANCH   6   7
ENDBRANCH   5   6
ENDBRANCH   2   5
BRANCH   1  19
HETATM   19  C   UNL     1      42.636 -13.849   4.376  1.00  0.00     0.040 A 
HETATM   20  C   UNL     1      43.113 -14.762   5.343  1.00  0.00    -0.034 A 
HETATM   21  C   UNL     1      43.381 -16.098   4.973  1.00  0.00     0.026 A 
HETATM   22  C   UNL     1      43.332 -14.379   6.783  1.00  0.00     0.050 C 
HETATM   23  C   UNL     1      43.192 -16.530   3.657  1.00  0.00     0.032 A 
HETATM   24  C   UNL     1      42.764 -15.617   2.698  1.00  0.00     0.019 A 
HETATM   25  C   UNL     1      42.487 -14.293   3.056  1.00  0.00     0.031 A 
BRANCH  23  26
HETATM   26  C   UNL     1      43.453 -17.935   3.236  1.00  0.00     0.251 C 
HETATM   27  N   UNL     1      43.885 -18.799   4.223  1.00  0.00    -0.357 N 
HETATM   28  H   UNL     1      43.837 -18.504   5.188  1.00  0.00     0.162 HD
HETATM   29  O   UNL     1      43.247 -18.281   2.078  1.00  0.00    -0.268 OA
BRANCH  27  30
HETATM   30  C   UNL     1      44.060 -20.212   3.964  1.00  0.00     0.118 C 
HETATM   31  C   UNL     1      43.958 -21.029   5.240  1.00  0.00     0.026 C 
ENDBRANCH  27  30
ENDBRANCH  23  26
ENDBRANCH   1  19
TORSDOF 7
ENDMDL
MODEL 6
REMARK VINA RESULT:      -7.4      4.233      7.869
REMARK  7 active torsions:
REMARK  status: ('A' for Active; 'I' for Inactive)
REMARK    1  A    between atoms: C_2  and  N_3 
REMARK       I    between atoms: N_3  and  C_4 
REMARK    2  A    between atoms: C_4  and  C_5 
REMARK    3  A    between atoms: C_9  and  N_10 
REMARK       I    between atoms: N_10  and  C_11 
REMARK    4  A    between atoms: C_11  and  C_12 
REMARK    5  A    between atoms: C_12  and  S_13 
REMARK    6  A    between atoms: S_13  and  C_14 
REMARK    7  A    between atoms: C_14  and  C_15 
ROOT
HETATM    1  N   UNL     1      40.497 -12.326   4.471  1.00  0.00    -0.326 N 
HETATM    2  C   UNL     1      39.467 -12.017   5.351  1.00  0.00     0.231 C 
HETATM    3  O   UNL     1      39.091 -12.701   6.299  1.00  0.00    -0.272 OA
HETATM    4  H   UNL     1      40.786 -11.582   3.838  1.00  0.00     0.169 HD
ENDROOT
BRANCH   2   5
HETATM    5  C   UNL     1      38.794 -10.684   5.055  1.00  0.00     0.177 C 
BRANCH   5   6
HETATM    6  S   UNL     1      39.932  -9.282   5.338  1.00  0.00    -0.147 SA
BRANCH   6   7
HETATM    7  C   UNL     1      40.221  -9.471   7.139  1.00  0.00     0.113 C 
HETATM    8  C   UNL     1      39.547  -8.323   7.888  1.00  0.00     0.029 C 
BRANCH   7   9
HETATM    9  C   UNL     1      41.694  -9.541   7.409  1.00  0.00     0.118 A 
HETATM   10  N   UNL     1      42.431  -8.599   7.971  1.00  0.00    -0.232 NA
HETATM   11  C   UNL     1      43.702  -9.122   8.045  1.00  0.00     0.085 A 
HETATM   12  C   UNL     1      43.730 -10.427   7.568  1.00  0.00     0.062 A 
HETATM   13  C   UNL     1      44.887  -8.542   8.520  1.00  0.00     0.034 A 
HETATM   14  N   UNL     1      42.442 -10.674   7.179  1.00  0.00    -0.342 N 
HETATM   15  C   UNL     1      44.884 -11.213   7.550  1.00  0.00     0.032 A 
HETATM   16  H   UNL     1      42.091 -11.546   6.809  1.00  0.00     0.167 HD
HETATM   17  C   UNL     1      46.057 -10.620   8.030  1.00  0.00     0.002 A 
HETATM   18  C   UNL     1      46.062  -9.306   8.505  1.00  0.00     0.002 A 
ENDBRANCH   7   9
ENDBRANCH   6   7
ENDBRANCH   5   6
ENDBRANCH   2   5
BRANCH   1  19
HETATM   19  C   UNL     1      41.256 -13.525   4.427  1.00  0.00     0.040 A 
HETATM   20  C   UNL     1      40.929 -14.515   3.473  1.00  0.00    -0.034 A 
HETATM   21  C   UNL     1      41.694 -15.699   3.402  1.00  0.00     0.026 A 
HETATM   22  C   UNL     1      39.795 -14.356   2.495  1.00  0.00     0.050 C 
HETATM   23  C   UNL     1      42.768 -15.914   4.270  1.00  0.00     0.032 A 
HETATM   24  C   UNL     1      43.061 -14.955   5.237  1.00  0.00     0.019 A 
HETATM   25  C   UNL     1      42.314 -13.774   5.310  1.00  0.00     0.031 A 
BRANCH  23  26
HETATM   26  C   UNL     1      43.604 -17.146   4.213  1.00  0.00     0.251 C 
HETATM   27  N   UNL     1      43.258 -18.075   3.252  1.00  0.00    -0.357 N 
HETATM   28  H   UNL     1      42.593 -17.816   2.536  1.00  0.00     0.162 HD
HETATM   29  O   UNL     1      44.562 -17.278   4.967  1.00  0.00    -0.268 OA
BRANCH  27  30
HETATM   30  C   UNL     1      44.062 -19.256   3.022  1.00  0.00     0.118 C 
HETATM   31  C   UNL     1      43.431 -20.166   1.983  1.00  0.00     0.026 C 
ENDBRANCH  27  30
ENDBRANCH  23  26
ENDBRANCH   1  19
TORSDOF 7
ENDMDL
MODEL 7
REMARK VINA RESULT:      -7.4      3.943      7.854
REMARK  7 active torsions:
REMARK  status: ('A' for Active; 'I' for Inactive)
REMARK    1  A    between atoms: C_2  and  N_3 
REMARK       I    between atoms: N_3  and  C_4 
REMARK    2  A    between atoms: C_4  and  C_5 
REMARK    3  A    between atoms: C_9  and  N_10 
REMARK       I    between atoms: N_10  and  C_11 
REMARK    4  A    between atoms: C_11  and  C_12 
REMARK    5  A    between atoms: C_12  and  S_13 
REMARK    6  A    between atoms: S_13  and  C_14 
REMARK    7  A    between atoms: C_14  and  C_15 
ROOT
HETATM    1  N   UNL     1      42.662 -12.752   3.218  1.00  0.00    -0.326 N 
HETATM    2  C   UNL     1      41.490 -12.061   2.937  1.00  0.00     0.231 C 
HETATM    3  O   UNL     1      40.405 -12.558   2.649  1.00  0.00    -0.272 OA
HETATM    4  H   UNL     1      43.432 -12.199   3.592  1.00  0.00     0.169 HD
ENDROOT
BRANCH   2   5
HETATM    5  C   UNL     1      41.641 -10.548   3.021  1.00  0.00     0.177 C 
BRANCH   5   6
HETATM    6  S   UNL     1      40.480  -9.827   4.235  1.00  0.00    -0.147 SA
BRANCH   6   7
HETATM    7  C   UNL     1      40.815 -10.912   5.674  1.00  0.00     0.113 C 
HETATM    8  C   UNL     1      39.604 -10.916   6.604  1.00  0.00     0.029 C 
BRANCH   7   9
HETATM    9  C   UNL     1      42.065 -10.461   6.366  1.00  0.00     0.118 A 
HETATM   10  N   UNL     1      42.161  -9.475   7.241  1.00  0.00    -0.232 NA
HETATM   11  C   UNL     1      43.481  -9.455   7.629  1.00  0.00     0.085 A 
HETATM   12  C   UNL     1      44.193 -10.482   7.021  1.00  0.00     0.062 A 
HETATM   13  C   UNL     1      44.147  -8.592   8.512  1.00  0.00     0.034 A 
HETATM   14  N   UNL     1      43.271 -11.112   6.231  1.00  0.00    -0.342 N 
HETATM   15  C   UNL     1      45.549 -10.718   7.252  1.00  0.00     0.032 A 
HETATM   16  H   UNL     1      43.437 -11.931   5.663  1.00  0.00     0.167 HD
HETATM   17  C   UNL     1      46.197  -9.850   8.138  1.00  0.00     0.002 A 
HETATM   18  C   UNL     1      45.511  -8.801   8.756  1.00  0.00     0.002 A 
ENDBRANCH   7   9
ENDBRANCH   6   7
ENDBRANCH   5   6
ENDBRANCH   2   5
BRANCH   1  19
HETATM   19  C   UNL     1      42.870 -14.154   3.141  1.00  0.00     0.040 A 
HETATM   20  C   UNL     1      42.697 -14.943   4.300  1.00  0.00    -0.034 A 
HETATM   21  C   UNL     1      42.875 -16.341   4.229  1.00  0.00     0.026 A 
HETATM   22  C   UNL     1      42.301 -14.356   5.629  1.00  0.00     0.050 C 
HETATM   23  C   UNL     1      43.233 -16.960   3.028  1.00  0.00     0.032 A 
HETATM   24  C   UNL     1      43.446 -16.175   1.898  1.00  0.00     0.019 A 
HETATM   25  C   UNL     1      43.262 -14.788   1.955  1.00  0.00     0.031 A 
BRANCH  23  26
HETATM   26  C   UNL     1      43.417 -18.434   2.915  1.00  0.00     0.251 C 
HETATM   27  N   UNL     1      44.121 -19.042   3.936  1.00  0.00    -0.357 N 
HETATM   28  H   UNL     1      44.321 -18.515   4.775  1.00  0.00     0.162 HD
HETATM   29  O   UNL     1      42.924 -19.048   1.976  1.00  0.00    -0.268 OA
BRANCH  27  30
HETATM   30  C   UNL     1      44.265 -20.481   3.999  1.00  0.00     0.118 C 
HETATM   31  C   UNL     1      43.811 -21.027   5.341  1.00  0.00     0.026 C 
ENDBRANCH  27  30
ENDBRANCH  23  26
ENDBRANCH   1  19
TORSDOF 7
ENDMDL
MODEL 8
REMARK VINA RESULT:      -7.3      3.640      7.394
REMARK  7 active torsions:
REMARK  status: ('A' for Active; 'I' for Inactive)
REMARK    1  A    between atoms: C_2  and  N_3 
REMARK       I    between atoms: N_3  and  C_4 
REMARK    2  A    between atoms: C_4  and  C_5 
REMARK    3  A    between atoms: C_9  and  N_10 
REMARK       I    between atoms: N_10  and  C_11 
REMARK    4  A    between atoms: C_11  and  C_12 
REMARK    5  A    between atoms: C_12  and  S_13 
REMARK    6  A    between atoms: S_13  and  C_14 
REMARK    7  A    between atoms: C_14  and  C_15 
ROOT
HETATM    1  N   UNL     1      41.649 -12.272   3.736  1.00  0.00    -0.326 N 
HETATM    2  C   UNL     1      41.725 -11.626   2.509  1.00  0.00     0.231 C 
HETATM    3  O   UNL     1      42.471 -10.693   2.224  1.00  0.00    -0.272 OA
HETATM    4  H   UNL     1      41.093 -13.126   3.762  1.00  0.00     0.169 HD
ENDROOT
BRANCH   2   5
HETATM    5  C   UNL     1      40.770 -12.188   1.465  1.00  0.00     0.177 C 
BRANCH   5   6
HETATM    6  S   UNL     1      39.868 -13.646   2.099  1.00  0.00    -0.147 SA
BRANCH   6   7
HETATM    7  C   UNL     1      40.737 -14.976   1.182  1.00  0.00     0.113 C 
HETATM    8  C   UNL     1      39.713 -15.925   0.566  1.00  0.00     0.029 C 
BRANCH   7   9
HETATM    9  C   UNL     1      41.690 -15.682   2.100  1.00  0.00     0.118 A 
HETATM   10  N   UNL     1      42.117 -15.243   3.271  1.00  0.00    -0.232 NA
HETATM   11  C   UNL     1      42.937 -16.234   3.759  1.00  0.00     0.085 A 
HETATM   12  C   UNL     1      42.968 -17.322   2.895  1.00  0.00     0.062 A 
HETATM   13  C   UNL     1      43.683 -16.283   4.945  1.00  0.00     0.034 A 
HETATM   14  N   UNL     1      42.162 -16.951   1.853  1.00  0.00    -0.342 N 
HETATM   15  C   UNL     1      43.698 -18.485   3.149  1.00  0.00     0.032 A 
HETATM   16  H   UNL     1      41.931 -17.520   1.050  1.00  0.00     0.167 HD
HETATM   17  C   UNL     1      44.434 -18.518   4.339  1.00  0.00     0.002 A 
HETATM   18  C   UNL     1      44.431 -17.435   5.222  1.00  0.00     0.002 A 
ENDBRANCH   7   9
ENDBRANCH   6   7
ENDBRANCH   5   6
ENDBRANCH   2   5
BRANCH   1  19
HETATM   19  C   UNL     1      42.340 -11.933   4.929  1.00  0.00     0.040 A 
HETATM   20  C   UNL     1      41.834 -10.900   5.750  1.00  0.00    -0.034 A 
HETATM   21  C   UNL     1      42.498 -10.572   6.952  1.00  0.00     0.026 A 
HETATM   22  C   UNL     1      40.585 -10.132   5.411  1.00  0.00     0.050 C 
HETATM   23  C   UNL     1      43.659 -11.248   7.339  1.00  0.00     0.032 A 
HETATM   24  C   UNL     1      44.179 -12.235   6.506  1.00  0.00     0.019 A 
HETATM   25  C   UNL     1      43.523 -12.574   5.317  1.00  0.00     0.031 A 
BRANCH  23  26
HETATM   26  C   UNL     1      44.377 -10.935   8.607  1.00  0.00     0.251 C 
HETATM   27  N   UNL     1      43.586 -10.637   9.699  1.00  0.00    -0.357 N 
HETATM   28  H   UNL     1      42.592 -10.810   9.647  1.00  0.00     0.162 HD
HETATM   29  O   UNL     1      45.601 -10.988   8.652  1.00  0.00    -0.268 OA
BRANCH  27  30
HETATM   30  C   UNL     1      44.162 -10.430  11.011  1.00  0.00     0.118 C 
HETATM   31  C   UNL     1      43.088 -10.196  12.059  1.00  0.00     0.026 C 
ENDBRANCH  27  30
ENDBRANCH  23  26
ENDBRANCH   1  19
TORSDOF 7
ENDMDL
MODEL 9
REMARK VINA RESULT:      -7.3      3.177      8.070
REMARK  7 active torsions:
REMARK  status: ('A' for Active; 'I' for Inactive)
REMARK    1  A    between atoms: C_2  and  N_3 
REMARK       I    between atoms: N_3  and  C_4 
REMARK    2  A    between atoms: C_4  and  C_5 
REMARK    3  A    between atoms: C_9  and  N_10 
REMARK       I    between atoms: N_10  and  C_11 
REMARK    4  A    between atoms: C_11  and  C_12 
REMARK    5  A    between atoms: C_12  and  S_13 
REMARK    6  A    between atoms: S_13  and  C_14 
REMARK    7  A    between atoms: C_14  and  C_15 
ROOT
HETATM    1  N   UNL     1      39.093 -13.563   2.759  1.00  0.00    -0.326 N 
HETATM    2  C   UNL     1      39.306 -12.234   2.417  1.00  0.00     0.231 C 
HETATM    3  O   UNL     1      40.386 -11.718   2.143  1.00  0.00    -0.272 OA
HETATM    4  H   UNL     1      38.121 -13.867   2.802  1.00  0.00     0.169 HD
ENDROOT
BRANCH   2   5
HETATM    5  C   UNL     1      38.032 -11.401   2.390  1.00  0.00     0.177 C 
BRANCH   5   6
HETATM    6  S   UNL     1      38.383  -9.654   1.984  1.00  0.00    -0.147 SA
BRANCH   6   7
HETATM    7  C   UNL     1      37.659  -9.571   0.301  1.00  0.00     0.113 C 
HETATM    8  C   UNL     1      36.137  -9.512   0.402  1.00  0.00     0.029 C 
BRANCH   7   9
HETATM    9  C   UNL     1      38.132 -10.740  -0.510  1.00  0.00     0.118 A 
HETATM   10  N   UNL     1      37.368 -11.650  -1.087  1.00  0.00    -0.232 NA
HETATM   11  C   UNL     1      38.234 -12.494  -1.745  1.00  0.00     0.085 A 
HETATM   12  C   UNL     1      39.547 -12.060  -1.611  1.00  0.00     0.062 A 
HETATM   13  C   UNL     1      37.970 -13.652  -2.491  1.00  0.00     0.034 A 
HETATM   14  N   UNL     1      39.456 -10.940  -0.830  1.00  0.00    -0.342 N 
HETATM   15  C   UNL     1      40.634 -12.710  -2.198  1.00  0.00     0.032 A 
HETATM   16  H   UNL     1      40.225 -10.345  -0.555  1.00  0.00     0.167 HD
HETATM   17  C   UNL     1      40.353 -13.861  -2.941  1.00  0.00     0.002 A 
HETATM   18  C   UNL     1      39.044 -14.328  -3.085  1.00  0.00     0.002 A 
ENDBRANCH   7   9
ENDBRANCH   6   7
ENDBRANCH   5   6
ENDBRANCH   2   5
BRANCH   1  19
HETATM   19  C   UNL     1      40.078 -14.567   2.954  1.00  0.00     0.040 A 
HETATM   20  C   UNL     1      40.467 -15.374   1.861  1.00  0.00    -0.034 A 
HETATM   21  C   UNL     1      41.464 -16.358   2.036  1.00  0.00     0.026 A 
HETATM   22  C   UNL     1      39.874 -15.219   0.486  1.00  0.00     0.050 C 
HETATM   23  C   UNL     1      42.068 -16.554   3.282  1.00  0.00     0.032 A 
HETATM   24  C   UNL     1      41.652 -15.787   4.366  1.00  0.00     0.019 A 
HETATM   25  C   UNL     1      40.670 -14.803   4.201  1.00  0.00     0.031 A 
BRANCH  23  26
HETATM   26  C   UNL     1      43.132 -17.574   3.498  1.00  0.00     0.251 C 
HETATM   27  N   UNL     1      43.150 -18.636   2.615  1.00  0.00    -0.357 N 
HETATM   28  H   UNL     1      42.578 -18.591   1.783  1.00  0.00     0.162 HD
HETATM   29  O   UNL     1      43.955 -17.428   4.395  1.00  0.00    -0.268 OA
BRANCH  27  30
HETATM   30  C   UNL     1      44.203 -19.628   2.651  1.00  0.00     0.118 C 
HETATM   31  C   UNL     1      43.774 -20.868   3.415  1.00  0.00     0.026 C 
ENDBRANCH  27  30
ENDBRANCH  23  26
ENDBRANCH   1  19
TORSDOF 7
ENDMDL
MODEL 10
REMARK VINA RESULT:      -7.2      4.081      8.088
REMARK  7 active torsions:
REMARK  status: ('A' for Active; 'I' for Inactive)
REMARK    1  A    between atoms: C_2  and  N_3 
REMARK       I    between atoms: N_3  and  C_4 
REMARK    2  A    between atoms: C_4  and  C_5 
REMARK    3  A    between atoms: C_9  and  N_10 
REMARK       I    between atoms: N_10  and  C_11 
REMARK    4  A    between atoms: C_11  and  C_12 
REMARK    5  A    between atoms: C_12  and  S_13 
REMARK    6  A    between atoms: S_13  and  C_14 
REMARK    7  A    between atoms: C_14  and  C_15 
ROOT
HETATM    1  N   UNL     1      41.259 -12.918   3.142  1.00  0.00    -0.326 N 
HETATM    2  C   UNL     1      41.960 -11.744   2.900  1.00  0.00     0.231 C 
HETATM    3  O   UNL     1      43.140 -11.658   2.572  1.00  0.00    -0.272 OA
HETATM    4  H   UNL     1      40.249 -12.826   3.250  1.00  0.00     0.169 HD
ENDROOT
BRANCH   2   5
HETATM    5  C   UNL     1      41.118 -10.487   3.067  1.00  0.00     0.177 C 
BRANCH   5   6
HETATM    6  S   UNL     1      41.572  -9.574   4.585  1.00  0.00    -0.147 SA
BRANCH   6   7
HETATM    7  C   UNL     1      41.516 -10.944   5.803  1.00  0.00     0.113 C 
HETATM    8  C   UNL     1      40.069 -11.203   6.214  1.00  0.00     0.029 C 
BRANCH   7   9
HETATM    9  C   UNL     1      42.392 -10.614   6.974  1.00  0.00     0.118 A 
HETATM   10  N   UNL     1      43.688 -10.851   7.072  1.00  0.00    -0.232 NA
HETATM   11  C   UNL     1      44.063 -10.347   8.296  1.00  0.00     0.085 A 
HETATM   12  C   UNL     1      42.987  -9.744   8.935  1.00  0.00     0.062 A 
HETATM   13  C   UNL     1      45.314 -10.357   8.930  1.00  0.00     0.034 A 
HETATM   14  N   UNL     1      41.938  -9.918   8.072  1.00  0.00    -0.342 N 
HETATM   15  C   UNL     1      43.083  -9.123  10.182  1.00  0.00     0.032 A 
HETATM   16  H   UNL     1      40.998  -9.574   8.204  1.00  0.00     0.167 HD
HETATM   17  C   UNL     1      44.339  -9.140  10.798  1.00  0.00     0.002 A 
HETATM   18  C   UNL     1      45.437  -9.749  10.186  1.00  0.00     0.002 A 
ENDBRANCH   7   9
ENDBRANCH   6   7
ENDBRANCH   5   6
ENDBRANCH   2   5
BRANCH   1  19
HETATM   19  C   UNL     1      41.776 -14.240   3.153  1.00  0.00     0.040 A 
HETATM   20  C   UNL     1      41.355 -15.155   2.162  1.00  0.00    -0.034 A 
HETATM   21  C   UNL     1      41.883 -16.464   2.148  1.00  0.00     0.026 A 
HETATM   22  C   UNL     1      40.367 -14.789   1.087  1.00  0.00     0.050 C 
HETATM   23  C   UNL     1      42.813 -16.875   3.108  1.00  0.00     0.032 A 
HETATM   24  C   UNL     1      43.193 -15.984   4.108  1.00  0.00     0.019 A 
HETATM   25  C   UNL     1      42.682 -14.681   4.127  1.00  0.00     0.031 A 
BRANCH  23  26
HETATM   26  C   UNL     1      43.399 -18.244   3.114  1.00  0.00     0.251 C 
HETATM   27  N   UNL     1      44.073 -18.617   4.261  1.00  0.00    -0.357 N 
HETATM   28  H   UNL     1      43.992 -18.039   5.086  1.00  0.00     0.162 HD
HETATM   29  O   UNL     1      43.240 -18.988   2.152  1.00  0.00    -0.268 OA
BRANCH  27  30
HETATM   30  C   UNL     1      44.585 -19.960   4.431  1.00  0.00     0.118 C 
HETATM   31  C   UNL     1      43.777 -20.737   5.455  1.00  0.00     0.026 C 
ENDBRANCH  27  30
ENDBRANCH  23  26
ENDBRANCH   1  19
TORSDOF 7
ENDMDL
