MODEL 1
REMARK VINA RESULT:      -8.0      0.000      0.000
REMARK  9 active torsions:
REMARK  status: ('A' for Active; 'I' for Inactive)
REMARK    1  A    between atoms: C_2  and  O_3 
REMARK    2  A    between atoms: O_3  and  C_4 
REMARK    3  A    between atoms: C_7  and  N_8 
REMARK    4  A    between atoms: C_12  and  N_13 
REMARK       I    between atoms: N_13  and  C_14 
REMARK       I    between atoms: C_14  and  N_15 
REMARK    5  A    between atoms: N_15  and  C_16 
REMARK    6  A    between atoms: C_16  and  C_17 
REMARK    7  A    between atoms: C_17  and  C_18 
REMARK    8  A    between atoms: C_21  and  S_22 
REMARK    9  A    between atoms: S_22  and  N_23 
ROOT
HETATM    1  N   UNL     1      39.348 -10.996   0.989  1.00  0.00    -0.336 N 
HETATM    2  C   UNL     1      39.210 -10.895   2.331  1.00  0.00     0.316 C 
HETATM    3  N   UNL     1      40.136 -11.521   3.099  1.00  0.00    -0.343 N 
HETATM    4  O   UNL     1      38.252 -10.276   2.783  1.00  0.00    -0.248 OA
HETATM    5  H   UNL     1      38.569 -10.543   0.522  1.00  0.00     0.164 HD
HETATM    6  H   UNL     1      41.067 -11.589   2.718  1.00  0.00     0.164 HD
ENDROOT
BRANCH   1   7
HETATM    7  C   UNL     1      40.292 -11.723   0.138  1.00  0.00     0.113 C 
HETATM    8  C   UNL     1      39.646 -12.692  -0.839  1.00  0.00     0.130 C 
HETATM    9  C   UNL     1      39.958 -14.061  -0.285  1.00  0.00     0.226 C 
HETATM   10  N   UNL     1      40.885 -13.928   0.760  1.00  0.00    -0.316 N 
HETATM   11  O   UNL     1      39.463 -15.081  -0.742  1.00  0.00    -0.273 OA
HETATM   12  C   UNL     1      41.315 -12.553   0.902  1.00  0.00     0.157 C 
BRANCH  10  13
HETATM   13  C   UNL     1      41.525 -14.994   1.462  1.00  0.00     0.037 A 
HETATM   14  C   UNL     1      42.858 -15.352   1.220  1.00  0.00     0.032 A 
HETATM   15  C   UNL     1      43.491 -16.368   1.952  1.00  0.00     0.039 A 
HETATM   16  C   UNL     1      42.796 -17.054   2.942  1.00  0.00     0.068 A 
HETATM   17  C   UNL     1      41.458 -16.748   3.161  1.00  0.00     0.039 A 
HETATM   18  C   UNL     1      40.832 -15.725   2.439  1.00  0.00     0.032 A 
BRANCH  16  19
HETATM   19  O   UNL     1      43.311 -18.048   3.725  1.00  0.00    -0.352 OA
BRANCH  19  20
HETATM   20  C   UNL     1      44.176 -18.969   3.056  1.00  0.00     0.171 C 
HETATM   21  C   UNL     1      43.308 -19.938   2.273  1.00  0.00     0.034 C 
ENDBRANCH  19  20
ENDBRANCH  16  19
ENDBRANCH  10  13
ENDBRANCH   1   7
BRANCH   3  22
HETATM   22  C   UNL     1      40.056 -11.488   4.551  1.00  0.00     0.129 C 
BRANCH  22  23
HETATM   23  C   UNL     1      39.540 -12.787   5.192  1.00  0.00     0.058 C 
BRANCH  23  24
HETATM   24  C   UNL     1      40.553 -13.803   5.684  1.00  0.00    -0.057 A 
HETATM   25  C   UNL     1      40.212 -14.981   6.360  1.00  0.00     0.009 A 
HETATM   26  C   UNL     1      41.198 -15.868   6.798  1.00  0.00     0.025 A 
HETATM   27  C   UNL     1      42.542 -15.592   6.539  1.00  0.00     0.074 A 
HETATM   28  C   UNL     1      42.907 -14.431   5.859  1.00  0.00     0.025 A 
HETATM   29  C   UNL     1      41.915 -13.544   5.436  1.00  0.00     0.009 A 
BRANCH  27  30
HETATM   30  S   UNL     1      43.779 -16.720   7.096  1.00  0.00     0.239 S 
HETATM   31  O   UNL     1      43.296 -18.075   6.955  1.00  0.00    -0.206 OA
HETATM   32  O   UNL     1      45.063 -16.298   6.592  1.00  0.00    -0.206 OA
BRANCH  30  33
HETATM   33  N   UNL     1      43.808 -16.434   8.753  1.00  0.00    -0.225 NA
HETATM   34  H   UNL     1      43.188 -15.655   8.976  1.00  0.00     0.136 HD
HETATM   35  H   UNL     1      43.589 -17.296   9.254  1.00  0.00     0.136 HD
ENDBRANCH  30  33
ENDBRANCH  27  30
ENDBRANCH  23  24
ENDBRANCH  22  23
ENDBRANCH   3  22
TORSDOF 9
ENDMDL
MODEL 2
REMARK VINA RESULT:      -7.9      6.464      7.936
REMARK  9 active torsions:
REMARK  status: ('A' for Active; 'I' for Inactive)
REMARK    1  A    between atoms: C_2  and  O_3 
REMARK    2  A    between atoms: O_3  and  C_4 
REMARK    3  A    between atoms: C_7  and  N_8 
REMARK    4  A    between atoms: C_12  and  N_13 
REMARK       I    between atoms: N_13  and  C_14 
REMARK       I    between atoms: C_14  and  N_15 
REMARK    5  A    between atoms: N_15  and  C_16 
REMARK    6  A    between atoms: C_16  and  C_17 
REMARK    7  A    between atoms: C_17  and  C_18 
REMARK    8  A    between atoms: C_21  and  S_22 
REMARK    9  A    between atoms: S_22  and  N_23 
ROOT
HETATM    1  N   UNL     1      44.257 -12.773   6.591  1.00  0.00    -0.336 N 
HETATM    2  C   UNL     1      44.449 -11.659   7.335  1.00  0.00     0.316 C 
HETATM    3  N   UNL     1      43.598 -11.450   8.370  1.00  0.00    -0.343 N 
HETATM    4  O   UNL     1      45.351 -10.888   7.024  1.00  0.00    -0.248 OA
HETATM    5  H   UNL     1      44.909 -12.791   5.814  1.00  0.00     0.164 HD
HETATM    6  H   UNL     1      43.231 -12.271   8.826  1.00  0.00     0.164 HD
ENDROOT
BRANCH   1   7
HETATM    7  C   UNL     1      43.241 -13.826   6.622  1.00  0.00     0.113 C 
HETATM    8  C   UNL     1      43.784 -15.235   6.447  1.00  0.00     0.130 C 
HETATM    9  C   UNL     1      43.358 -15.641   5.057  1.00  0.00     0.226 C 
HETATM   10  N   UNL     1      42.460 -14.685   4.559  1.00  0.00    -0.316 N 
HETATM   11  O   UNL     1      43.755 -16.668   4.525  1.00  0.00    -0.273 OA
HETATM   12  C   UNL     1      42.157 -13.685   5.560  1.00  0.00     0.157 C 
BRANCH  10  13
HETATM   13  C   UNL     1      41.736 -14.765   3.331  1.00  0.00     0.037 A 
HETATM   14  C   UNL     1      42.048 -13.960   2.228  1.00  0.00     0.032 A 
HETATM   15  C   UNL     1      41.362 -14.084   1.010  1.00  0.00     0.039 A 
HETATM   16  C   UNL     1      40.340 -15.018   0.874  1.00  0.00     0.068 A 
HETATM   17  C   UNL     1      39.982 -15.790   1.974  1.00  0.00     0.039 A 
HETATM   18  C   UNL     1      40.676 -15.673   3.184  1.00  0.00     0.032 A 
BRANCH  16  19
HETATM   19  O   UNL     1      39.614 -15.236  -0.263  1.00  0.00    -0.352 OA
BRANCH  19  20
HETATM   20  C   UNL     1      39.569 -14.142  -1.181  1.00  0.00     0.171 C 
HETATM   21  C   UNL     1      39.108 -14.679  -2.524  1.00  0.00     0.034 C 
ENDBRANCH  19  20
ENDBRANCH  16  19
ENDBRANCH  10  13
ENDBRANCH   1   7
BRANCH   3  22
HETATM   22  C   UNL     1      43.713 -10.268   9.211  1.00  0.00     0.129 C 
BRANCH  22  23
HETATM   23  C   UNL     1      44.131 -10.554  10.662  1.00  0.00     0.058 C 
BRANCH  23  24
HETATM   24  C   UNL     1      43.436  -9.797  11.778  1.00  0.00    -0.057 A 
HETATM   25  C   UNL     1      42.453 -10.354  12.605  1.00  0.00     0.009 A 
HETATM   26  C   UNL     1      41.843  -9.594  13.606  1.00  0.00     0.025 A 
HETATM   27  C   UNL     1      42.234  -8.269  13.804  1.00  0.00     0.074 A 
HETATM   28  C   UNL     1      43.218  -7.694  13.001  1.00  0.00     0.025 A 
HETATM   29  C   UNL     1      43.812  -8.457  11.994  1.00  0.00     0.009 A 
BRANCH  27  30
HETATM   30  S   UNL     1      41.457  -7.319  15.072  1.00  0.00     0.239 S 
HETATM   31  O   UNL     1      40.667  -6.267  14.472  1.00  0.00    -0.206 OA
HETATM   32  O   UNL     1      40.926  -8.213  16.072  1.00  0.00    -0.206 OA
BRANCH  30  33
HETATM   33  N   UNL     1      42.761  -6.535  15.786  1.00  0.00    -0.225 NA
HETATM   34  H   UNL     1      42.654  -6.548  16.801  1.00  0.00     0.136 HD
HETATM   35  H   UNL     1      43.633  -6.949  15.455  1.00  0.00     0.136 HD
ENDBRANCH  30  33
ENDBRANCH  27  30
ENDBRANCH  23  24
ENDBRANCH  22  23
ENDBRANCH   3  22
TORSDOF 9
ENDMDL
MODEL 3
REMARK VINA RESULT:      -7.9      5.899      6.816
REMARK  9 active torsions:
REMARK  status: ('A' for Active; 'I' for Inactive)
REMARK    1  A    between atoms: C_2  and  O_3 
REMARK    2  A    between atoms: O_3  and  C_4 
REMARK    3  A    between atoms: C_7  and  N_8 
REMARK    4  A    between atoms: C_12  and  N_13 
REMARK       I    between atoms: N_13  and  C_14 
REMARK       I    between atoms: C_14  and  N_15 
REMARK    5  A    between atoms: N_15  and  C_16 
REMARK    6  A    between atoms: C_16  and  C_17 
REMARK    7  A    between atoms: C_17  and  C_18 
REMARK    8  A    between atoms: C_21  and  S_22 
REMARK    9  A    between atoms: S_22  and  N_23 
ROOT
HETATM    1  N   UNL     1      43.301 -11.684   7.360  1.00  0.00    -0.336 N 
HETATM    2  C   UNL     1      44.034 -10.897   8.181  1.00  0.00     0.316 C 
HETATM    3  N   UNL     1      44.391  -9.675   7.714  1.00  0.00    -0.343 N 
HETATM    4  O   UNL     1      44.361 -11.332   9.281  1.00  0.00    -0.248 OA
HETATM    5  H   UNL     1      43.146 -12.590   7.790  1.00  0.00     0.164 HD
HETATM    6  H   UNL     1      43.751  -9.231   7.074  1.00  0.00     0.164 HD
ENDROOT
BRANCH   1   7
HETATM    7  C   UNL     1      42.835 -11.521   5.981  1.00  0.00     0.113 C 
HETATM    8  C   UNL     1      41.332 -11.650   5.802  1.00  0.00     0.130 C 
HETATM    9  C   UNL     1      41.139 -12.981   5.117  1.00  0.00     0.226 C 
HETATM   10  N   UNL     1      42.391 -13.472   4.716  1.00  0.00    -0.316 N 
HETATM   11  O   UNL     1      40.034 -13.478   4.951  1.00  0.00    -0.273 OA
HETATM   12  C   UNL     1      43.438 -12.512   4.994  1.00  0.00     0.157 C 
BRANCH  10  13
HETATM   13  C   UNL     1      42.628 -14.640   3.932  1.00  0.00     0.037 A 
HETATM   14  C   UNL     1      42.965 -14.571   2.574  1.00  0.00     0.032 A 
HETATM   15  C   UNL     1      43.246 -15.725   1.826  1.00  0.00     0.039 A 
HETATM   16  C   UNL     1      43.188 -16.978   2.425  1.00  0.00     0.068 A 
HETATM   17  C   UNL     1      42.805 -17.071   3.758  1.00  0.00     0.039 A 
HETATM   18  C   UNL     1      42.539 -15.918   4.506  1.00  0.00     0.032 A 
BRANCH  16  19
HETATM   19  O   UNL     1      43.453 -18.165   1.802  1.00  0.00    -0.352 OA
BRANCH  19  20
HETATM   20  C   UNL     1      43.738 -19.264   2.672  1.00  0.00     0.171 C 
HETATM   21  C   UNL     1      43.541 -20.545   1.883  1.00  0.00     0.034 C 
ENDBRANCH  19  20
ENDBRANCH  16  19
ENDBRANCH  10  13
ENDBRANCH   1   7
BRANCH   3  22
HETATM   22  C   UNL     1      45.200  -8.770   8.516  1.00  0.00     0.129 C 
BRANCH  22  23
HETATM   23  C   UNL     1      44.403  -7.674   9.242  1.00  0.00     0.058 C 
BRANCH  23  24
HETATM   24  C   UNL     1      43.351  -8.094  10.251  1.00  0.00    -0.057 A 
HETATM   25  C   UNL     1      41.973  -7.954  10.047  1.00  0.00     0.009 A 
HETATM   26  C   UNL     1      41.059  -8.349  11.026  1.00  0.00     0.025 A 
HETATM   27  C   UNL     1      41.520  -8.914  12.216  1.00  0.00     0.074 A 
HETATM   28  C   UNL     1      42.887  -9.074  12.441  1.00  0.00     0.025 A 
HETATM   29  C   UNL     1      43.794  -8.663  11.461  1.00  0.00     0.009 A 
BRANCH  27  30
HETATM   30  S   UNL     1      40.355  -9.410  13.446  1.00  0.00     0.239 S 
HETATM   31  O   UNL     1      40.151 -10.838  13.369  1.00  0.00    -0.206 OA
HETATM   32  O   UNL     1      40.662  -8.736  14.684  1.00  0.00    -0.206 OA
BRANCH  30  33
HETATM   33  N   UNL     1      38.924  -8.730  12.883  1.00  0.00    -0.225 NA
HETATM   34  H   UNL     1      38.133  -9.135  13.384  1.00  0.00     0.136 HD
HETATM   35  H   UNL     1      38.979  -7.713  12.945  1.00  0.00     0.136 HD
ENDBRANCH  30  33
ENDBRANCH  27  30
ENDBRANCH  23  24
ENDBRANCH  22  23
ENDBRANCH   3  22
TORSDOF 9
ENDMDL
MODEL 4
REMARK VINA RESULT:      -7.7      6.859      7.986
REMARK  9 active torsions:
REMARK  status: ('A' for Active; 'I' for Inactive)
REMARK    1  A    between atoms: C_2  and  O_3 
REMARK    2  A    between atoms: O_3  and  C_4 
REMARK    3  A    between atoms: C_7  and  N_8 
REMARK    4  A    between atoms: C_12  and  N_13 
REMARK       I    between atoms: N_13  and  C_14 
REMARK       I    between atoms: C_14  and  N_15 
REMARK    5  A    between atoms: N_15  and  C_16 
REMARK    6  A    between atoms: C_16  and  C_17 
REMARK    7  A    between atoms: C_17  and  C_18 
REMARK    8  A    between atoms: C_21  and  S_22 
REMARK    9  A    between atoms: S_22  and  N_23 
ROOT
HETATM    1  N   UNL     1      43.616 -11.613   7.987  1.00  0.00    -0.336 N 
HETATM    2  C   UNL     1      44.001 -10.582   8.774  1.00  0.00     0.316 C 
HETATM    3  N   UNL     1      44.097  -9.360   8.193  1.00  0.00    -0.343 N 
HETATM    4  O   UNL     1      44.270 -10.803   9.951  1.00  0.00    -0.248 OA
HETATM    5  H   UNL     1      43.639 -12.481   8.513  1.00  0.00     0.164 HD
HETATM    6  H   UNL     1      43.461  -9.170   7.434  1.00  0.00     0.164 HD
ENDROOT
BRANCH   1   7
HETATM    7  C   UNL     1      43.323 -11.717   6.557  1.00  0.00     0.113 C 
HETATM    8  C   UNL     1      41.847 -11.855   6.221  1.00  0.00     0.130 C 
HETATM    9  C   UNL     1      41.684 -13.292   5.788  1.00  0.00     0.226 C 
HETATM   10  N   UNL     1      42.955 -13.871   5.647  1.00  0.00    -0.316 N 
HETATM   11  O   UNL     1      40.588 -13.794   5.586  1.00  0.00    -0.273 OA
HETATM   12  C   UNL     1      43.999 -12.892   5.861  1.00  0.00     0.157 C 
BRANCH  10  13
HETATM   13  C   UNL     1      43.237 -15.174   5.138  1.00  0.00     0.037 A 
HETATM   14  C   UNL     1      43.811 -16.177   5.930  1.00  0.00     0.032 A 
HETATM   15  C   UNL     1      44.036 -17.469   5.432  1.00  0.00     0.039 A 
HETATM   16  C   UNL     1      43.695 -17.783   4.121  1.00  0.00     0.068 A 
HETATM   17  C   UNL     1      43.172 -16.788   3.304  1.00  0.00     0.039 A 
HETATM   18  C   UNL     1      42.936 -15.503   3.807  1.00  0.00     0.032 A 
BRANCH  16  19
HETATM   19  O   UNL     1      43.855 -19.007   3.534  1.00  0.00    -0.352 OA
BRANCH  19  20
HETATM   20  C   UNL     1      43.318 -19.128   2.215  1.00  0.00     0.171 C 
HETATM   21  C   UNL     1      43.608 -20.534   1.721  1.00  0.00     0.034 C 
ENDBRANCH  19  20
ENDBRANCH  16  19
ENDBRANCH  10  13
ENDBRANCH   1   7
BRANCH   3  22
HETATM   22  C   UNL     1      44.527  -8.197   8.953  1.00  0.00     0.129 C 
BRANCH  22  23
HETATM   23  C   UNL     1      43.392  -7.241   9.356  1.00  0.00     0.058 C 
BRANCH  23  24
HETATM   24  C   UNL     1      42.929  -7.236  10.800  1.00  0.00    -0.057 A 
HETATM   25  C   UNL     1      43.438  -8.090  11.786  1.00  0.00     0.009 A 
HETATM   26  C   UNL     1      42.955  -8.041  13.096  1.00  0.00     0.025 A 
HETATM   27  C   UNL     1      41.970  -7.113  13.437  1.00  0.00     0.074 A 
HETATM   28  C   UNL     1      41.454  -6.244  12.476  1.00  0.00     0.025 A 
HETATM   29  C   UNL     1      41.933  -6.310  11.166  1.00  0.00     0.009 A 
BRANCH  27  30
HETATM   30  S   UNL     1      41.369  -7.060  15.095  1.00  0.00     0.239 S 
HETATM   31  O   UNL     1      40.395  -5.999  15.222  1.00  0.00    -0.206 OA
HETATM   32  O   UNL     1      41.113  -8.406  15.547  1.00  0.00    -0.206 OA
BRANCH  30  33
HETATM   33  N   UNL     1      42.714  -6.525  15.950  1.00  0.00    -0.225 NA
HETATM   34  H   UNL     1      42.719  -6.948  16.878  1.00  0.00     0.136 HD
HETATM   35  H   UNL     1      43.559  -6.704  15.407  1.00  0.00     0.136 HD
ENDBRANCH  30  33
ENDBRANCH  27  30
ENDBRANCH  23  24
ENDBRANCH  22  23
ENDBRANCH   3  22
TORSDOF 9
ENDMDL
MODEL 5
REMARK VINA RESULT:      -7.6      5.646      9.842
REMARK  9 active torsions:
REMARK  status: ('A' for Active; 'I' for Inactive)
REMARK    1  A    between atoms: C_2  and  O_3 
REMARK    2  A    between atoms: O_3  and  C_4 
REMARK    3  A    between atoms: C_7  and  N_8 
REMARK    4  A    between atoms: C_12  and  N_13 
REMARK       I    between atoms: N_13  and  C_14 
REMARK       I    between atoms: C_14  and  N_15 
REMARK    5  A    between atoms: N_15  and  C_16 
REMARK    6  A    between atoms: C_16  and  C_17 
REMARK    7  A    between atoms: C_17  and  C_18 
REMARK    8  A    between atoms: C_21  and  S_22 
REMARK    9  A    between atoms: S_22  and  N_23 
ROOT
HETATM    1  N   UNL     1      43.488 -13.297   6.428  1.00  0.00    -0.336 N 
HETATM    2  C   UNL     1      43.031 -14.318   5.666  1.00  0.00     0.316 C 
HETATM    3  N   UNL     1      42.866 -14.077   4.342  1.00  0.00    -0.343 N 
HETATM    4  O   UNL     1      42.765 -15.386   6.207  1.00  0.00    -0.248 OA
HETATM    5  H   UNL     1      43.514 -13.573   7.404  1.00  0.00     0.164 HD
HETATM    6  H   UNL     1      43.497 -13.412   3.921  1.00  0.00     0.164 HD
ENDROOT
BRANCH   1   7
HETATM    7  C   UNL     1      43.801 -11.897   6.132  1.00  0.00     0.113 C 
HETATM    8  C   UNL     1      45.279 -11.550   6.208  1.00  0.00     0.130 C 
HETATM    9  C   UNL     1      45.417 -10.730   7.467  1.00  0.00     0.226 C 
HETATM   10  N   UNL     1      44.136 -10.420   7.951  1.00  0.00    -0.316 N 
HETATM   11  O   UNL     1      46.505 -10.404   7.921  1.00  0.00    -0.273 OA
HETATM   12  C   UNL     1      43.111 -10.892   7.045  1.00  0.00     0.157 C 
BRANCH  10  13
HETATM   13  C   UNL     1      43.833  -9.561   9.049  1.00  0.00     0.037 A 
HETATM   14  C   UNL     1      43.386  -8.246   8.867  1.00  0.00     0.032 A 
HETATM   15  C   UNL     1      43.043  -7.428   9.955  1.00  0.00     0.039 A 
HETATM   16  C   UNL     1      43.148  -7.912  11.254  1.00  0.00     0.068 A 
HETATM   17  C   UNL     1      43.639  -9.197  11.458  1.00  0.00     0.039 A 
HETATM   18  C   UNL     1      43.968 -10.015  10.370  1.00  0.00     0.032 A 
BRANCH  16  19
HETATM   19  O   UNL     1      42.831  -7.215  12.386  1.00  0.00    -0.352 OA
BRANCH  19  20
HETATM   20  C   UNL     1      42.661  -8.005  13.565  1.00  0.00     0.171 C 
HETATM   21  C   UNL     1      42.863  -7.098  14.766  1.00  0.00     0.034 C 
ENDBRANCH  19  20
ENDBRANCH  16  19
ENDBRANCH  10  13
ENDBRANCH   1   7
BRANCH   3  22
HETATM   22  C   UNL     1      42.357 -15.107   3.448  1.00  0.00     0.129 C 
BRANCH  22  23
HETATM   23  C   UNL     1      40.916 -14.878   2.965  1.00  0.00     0.058 C 
BRANCH  23  24
HETATM   24  C   UNL     1      40.698 -14.380   1.549  1.00  0.00    -0.057 A 
HETATM   25  C   UNL     1      41.190 -13.162   1.065  1.00  0.00     0.009 A 
HETATM   26  C   UNL     1      40.941 -12.758  -0.249  1.00  0.00     0.025 A 
HETATM   27  C   UNL     1      40.212 -13.589  -1.101  1.00  0.00     0.074 A 
HETATM   28  C   UNL     1      39.720 -14.812  -0.648  1.00  0.00     0.025 A 
HETATM   29  C   UNL     1      39.963 -15.201   0.672  1.00  0.00     0.009 A 
BRANCH  27  30
HETATM   30  S   UNL     1      39.903 -13.069  -2.759  1.00  0.00     0.239 S 
HETATM   31  O   UNL     1      39.203 -14.114  -3.471  1.00  0.00    -0.206 OA
HETATM   32  O   UNL     1      39.448 -11.700  -2.747  1.00  0.00    -0.206 OA
BRANCH  30  33
HETATM   33  N   UNL     1      41.448 -13.044  -3.423  1.00  0.00    -0.225 NA
HETATM   34  H   UNL     1      41.404 -13.331  -4.401  1.00  0.00     0.136 HD
HETATM   35  H   UNL     1      41.869 -12.127  -3.278  1.00  0.00     0.136 HD
ENDBRANCH  30  33
ENDBRANCH  27  30
ENDBRANCH  23  24
ENDBRANCH  22  23
ENDBRANCH   3  22
TORSDOF 9
ENDMDL
MODEL 6
REMARK VINA RESULT:      -7.5      3.829      6.803
REMARK  9 active torsions:
REMARK  status: ('A' for Active; 'I' for Inactive)
REMARK    1  A    between atoms: C_2  and  O_3 
REMARK    2  A    between atoms: O_3  and  C_4 
REMARK    3  A    between atoms: C_7  and  N_8 
REMARK    4  A    between atoms: C_12  and  N_13 
REMARK       I    between atoms: N_13  and  C_14 
REMARK       I    between atoms: C_14  and  N_15 
REMARK    5  A    between atoms: N_15  and  C_16 
REMARK    6  A    between atoms: C_16  and  C_17 
REMARK    7  A    between atoms: C_17  and  C_18 
REMARK    8  A    between atoms: C_21  and  S_22 
REMARK    9  A    between atoms: S_22  and  N_23 
ROOT
HETATM    1  N   UNL     1      40.777 -11.724   3.512  1.00  0.00    -0.336 N 
HETATM    2  C   UNL     1      40.101 -12.613   2.747  1.00  0.00     0.316 C 
HETATM    3  N   UNL     1      40.835 -13.529   2.067  1.00  0.00    -0.343 N 
HETATM    4  O   UNL     1      38.879 -12.531   2.683  1.00  0.00    -0.248 OA
HETATM    5  H   UNL     1      40.132 -11.055   3.922  1.00  0.00     0.164 HD
HETATM    6  H   UNL     1      41.697 -13.826   2.497  1.00  0.00     0.164 HD
ENDROOT
BRANCH   1   7
HETATM    7  C   UNL     1      42.204 -11.482   3.731  1.00  0.00     0.113 C 
HETATM    8  C   UNL     1      43.001 -12.713   4.128  1.00  0.00     0.130 C 
HETATM    9  C   UNL     1      43.316 -12.511   5.591  1.00  0.00     0.226 C 
HETATM   10  N   UNL     1      42.961 -11.203   5.956  1.00  0.00    -0.316 N 
HETATM   11  O   UNL     1      43.824 -13.386   6.278  1.00  0.00    -0.273 OA
HETATM   12  C   UNL     1      42.508 -10.448   4.808  1.00  0.00     0.157 C 
BRANCH  10  13
HETATM   13  C   UNL     1      43.210 -10.582   7.216  1.00  0.00     0.037 A 
HETATM   14  C   UNL     1      42.289  -9.712   7.814  1.00  0.00     0.032 A 
HETATM   15  C   UNL     1      42.523  -9.147   9.077  1.00  0.00     0.039 A 
HETATM   16  C   UNL     1      43.695  -9.438   9.767  1.00  0.00     0.068 A 
HETATM   17  C   UNL     1      44.645 -10.258   9.168  1.00  0.00     0.039 A 
HETATM   18  C   UNL     1      44.402 -10.831   7.913  1.00  0.00     0.032 A 
BRANCH  16  19
HETATM   19  O   UNL     1      44.024  -8.959  11.004  1.00  0.00    -0.352 OA
BRANCH  19  20
HETATM   20  C   UNL     1      43.039  -9.158  12.020  1.00  0.00     0.171 C 
HETATM   21  C   UNL     1      43.198  -8.049  13.045  1.00  0.00     0.034 C 
ENDBRANCH  19  20
ENDBRANCH  16  19
ENDBRANCH  10  13
ENDBRANCH   1   7
BRANCH   3  22
HETATM   22  C   UNL     1      40.198 -14.509   1.201  1.00  0.00     0.129 C 
BRANCH  22  23
HETATM   23  C   UNL     1      40.282 -15.959   1.707  1.00  0.00     0.058 C 
BRANCH  23  24
HETATM   24  C   UNL     1      41.148 -16.254   2.917  1.00  0.00    -0.057 A 
HETATM   25  C   UNL     1      42.479 -16.681   2.838  1.00  0.00     0.009 A 
HETATM   26  C   UNL     1      43.216 -16.948   3.994  1.00  0.00     0.025 A 
HETATM   27  C   UNL     1      42.628 -16.766   5.247  1.00  0.00     0.074 A 
HETATM   28  C   UNL     1      41.307 -16.332   5.353  1.00  0.00     0.025 A 
HETATM   29  C   UNL     1      40.575 -16.080   4.191  1.00  0.00     0.009 A 
BRANCH  27  30
HETATM   30  S   UNL     1      43.569 -17.107   6.701  1.00  0.00     0.239 S 
HETATM   31  O   UNL     1      43.297 -18.455   7.147  1.00  0.00    -0.206 OA
HETATM   32  O   UNL     1      44.910 -16.605   6.523  1.00  0.00    -0.206 OA
BRANCH  30  33
HETATM   33  N   UNL     1      42.841 -16.111   7.844  1.00  0.00    -0.225 NA
HETATM   34  H   UNL     1      43.499 -15.922   8.600  1.00  0.00     0.136 HD
HETATM   35  H   UNL     1      42.479 -15.274   7.388  1.00  0.00     0.136 HD
ENDBRANCH  30  33
ENDBRANCH  27  30
ENDBRANCH  23  24
ENDBRANCH  22  23
ENDBRANCH   3  22
TORSDOF 9
ENDMDL
MODEL 7
REMARK VINA RESULT:      -7.5      3.813      7.339
REMARK  9 active torsions:
REMARK  status: ('A' for Active; 'I' for Inactive)
REMARK    1  A    between atoms: C_2  and  O_3 
REMARK    2  A    between atoms: O_3  and  C_4 
REMARK    3  A    between atoms: C_7  and  N_8 
REMARK    4  A    between atoms: C_12  and  N_13 
REMARK       I    between atoms: N_13  and  C_14 
REMARK       I    between atoms: C_14  and  N_15 
REMARK    5  A    between atoms: N_15  and  C_16 
REMARK    6  A    between atoms: C_16  and  C_17 
REMARK    7  A    between atoms: C_17  and  C_18 
REMARK    8  A    between atoms: C_21  and  S_22 
REMARK    9  A    between atoms: S_22  and  N_23 
ROOT
HETATM    1  N   UNL     1      40.475 -14.263  -0.726  1.00  0.00    -0.336 N 
HETATM    2  C   UNL     1      39.630 -14.003  -1.750  1.00  0.00     0.316 C 
HETATM    3  N   UNL     1      38.436 -13.439  -1.440  1.00  0.00    -0.343 N 
HETATM    4  O   UNL     1      39.966 -14.311  -2.889  1.00  0.00    -0.248 OA
HETATM    5  H   UNL     1      41.305 -14.736  -1.069  1.00  0.00     0.164 HD
HETATM    6  H   UNL     1      38.419 -12.826  -0.639  1.00  0.00     0.164 HD
ENDROOT
BRANCH   1   7
HETATM    7  C   UNL     1      40.353 -14.120   0.726  1.00  0.00     0.113 C 
HETATM    8  C   UNL     1      41.211 -13.019   1.327  1.00  0.00     0.130 C 
HETATM    9  C   UNL     1      42.315 -13.746   2.055  1.00  0.00     0.226 C 
HETATM   10  N   UNL     1      42.012 -15.116   2.089  1.00  0.00    -0.316 N 
HETATM   11  O   UNL     1      43.278 -13.164   2.535  1.00  0.00    -0.273 OA
HETATM   12  C   UNL     1      40.710 -15.374   1.513  1.00  0.00     0.157 C 
BRANCH  10  13
HETATM   13  C   UNL     1      42.740 -16.125   2.789  1.00  0.00     0.037 A 
HETATM   14  C   UNL     1      43.093 -15.990   4.137  1.00  0.00     0.032 A 
HETATM   15  C   UNL     1      43.765 -17.011   4.827  1.00  0.00     0.039 A 
HETATM   16  C   UNL     1      44.103 -18.191   4.175  1.00  0.00     0.068 A 
HETATM   17  C   UNL     1      43.807 -18.323   2.823  1.00  0.00     0.039 A 
HETATM   18  C   UNL     1      43.125 -17.308   2.140  1.00  0.00     0.032 A 
BRANCH  16  19
HETATM   19  O   UNL     1      44.743 -19.255   4.745  1.00  0.00    -0.352 OA
BRANCH  19  20
HETATM   20  C   UNL     1      43.955 -20.029   5.654  1.00  0.00     0.171 C 
HETATM   21  C   UNL     1      43.684 -21.374   5.005  1.00  0.00     0.034 C 
ENDBRANCH  19  20
ENDBRANCH  16  19
ENDBRANCH  10  13
ENDBRANCH   1   7
BRANCH   3  22
HETATM   22  C   UNL     1      37.453 -13.145  -2.471  1.00  0.00     0.129 C 
BRANCH  22  23
HETATM   23  C   UNL     1      37.188 -11.647  -2.694  1.00  0.00     0.058 C 
BRANCH  23  24
HETATM   24  C   UNL     1      38.305 -10.664  -2.400  1.00  0.00    -0.057 A 
HETATM   25  C   UNL     1      38.339  -9.834  -1.273  1.00  0.00     0.009 A 
HETATM   26  C   UNL     1      39.393  -8.941  -1.071  1.00  0.00     0.025 A 
HETATM   27  C   UNL     1      40.442  -8.888  -1.991  1.00  0.00     0.074 A 
HETATM   28  C   UNL     1      40.438  -9.711  -3.116  1.00  0.00     0.025 A 
HETATM   29  C   UNL     1      39.373 -10.592  -3.316  1.00  0.00     0.009 A 
BRANCH  27  30
HETATM   30  S   UNL     1      41.769  -7.756  -1.725  1.00  0.00     0.239 S 
HETATM   31  O   UNL     1      42.593  -7.690  -2.911  1.00  0.00    -0.206 OA
HETATM   32  O   UNL     1      41.258  -6.576  -1.070  1.00  0.00    -0.206 OA
BRANCH  30  33
HETATM   33  N   UNL     1      42.706  -8.559  -0.583  1.00  0.00    -0.225 NA
HETATM   34  H   UNL     1      43.457  -7.946  -0.266  1.00  0.00     0.136 HD
HETATM   35  H   UNL     1      42.109  -8.908   0.166  1.00  0.00     0.136 HD
ENDBRANCH  30  33
ENDBRANCH  27  30
ENDBRANCH  23  24
ENDBRANCH  22  23
ENDBRANCH   3  22
TORSDOF 9
ENDMDL
MODEL 8
REMARK VINA RESULT:      -7.3      6.160      6.815
REMARK  9 active torsions:
REMARK  status: ('A' for Active; 'I' for Inactive)
REMARK    1  A    between atoms: C_2  and  O_3 
REMARK    2  A    between atoms: O_3  and  C_4 
REMARK    3  A    between atoms: C_7  and  N_8 
REMARK    4  A    between atoms: C_12  and  N_13 
REMARK       I    between atoms: N_13  and  C_14 
REMARK       I    between atoms: C_14  and  N_15 
REMARK    5  A    between atoms: N_15  and  C_16 
REMARK    6  A    between atoms: C_16  and  C_17 
REMARK    7  A    between atoms: C_17  and  C_18 
REMARK    8  A    between atoms: C_21  and  S_22 
REMARK    9  A    between atoms: S_22  and  N_23 
ROOT
HETATM    1  N   UNL     1      42.107 -10.430   5.223  1.00  0.00    -0.336 N 
HETATM    2  C   UNL     1      42.437 -10.324   6.531  1.00  0.00     0.316 C 
HETATM    3  N   UNL     1      43.733 -10.550   6.864  1.00  0.00    -0.343 N 
HETATM    4  O   UNL     1      41.557 -10.061   7.345  1.00  0.00    -0.248 OA
HETATM    5  H   UNL     1      41.108 -10.300   5.103  1.00  0.00     0.164 HD
HETATM    6  H   UNL     1      44.426 -10.303   6.175  1.00  0.00     0.164 HD
ENDROOT
BRANCH   1   7
HETATM    7  C   UNL     1      42.868 -10.815   4.033  1.00  0.00     0.113 C 
HETATM    8  C   UNL     1      42.132 -10.615   2.719  1.00  0.00     0.130 C 
HETATM    9  C   UNL     1      41.780 -12.009   2.259  1.00  0.00     0.226 C 
HETATM   10  N   UNL     1      42.442 -12.938   3.076  1.00  0.00    -0.316 N 
HETATM   11  O   UNL     1      41.048 -12.217   1.302  1.00  0.00    -0.273 OA
HETATM   12  C   UNL     1      43.315 -12.272   4.018  1.00  0.00     0.157 C 
BRANCH  10  13
HETATM   13  C   UNL     1      42.469 -14.354   2.895  1.00  0.00     0.037 A 
HETATM   14  C   UNL     1      41.664 -15.217   3.649  1.00  0.00     0.032 A 
HETATM   15  C   UNL     1      41.662 -16.603   3.426  1.00  0.00     0.039 A 
HETATM   16  C   UNL     1      42.476 -17.155   2.443  1.00  0.00     0.068 A 
HETATM   17  C   UNL     1      43.320 -16.319   1.719  1.00  0.00     0.039 A 
HETATM   18  C   UNL     1      43.310 -14.936   1.934  1.00  0.00     0.032 A 
BRANCH  16  19
HETATM   19  O   UNL     1      42.548 -18.482   2.129  1.00  0.00    -0.352 OA
BRANCH  19  20
HETATM   20  C   UNL     1      43.704 -19.166   2.618  1.00  0.00     0.171 C 
HETATM   21  C   UNL     1      43.748 -20.534   1.962  1.00  0.00     0.034 C 
ENDBRANCH  19  20
ENDBRANCH  16  19
ENDBRANCH  10  13
ENDBRANCH   1   7
BRANCH   3  22
HETATM   22  C   UNL     1      44.176 -10.482   8.248  1.00  0.00     0.129 C 
BRANCH  22  23
HETATM   23  C   UNL     1      44.613  -9.083   8.711  1.00  0.00     0.058 C 
BRANCH  23  24
HETATM   24  C   UNL     1      43.953  -8.490   9.941  1.00  0.00    -0.057 A 
HETATM   25  C   UNL     1      44.072  -9.029  11.228  1.00  0.00     0.009 A 
HETATM   26  C   UNL     1      43.425  -8.439  12.316  1.00  0.00     0.025 A 
HETATM   27  C   UNL     1      42.668  -7.282  12.127  1.00  0.00     0.074 A 
HETATM   28  C   UNL     1      42.541  -6.719  10.857  1.00  0.00     0.025 A 
HETATM   29  C   UNL     1      43.181  -7.324   9.773  1.00  0.00     0.009 A 
BRANCH  27  30
HETATM   30  S   UNL     1      41.855  -6.545  13.509  1.00  0.00     0.239 S 
HETATM   31  O   UNL     1      40.449  -6.385  13.213  1.00  0.00    -0.206 OA
HETATM   32  O   UNL     1      42.326  -7.170  14.721  1.00  0.00    -0.206 OA
BRANCH  30  33
HETATM   33  N   UNL     1      42.484  -4.986  13.508  1.00  0.00    -0.225 NA
HETATM   34  H   UNL     1      41.917  -4.388  12.907  1.00  0.00     0.136 HD
HETATM   35  H   UNL     1      42.569  -4.650  14.468  1.00  0.00     0.136 HD
ENDBRANCH  30  33
ENDBRANCH  27  30
ENDBRANCH  23  24
ENDBRANCH  22  23
ENDBRANCH   3  22
TORSDOF 9
ENDMDL
MODEL 9
REMARK VINA RESULT:      -7.1      1.853      4.597
REMARK  9 active torsions:
REMARK  status: ('A' for Active; 'I' for Inactive)
REMARK    1  A    between atoms: C_2  and  O_3 
REMARK    2  A    between atoms: O_3  and  C_4 
REMARK    3  A    between atoms: C_7  and  N_8 
REMARK    4  A    between atoms: C_12  and  N_13 
REMARK       I    between atoms: N_13  and  C_14 
REMARK       I    between atoms: C_14  and  N_15 
REMARK    5  A    between atoms: N_15  and  C_16 
REMARK    6  A    between atoms: C_16  and  C_17 
REMARK    7  A    between atoms: C_17  and  C_18 
REMARK    8  A    between atoms: C_21  and  S_22 
REMARK    9  A    between atoms: S_22  and  N_23 
ROOT
HETATM    1  N   UNL     1      38.030 -11.968   0.024  1.00  0.00    -0.336 N 
HETATM    2  C   UNL     1      38.800 -13.020  -0.338  1.00  0.00     0.316 C 
HETATM    3  N   UNL     1      39.616 -13.546   0.610  1.00  0.00    -0.343 N 
HETATM    4  O   UNL     1      38.745 -13.424  -1.495  1.00  0.00    -0.248 OA
HETATM    5  H   UNL     1      37.510 -11.623  -0.777  1.00  0.00     0.164 HD
HETATM    6  H   UNL     1      39.292 -13.496   1.563  1.00  0.00     0.164 HD
ENDROOT
BRANCH   1   7
HETATM    7  C   UNL     1      37.923 -11.191   1.260  1.00  0.00     0.113 C 
HETATM    8  C   UNL     1      38.556  -9.811   1.197  1.00  0.00     0.130 C 
HETATM    9  C   UNL     1      39.806  -9.922   2.036  1.00  0.00     0.226 C 
HETATM   10  N   UNL     1      39.790 -11.149   2.716  1.00  0.00    -0.316 N 
HETATM   11  O   UNL     1      40.643  -9.031   2.084  1.00  0.00    -0.273 OA
HETATM   12  C   UNL     1      38.551 -11.859   2.477  1.00  0.00     0.157 C 
BRANCH  10  13
HETATM   13  C   UNL     1      40.729 -11.581   3.700  1.00  0.00     0.037 A 
HETATM   14  C   UNL     1      40.543 -11.335   5.066  1.00  0.00     0.032 A 
HETATM   15  C   UNL     1      41.448 -11.810   6.029  1.00  0.00     0.039 A 
HETATM   16  C   UNL     1      42.566 -12.539   5.639  1.00  0.00     0.068 A 
HETATM   17  C   UNL     1      42.794 -12.750   4.283  1.00  0.00     0.039 A 
HETATM   18  C   UNL     1      41.883 -12.286   3.326  1.00  0.00     0.032 A 
BRANCH  16  19
HETATM   19  O   UNL     1      43.504 -13.061   6.483  1.00  0.00    -0.352 OA
BRANCH  19  20
HETATM   20  C   UNL     1      44.711 -12.304   6.602  1.00  0.00     0.171 C 
HETATM   21  C   UNL     1      44.547 -11.345   7.767  1.00  0.00     0.034 C 
ENDBRANCH  19  20
ENDBRANCH  16  19
ENDBRANCH  10  13
ENDBRANCH   1   7
BRANCH   3  22
HETATM   22  C   UNL     1      40.497 -14.663   0.307  1.00  0.00     0.129 C 
BRANCH  22  23
HETATM   23  C   UNL     1      40.195 -15.947   1.097  1.00  0.00     0.058 C 
BRANCH  23  24
HETATM   24  C   UNL     1      40.828 -16.122   2.464  1.00  0.00    -0.057 A 
HETATM   25  C   UNL     1      40.268 -15.636   3.652  1.00  0.00     0.009 A 
HETATM   26  C   UNL     1      40.912 -15.820   4.877  1.00  0.00     0.025 A 
HETATM   27  C   UNL     1      42.120 -16.519   4.925  1.00  0.00     0.074 A 
HETATM   28  C   UNL     1      42.694 -17.022   3.759  1.00  0.00     0.025 A 
HETATM   29  C   UNL     1      42.048 -16.821   2.536  1.00  0.00     0.009 A 
BRANCH  27  30
HETATM   30  S   UNL     1      42.925 -16.746   6.479  1.00  0.00     0.239 S 
HETATM   31  O   UNL     1      42.212 -16.018   7.504  1.00  0.00    -0.206 OA
HETATM   32  O   UNL     1      43.286 -18.136   6.624  1.00  0.00    -0.206 OA
BRANCH  30  33
HETATM   33  N   UNL     1      44.366 -15.906   6.265  1.00  0.00    -0.225 NA
HETATM   34  H   UNL     1      44.489 -15.240   7.028  1.00  0.00     0.136 HD
HETATM   35  H   UNL     1      45.136 -16.567   6.161  1.00  0.00     0.136 HD
ENDBRANCH  30  33
ENDBRANCH  27  30
ENDBRANCH  23  24
ENDBRANCH  22  23
ENDBRANCH   3  22
TORSDOF 9
ENDMDL
MODEL 10
REMARK VINA RESULT:      -6.8      6.084     10.280
REMARK  9 active torsions:
REMARK  status: ('A' for Active; 'I' for Inactive)
REMARK    1  A    between atoms: C_2  and  O_3 
REMARK    2  A    between atoms: O_3  and  C_4 
REMARK    3  A    between atoms: C_7  and  N_8 
REMARK    4  A    between atoms: C_12  and  N_13 
REMARK       I    between atoms: N_13  and  C_14 
REMARK       I    between atoms: C_14  and  N_15 
REMARK    5  A    between atoms: N_15  and  C_16 
REMARK    6  A    between atoms: C_16  and  C_17 
REMARK    7  A    between atoms: C_17  and  C_18 
REMARK    8  A    between atoms: C_21  and  S_22 
REMARK    9  A    between atoms: S_22  and  N_23 
ROOT
HETATM    1  N   UNL     1      42.820 -12.315   6.977  1.00  0.00    -0.336 N 
HETATM    2  C   UNL     1      42.367 -13.002   5.903  1.00  0.00     0.316 C 
HETATM    3  N   UNL     1      42.606 -12.466   4.679  1.00  0.00    -0.343 N 
HETATM    4  O   UNL     1      41.747 -14.044   6.084  1.00  0.00    -0.248 OA
HETATM    5  H   UNL     1      42.532 -12.778   7.834  1.00  0.00     0.164 HD
HETATM    6  H   UNL     1      43.452 -11.926   4.580  1.00  0.00     0.164 HD
ENDROOT
BRANCH   1   7
HETATM    7  C   UNL     1      43.492 -11.023   7.121  1.00  0.00     0.113 C 
HETATM    8  C   UNL     1      44.847 -11.087   7.807  1.00  0.00     0.130 C 
HETATM    9  C   UNL     1      44.615 -10.486   9.172  1.00  0.00     0.226 C 
HETATM   10  N   UNL     1      43.336  -9.910   9.204  1.00  0.00    -0.316 N 
HETATM   11  O   UNL     1      45.464 -10.513  10.052  1.00  0.00    -0.273 OA
HETATM   12  C   UNL     1      42.699  -9.987   7.907  1.00  0.00     0.157 C 
BRANCH  10  13
HETATM   13  C   UNL     1      42.785  -9.137  10.270  1.00  0.00     0.037 A 
HETATM   14  C   UNL     1      43.122  -7.792  10.468  1.00  0.00     0.032 A 
HETATM   15  C   UNL     1      42.535  -7.029  11.489  1.00  0.00     0.039 A 
HETATM   16  C   UNL     1      41.597  -7.603  12.340  1.00  0.00     0.068 A 
HETATM   17  C   UNL     1      41.288  -8.950  12.192  1.00  0.00     0.039 A 
HETATM   18  C   UNL     1      41.866  -9.706  11.165  1.00  0.00     0.032 A 
BRANCH  16  19
HETATM   19  O   UNL     1      40.952  -6.957  13.356  1.00  0.00    -0.352 OA
BRANCH  19  20
HETATM   20  C   UNL     1      41.146  -7.515  14.658  1.00  0.00     0.171 C 
HETATM   21  C   UNL     1      42.475  -7.009  15.188  1.00  0.00     0.034 C 
ENDBRANCH  19  20
ENDBRANCH  16  19
ENDBRANCH  10  13
ENDBRANCH   1   7
BRANCH   3  22
HETATM   22  C   UNL     1      42.137 -13.120   3.468  1.00  0.00     0.129 C 
BRANCH  22  23
HETATM   23  C   UNL     1      40.788 -12.600   2.942  1.00  0.00     0.058 C 
BRANCH  23  24
HETATM   24  C   UNL     1      40.301 -13.088   1.592  1.00  0.00    -0.057 A 
HETATM   25  C   UNL     1      40.424 -14.411   1.149  1.00  0.00     0.009 A 
HETATM   26  C   UNL     1      39.966 -14.791  -0.114  1.00  0.00     0.025 A 
HETATM   27  C   UNL     1      39.354 -13.847  -0.941  1.00  0.00     0.074 A 
HETATM   28  C   UNL     1      39.210 -12.526  -0.520  1.00  0.00     0.025 A 
HETATM   29  C   UNL     1      39.684 -12.153   0.739  1.00  0.00     0.009 A 
BRANCH  27  30
HETATM   30  S   UNL     1      38.778 -14.339  -2.535  1.00  0.00     0.239 S 
HETATM   31  O   UNL     1      39.514 -13.627  -3.555  1.00  0.00    -0.206 OA
HETATM   32  O   UNL     1      38.612 -15.772  -2.555  1.00  0.00    -0.206 OA
BRANCH  30  33
HETATM   33  N   UNL     1      37.229 -13.686  -2.576  1.00  0.00    -0.225 NA
HETATM   34  H   UNL     1      36.900 -13.646  -3.541  1.00  0.00     0.136 HD
HETATM   35  H   UNL     1      36.618 -14.212  -1.950  1.00  0.00     0.136 HD
ENDBRANCH  30  33
ENDBRANCH  27  30
ENDBRANCH  23  24
ENDBRANCH  22  23
ENDBRANCH   3  22
TORSDOF 9
ENDMDL
