MODEL 1
REMARK VINA RESULT:      -8.5      0.000      0.000
REMARK  9 active torsions:
REMARK  status: ('A' for Active; 'I' for Inactive)
REMARK    1  A    between atoms: C_5  and  N_6 
REMARK       I    between atoms: N_6  and  C_7 
REMARK    2  A    between atoms: C_7  and  C_8 
REMARK    3  A    between atoms: C_8  and  S_9 
REMARK    4  A    between atoms: S_9  and  C_10 
REMARK    5  A    between atoms: C_11  and  C_12 
REMARK       I    between atoms: C_12  and  N_13 
REMARK    6  A    between atoms: N_13  and  C_14 
REMARK    7  A    between atoms: C_14  and  C_15 
REMARK    8  A    between atoms: C_15  and  N_16 
REMARK    9  A    between atoms: C_15  and  C_22 
ROOT
HETATM    1  C   UNL     1      40.615 -12.547   0.872  1.00  0.00     0.016 A 
HETATM    2  C   UNL     1      40.445 -13.918   1.121  1.00  0.00     0.048 A 
HETATM    3  C   UNL     1      40.136 -14.809   0.079  1.00  0.00     0.018 A 
HETATM    4  C   UNL     1      39.991 -14.338  -1.223  1.00  0.00     0.001 A 
HETATM    5  C   UNL     1      40.115 -12.976  -1.479  1.00  0.00     0.001 A 
HETATM    6  C   UNL     1      40.401 -12.090  -0.437  1.00  0.00     0.019 A 
ENDROOT
BRANCH   2   7
HETATM    7  C   UNL     1      40.511 -14.514   2.471  1.00  0.00     0.253 C 
HETATM    8  N   UNL     1      41.678 -15.191   2.781  1.00  0.00    -0.354 N 
HETATM    9  H   UNL     1      42.345 -15.275   2.020  1.00  0.00     0.162 HD
HETATM   10  O   UNL     1      39.533 -14.489   3.206  1.00  0.00    -0.268 OA
BRANCH   8  11
HETATM   11  C   UNL     1      41.631 -16.281   3.758  1.00  0.00     0.161 C 
BRANCH  11  12
HETATM   12  C   UNL     1      43.012 -16.823   4.222  1.00  0.00     0.245 C 
BRANCH  12  13
HETATM   13  N   UNL     1      43.257 -16.913   5.735  1.00  0.00    -0.061 N 
HETATM   14  H   UNL     1      43.383 -17.919   5.908  1.00  0.00     0.280 HD
HETATM   15  C   UNL     1      42.190 -16.467   6.711  1.00  0.00     0.236 C 
HETATM   16  C   UNL     1      42.727 -15.202   7.362  1.00  0.00     0.029 C 
HETATM   17  C   UNL     1      44.017 -14.872   6.635  1.00  0.00     0.029 C 
HETATM   18  C   UNL     1      44.518 -16.225   6.190  1.00  0.00     0.236 C 
ENDBRANCH  12  13
BRANCH  12  19
HETATM   19  C   UNL     1      43.276 -18.169   3.574  1.00  0.00     0.015 A 
HETATM   20  S   UNL     1      44.035 -19.428   4.466  1.00  0.00    -0.104 SA
HETATM   21  C   UNL     1      43.944 -20.507   3.146  1.00  0.00     0.050 A 
HETATM   22  C   UNL     1      43.346 -19.932   2.049  1.00  0.00     0.008 A 
HETATM   23  C   UNL     1      42.964 -18.580   2.292  1.00  0.00     0.017 A 
ENDBRANCH  12  19
ENDBRANCH  11  12
ENDBRANCH   8  11
ENDBRANCH   2   7
BRANCH   1  24
HETATM   24  S   UNL     1      40.983 -11.362   2.161  1.00  0.00    -0.120 SA
BRANCH  24  25
HETATM   25  C   UNL     1      42.691 -11.832   2.624  1.00  0.00     0.182 C 
BRANCH  25  26
HETATM   26  C   UNL     1      42.835 -12.035   4.123  1.00  0.00     0.231 C 
HETATM   27  N   UNL     1      43.954 -11.399   4.642  1.00  0.00    -0.327 N 
HETATM   28  H   UNL     1      44.654 -11.069   3.993  1.00  0.00     0.169 HD
HETATM   29  O   UNL     1      42.006 -12.673   4.763  1.00  0.00    -0.272 OA
BRANCH  27  30
HETATM   30  C   UNL     1      44.221 -11.125   5.999  1.00  0.00     0.034 A 
HETATM   31  C   UNL     1      43.250 -10.740   6.923  1.00  0.00     0.030 A 
HETATM   32  C   UNL     1      43.612 -10.404   8.232  1.00  0.00     0.009 A 
HETATM   33  C   UNL     1      44.949 -10.446   8.636  1.00  0.00    -0.062 A 
HETATM   34  C   UNL     1      45.323 -10.096  10.046  1.00  0.00     0.048 C 
HETATM   35  C   UNL     1      45.919 -10.860   7.720  1.00  0.00     0.009 A 
HETATM   36  C   UNL     1      45.559 -11.190   6.411  1.00  0.00     0.030 A 
ENDBRANCH  27  30
ENDBRANCH  25  26
ENDBRANCH  24  25
ENDBRANCH   1  24
TORSDOF 9
ENDMDL
MODEL 2
REMARK VINA RESULT:      -8.4      2.298      7.522
REMARK  9 active torsions:
REMARK  status: ('A' for Active; 'I' for Inactive)
REMARK    1  A    between atoms: C_5  and  N_6 
REMARK       I    between atoms: N_6  and  C_7 
REMARK    2  A    between atoms: C_7  and  C_8 
REMARK    3  A    between atoms: C_8  and  S_9 
REMARK    4  A    between atoms: S_9  and  C_10 
REMARK    5  A    between atoms: C_11  and  C_12 
REMARK       I    between atoms: C_12  and  N_13 
REMARK    6  A    between atoms: N_13  and  C_14 
REMARK    7  A    between atoms: C_14  and  C_15 
REMARK    8  A    between atoms: C_15  and  N_16 
REMARK    9  A    between atoms: C_15  and  C_22 
ROOT
HETATM    1  C   UNL     1      43.129 -12.267   5.929  1.00  0.00     0.016 A 
HETATM    2  C   UNL     1      43.928 -11.915   4.830  1.00  0.00     0.048 A 
HETATM    3  C   UNL     1      45.229 -11.418   5.012  1.00  0.00     0.018 A 
HETATM    4  C   UNL     1      45.745 -11.265   6.296  1.00  0.00     0.001 A 
HETATM    5  C   UNL     1      44.951 -11.568   7.397  1.00  0.00     0.001 A 
HETATM    6  C   UNL     1      43.650 -12.043   7.212  1.00  0.00     0.019 A 
ENDROOT
BRANCH   2   7
HETATM    7  C   UNL     1      43.459 -11.976   3.431  1.00  0.00     0.253 C 
HETATM    8  N   UNL     1      42.774 -10.864   2.969  1.00  0.00    -0.354 N 
HETATM    9  H   UNL     1      42.597 -10.146   3.664  1.00  0.00     0.162 HD
HETATM   10  O   UNL     1      43.586 -13.005   2.781  1.00  0.00    -0.268 OA
BRANCH   8  11
HETATM   11  C   UNL     1      41.784 -11.030   1.903  1.00  0.00     0.161 C 
BRANCH  11  12
HETATM   12  C   UNL     1      40.411 -11.606   2.351  1.00  0.00     0.245 C 
BRANCH  12  13
HETATM   13  N   UNL     1      39.168 -10.751   2.070  1.00  0.00    -0.061 N 
HETATM   14  H   UNL     1      38.490 -11.417   1.675  1.00  0.00     0.280 HD
HETATM   15  C   UNL     1      39.232  -9.607   1.080  1.00  0.00     0.236 C 
HETATM   16  C   UNL     1      39.113  -8.337   1.907  1.00  0.00     0.029 C 
HETATM   17  C   UNL     1      39.136  -8.778   3.359  1.00  0.00     0.029 C 
HETATM   18  C   UNL     1      38.539 -10.164   3.308  1.00  0.00     0.236 C 
ENDBRANCH  12  13
BRANCH  12  19
HETATM   19  C   UNL     1      40.226 -12.995   1.770  1.00  0.00     0.015 A 
HETATM   20  S   UNL     1      40.350 -13.251   0.074  1.00  0.00    -0.104 SA
HETATM   21  C   UNL     1      40.068 -14.926   0.239  1.00  0.00     0.050 A 
HETATM   22  C   UNL     1      39.887 -15.292   1.553  1.00  0.00     0.008 A 
HETATM   23  C   UNL     1      39.973 -14.178   2.439  1.00  0.00     0.017 A 
ENDBRANCH  12  19
ENDBRANCH  11  12
ENDBRANCH   8  11
ENDBRANCH   2   7
BRANCH   1  24
HETATM   24  S   UNL     1      41.457 -12.880   5.760  1.00  0.00    -0.120 SA
BRANCH  24  25
HETATM   25  C   UNL     1      41.572 -14.511   6.585  1.00  0.00     0.182 C 
BRANCH  25  26
HETATM   26  C   UNL     1      41.466 -15.656   5.592  1.00  0.00     0.231 C 
HETATM   27  N   UNL     1      42.622 -15.820   4.842  1.00  0.00    -0.327 N 
HETATM   28  H   UNL     1      43.305 -15.074   4.856  1.00  0.00     0.169 HD
HETATM   29  O   UNL     1      40.458 -16.350   5.524  1.00  0.00    -0.272 OA
BRANCH  27  30
HETATM   30  C   UNL     1      42.980 -16.942   4.068  1.00  0.00     0.034 A 
HETATM   31  C   UNL     1      42.555 -17.153   2.757  1.00  0.00     0.030 A 
HETATM   32  C   UNL     1      42.886 -18.335   2.086  1.00  0.00     0.009 A 
HETATM   33  C   UNL     1      43.645 -19.325   2.716  1.00  0.00    -0.062 A 
HETATM   34  C   UNL     1      44.005 -20.582   1.982  1.00  0.00     0.048 C 
HETATM   35  C   UNL     1      44.098 -19.102   4.019  1.00  0.00     0.009 A 
HETATM   36  C   UNL     1      43.762 -17.924   4.691  1.00  0.00     0.030 A 
ENDBRANCH  27  30
ENDBRANCH  25  26
ENDBRANCH  24  25
ENDBRANCH   1  24
TORSDOF 9
ENDMDL
MODEL 3
REMARK VINA RESULT:      -8.4      2.447      7.896
REMARK  9 active torsions:
REMARK  status: ('A' for Active; 'I' for Inactive)
REMARK    1  A    between atoms: C_5  and  N_6 
REMARK       I    between atoms: N_6  and  C_7 
REMARK    2  A    between atoms: C_7  and  C_8 
REMARK    3  A    between atoms: C_8  and  S_9 
REMARK    4  A    between atoms: S_9  and  C_10 
REMARK    5  A    between atoms: C_11  and  C_12 
REMARK       I    between atoms: C_12  and  N_13 
REMARK    6  A    between atoms: N_13  and  C_14 
REMARK    7  A    between atoms: C_14  and  C_15 
REMARK    8  A    between atoms: C_15  and  N_16 
REMARK    9  A    between atoms: C_15  and  C_22 
ROOT
HETATM    1  C   UNL     1      43.393 -16.944   3.568  1.00  0.00     0.016 A 
HETATM    2  C   UNL     1      43.878 -17.379   4.811  1.00  0.00     0.048 A 
HETATM    3  C   UNL     1      44.194 -18.730   5.031  1.00  0.00     0.018 A 
HETATM    4  C   UNL     1      44.026 -19.662   4.011  1.00  0.00     0.001 A 
HETATM    5  C   UNL     1      43.506 -19.254   2.786  1.00  0.00     0.001 A 
HETATM    6  C   UNL     1      43.173 -17.913   2.578  1.00  0.00     0.019 A 
ENDROOT
BRANCH   2   7
HETATM    7  C   UNL     1      44.033 -16.490   5.981  1.00  0.00     0.253 C 
HETATM    8  N   UNL     1      42.864 -15.967   6.508  1.00  0.00    -0.354 N 
HETATM    9  H   UNL     1      42.019 -16.188   5.990  1.00  0.00     0.162 HD
HETATM   10  O   UNL     1      45.148 -16.166   6.367  1.00  0.00    -0.268 OA
BRANCH   8  11
HETATM   11  C   UNL     1      42.910 -14.680   7.204  1.00  0.00     0.161 C 
BRANCH  11  12
HETATM   12  C   UNL     1      42.835 -13.424   6.291  1.00  0.00     0.245 C 
BRANCH  12  13
HETATM   13  N   UNL     1      41.485 -12.698   6.208  1.00  0.00    -0.061 N 
HETATM   14  H   UNL     1      41.350 -12.312   7.152  1.00  0.00     0.280 HD
HETATM   15  C   UNL     1      40.218 -13.469   5.905  1.00  0.00     0.236 C 
HETATM   16  C   UNL     1      39.794 -13.037   4.510  1.00  0.00     0.029 C 
HETATM   17  C   UNL     1      40.908 -12.146   3.992  1.00  0.00     0.029 C 
HETATM   18  C   UNL     1      41.476 -11.535   5.249  1.00  0.00     0.236 C 
ENDBRANCH  12  13
BRANCH  12  19
HETATM   19  C   UNL     1      43.926 -12.444   6.680  1.00  0.00     0.015 A 
HETATM   20  S   UNL     1      43.806 -11.544   8.140  1.00  0.00    -0.104 SA
HETATM   21  C   UNL     1      45.305 -10.776   7.868  1.00  0.00     0.050 A 
HETATM   22  C   UNL     1      45.894 -11.193   6.696  1.00  0.00     0.008 A 
HETATM   23  C   UNL     1      45.098 -12.153   6.006  1.00  0.00     0.017 A 
ENDBRANCH  12  19
ENDBRANCH  11  12
ENDBRANCH   8  11
ENDBRANCH   2   7
BRANCH   1  24
HETATM   24  S   UNL     1      42.950 -15.243   3.238  1.00  0.00    -0.120 SA
BRANCH  24  25
HETATM   25  C   UNL     1      42.631 -15.282   1.435  1.00  0.00     0.182 C 
BRANCH  25  26
HETATM   26  C   UNL     1      41.187 -14.943   1.109  1.00  0.00     0.231 C 
HETATM   27  N   UNL     1      41.074 -14.054   0.049  1.00  0.00    -0.327 N 
HETATM   28  H   UNL     1      41.906 -13.563  -0.247  1.00  0.00     0.169 HD
HETATM   29  O   UNL     1      40.257 -15.454   1.724  1.00  0.00    -0.272 OA
BRANCH  27  30
HETATM   30  C   UNL     1      39.914 -13.770  -0.701  1.00  0.00     0.034 A 
HETATM   31  C   UNL     1      39.484 -14.526  -1.790  1.00  0.00     0.030 A 
HETATM   32  C   UNL     1      38.369 -14.128  -2.534  1.00  0.00     0.009 A 
HETATM   33  C   UNL     1      37.667 -12.966  -2.200  1.00  0.00    -0.062 A 
HETATM   34  C   UNL     1      36.464 -12.556  -2.997  1.00  0.00     0.048 C 
HETATM   35  C   UNL     1      38.077 -12.224  -1.090  1.00  0.00     0.009 A 
HETATM   36  C   UNL     1      39.195 -12.618  -0.352  1.00  0.00     0.030 A 
ENDBRANCH  27  30
ENDBRANCH  25  26
ENDBRANCH  24  25
ENDBRANCH   1  24
TORSDOF 9
ENDMDL
MODEL 4
REMARK VINA RESULT:      -8.3      2.999      7.581
REMARK  9 active torsions:
REMARK  status: ('A' for Active; 'I' for Inactive)
REMARK    1  A    between atoms: C_5  and  N_6 
REMARK       I    between atoms: N_6  and  C_7 
REMARK    2  A    between atoms: C_7  and  C_8 
REMARK    3  A    between atoms: C_8  and  S_9 
REMARK    4  A    between atoms: S_9  and  C_10 
REMARK    5  A    between atoms: C_11  and  C_12 
REMARK       I    between atoms: C_12  and  N_13 
REMARK    6  A    between atoms: N_13  and  C_14 
REMARK    7  A    between atoms: C_14  and  C_15 
REMARK    8  A    between atoms: C_15  and  N_16 
REMARK    9  A    between atoms: C_15  and  C_22 
ROOT
HETATM    1  C   UNL     1      39.697 -12.108   5.364  1.00  0.00     0.016 A 
HETATM    2  C   UNL     1      39.436 -11.781   4.024  1.00  0.00     0.048 A 
HETATM    3  C   UNL     1      38.821 -10.564   3.684  1.00  0.00     0.018 A 
HETATM    4  C   UNL     1      38.457  -9.663   4.681  1.00  0.00     0.001 A 
HETATM    5  C   UNL     1      38.670  -9.991   6.016  1.00  0.00     0.001 A 
HETATM    6  C   UNL     1      39.263 -11.211   6.351  1.00  0.00     0.019 A 
ENDROOT
BRANCH   2   7
HETATM    7  C   UNL     1      39.720 -12.689   2.894  1.00  0.00     0.253 C 
HETATM    8  N   UNL     1      40.749 -12.307   2.050  1.00  0.00    -0.354 N 
HETATM    9  H   UNL     1      41.159 -11.400   2.250  1.00  0.00     0.162 HD
HETATM   10  O   UNL     1      38.998 -13.654   2.681  1.00  0.00    -0.268 OA
BRANCH   8  11
HETATM   11  C   UNL     1      40.721 -12.740   0.652  1.00  0.00     0.161 C 
BRANCH  11  12
HETATM   12  C   UNL     1      39.628 -12.075  -0.232  1.00  0.00     0.245 C 
BRANCH  12  13
HETATM   13  N   UNL     1      39.994 -10.752  -0.919  1.00  0.00    -0.061 N 
HETATM   14  H   UNL     1      39.581 -10.835  -1.857  1.00  0.00     0.280 HD
HETATM   15  C   UNL     1      41.444 -10.383  -1.150  1.00  0.00     0.236 C 
HETATM   16  C   UNL     1      41.728  -9.218  -0.214  1.00  0.00     0.029 C 
HETATM   17  C   UNL     1      40.481  -9.048   0.634  1.00  0.00     0.029 C 
HETATM   18  C   UNL     1      39.378  -9.538  -0.272  1.00  0.00     0.236 C 
ENDBRANCH  12  13
BRANCH  12  19
HETATM   19  C   UNL     1      39.126 -13.070  -1.260  1.00  0.00     0.015 A 
HETATM   20  S   UNL     1      37.780 -12.685  -2.257  1.00  0.00    -0.104 SA
HETATM   21  C   UNL     1      37.873 -14.181  -3.074  1.00  0.00     0.050 A 
HETATM   22  C   UNL     1      38.906 -14.961  -2.608  1.00  0.00     0.008 A 
HETATM   23  C   UNL     1      39.628 -14.324  -1.557  1.00  0.00     0.017 A 
ENDBRANCH  12  19
ENDBRANCH  11  12
ENDBRANCH   8  11
ENDBRANCH   2   7
BRANCH   1  24
HETATM   24  S   UNL     1      40.453 -13.652   5.859  1.00  0.00    -0.120 SA
BRANCH  24  25
HETATM   25  C   UNL     1      42.227 -13.311   5.562  1.00  0.00     0.182 C 
BRANCH  25  26
HETATM   26  C   UNL     1      42.805 -14.214   4.486  1.00  0.00     0.231 C 
HETATM   27  N   UNL     1      42.919 -15.533   4.901  1.00  0.00    -0.327 N 
HETATM   28  H   UNL     1      42.830 -15.728   5.889  1.00  0.00     0.169 HD
HETATM   29  O   UNL     1      43.092 -13.780   3.375  1.00  0.00    -0.272 OA
BRANCH  27  30
HETATM   30  C   UNL     1      43.119 -16.666   4.086  1.00  0.00     0.034 A 
HETATM   31  C   UNL     1      42.388 -16.934   2.929  1.00  0.00     0.030 A 
HETATM   32  C   UNL     1      42.590 -18.123   2.222  1.00  0.00     0.009 A 
HETATM   33  C   UNL     1      43.526 -19.064   2.661  1.00  0.00    -0.062 A 
HETATM   34  C   UNL     1      43.744 -20.329   1.886  1.00  0.00     0.048 C 
HETATM   35  C   UNL     1      44.282 -18.784   3.802  1.00  0.00     0.009 A 
HETATM   36  C   UNL     1      44.074 -17.598   4.512  1.00  0.00     0.030 A 
ENDBRANCH  27  30
ENDBRANCH  25  26
ENDBRANCH  24  25
ENDBRANCH   1  24
TORSDOF 9
ENDMDL
MODEL 5
REMARK VINA RESULT:      -8.2      2.505      8.458
REMARK  9 active torsions:
REMARK  status: ('A' for Active; 'I' for Inactive)
REMARK    1  A    between atoms: C_5  and  N_6 
REMARK       I    between atoms: N_6  and  C_7 
REMARK    2  A    between atoms: C_7  and  C_8 
REMARK    3  A    between atoms: C_8  and  S_9 
REMARK    4  A    between atoms: S_9  and  C_10 
REMARK    5  A    between atoms: C_11  and  C_12 
REMARK       I    between atoms: C_12  and  N_13 
REMARK    6  A    between atoms: N_13  and  C_14 
REMARK    7  A    between atoms: C_14  and  C_15 
REMARK    8  A    between atoms: C_15  and  N_16 
REMARK    9  A    between atoms: C_15  and  C_22 
ROOT
HETATM    1  C   UNL     1      41.401 -13.963   5.662  1.00  0.00     0.016 A 
HETATM    2  C   UNL     1      42.591 -13.734   6.371  1.00  0.00     0.048 A 
HETATM    3  C   UNL     1      43.087 -14.687   7.277  1.00  0.00     0.018 A 
HETATM    4  C   UNL     1      42.396 -15.877   7.488  1.00  0.00     0.001 A 
HETATM    5  C   UNL     1      41.193 -16.100   6.825  1.00  0.00     0.001 A 
HETATM    6  C   UNL     1      40.693 -15.142   5.939  1.00  0.00     0.019 A 
ENDROOT
BRANCH   2   7
HETATM    7  C   UNL     1      43.368 -12.482   6.275  1.00  0.00     0.253 C 
HETATM    8  N   UNL     1      43.209 -11.585   7.317  1.00  0.00    -0.354 N 
HETATM    9  H   UNL     1      42.514 -11.845   8.010  1.00  0.00     0.162 HD
HETATM   10  O   UNL     1      44.018 -12.234   5.268  1.00  0.00    -0.268 OA
BRANCH   8  11
HETATM   11  C   UNL     1      43.404 -10.156   7.063  1.00  0.00     0.161 C 
BRANCH  11  12
HETATM   12  C   UNL     1      42.731  -9.197   8.085  1.00  0.00     0.245 C 
BRANCH  12  13
HETATM   13  N   UNL     1      43.580  -8.739   9.279  1.00  0.00    -0.061 N 
HETATM   14  H   UNL     1      43.501  -7.713   9.262  1.00  0.00     0.280 HD
HETATM   15  C   UNL     1      45.065  -9.027   9.319  1.00  0.00     0.236 C 
HETATM   16  C   UNL     1      45.257 -10.060  10.419  1.00  0.00     0.029 C 
HETATM   17  C   UNL     1      43.863 -10.447  10.877  1.00  0.00     0.029 C 
HETATM   18  C   UNL     1      43.054  -9.200  10.614  1.00  0.00     0.236 C 
ENDBRANCH  12  13
BRANCH  12  19
HETATM   19  C   UNL     1      42.165  -7.992   7.359  1.00  0.00     0.015 A 
HETATM   20  S   UNL     1      41.327  -8.188   5.871  1.00  0.00    -0.104 SA
HETATM   21  C   UNL     1      41.020  -6.514   5.746  1.00  0.00     0.050 A 
HETATM   22  C   UNL     1      41.537  -5.814   6.812  1.00  0.00     0.008 A 
HETATM   23  C   UNL     1      42.202  -6.664   7.742  1.00  0.00     0.017 A 
ENDBRANCH  12  19
ENDBRANCH  11  12
ENDBRANCH   8  11
ENDBRANCH   2   7
BRANCH   1  24
HETATM   24  S   UNL     1      40.709 -12.778   4.515  1.00  0.00    -0.120 SA
BRANCH  24  25
HETATM   25  C   UNL     1      41.594 -13.194   2.967  1.00  0.00     0.182 C 
BRANCH  25  26
HETATM   26  C   UNL     1      41.615 -14.692   2.713  1.00  0.00     0.231 C 
HETATM   27  N   UNL     1      42.875 -15.245   2.887  1.00  0.00    -0.327 N 
HETATM   28  H   UNL     1      43.665 -14.617   2.939  1.00  0.00     0.169 HD
HETATM   29  O   UNL     1      40.592 -15.303   2.420  1.00  0.00    -0.272 OA
BRANCH  27  30
HETATM   30  C   UNL     1      43.190 -16.612   3.031  1.00  0.00     0.034 A 
HETATM   31  C   UNL     1      42.993 -17.568   2.035  1.00  0.00     0.030 A 
HETATM   32  C   UNL     1      43.252 -18.919   2.287  1.00  0.00     0.009 A 
HETATM   33  C   UNL     1      43.711 -19.335   3.540  1.00  0.00    -0.062 A 
HETATM   34  C   UNL     1      43.999 -20.785   3.795  1.00  0.00     0.048 C 
HETATM   35  C   UNL     1      43.939 -18.375   4.530  1.00  0.00     0.009 A 
HETATM   36  C   UNL     1      43.673 -17.027   4.279  1.00  0.00     0.030 A 
ENDBRANCH  27  30
ENDBRANCH  25  26
ENDBRANCH  24  25
ENDBRANCH   1  24
TORSDOF 9
ENDMDL
MODEL 6
REMARK VINA RESULT:      -8.2      3.133      8.146
REMARK  9 active torsions:
REMARK  status: ('A' for Active; 'I' for Inactive)
REMARK    1  A    between atoms: C_5  and  N_6 
REMARK       I    between atoms: N_6  and  C_7 
REMARK    2  A    between atoms: C_7  and  C_8 
REMARK    3  A    between atoms: C_8  and  S_9 
REMARK    4  A    between atoms: S_9  and  C_10 
REMARK    5  A    between atoms: C_11  and  C_12 
REMARK       I    between atoms: C_12  and  N_13 
REMARK    6  A    between atoms: N_13  and  C_14 
REMARK    7  A    between atoms: C_14  and  C_15 
REMARK    8  A    between atoms: C_15  and  N_16 
REMARK    9  A    between atoms: C_15  and  C_22 
ROOT
HETATM    1  C   UNL     1      41.556 -12.288   5.051  1.00  0.00     0.016 A 
HETATM    2  C   UNL     1      40.910 -11.120   5.485  1.00  0.00     0.048 A 
HETATM    3  C   UNL     1      39.619 -10.798   5.033  1.00  0.00     0.018 A 
HETATM    4  C   UNL     1      38.962 -11.637   4.138  1.00  0.00     0.001 A 
HETATM    5  C   UNL     1      39.605 -12.776   3.665  1.00  0.00     0.001 A 
HETATM    6  C   UNL     1      40.897 -13.084   4.101  1.00  0.00     0.019 A 
ENDROOT
BRANCH   2   7
HETATM    7  C   UNL     1      41.538 -10.128   6.380  1.00  0.00     0.253 C 
HETATM    8  N   UNL     1      41.219 -10.231   7.724  1.00  0.00    -0.354 N 
HETATM    9  H   UNL     1      40.524 -10.935   7.951  1.00  0.00     0.162 HD
HETATM   10  O   UNL     1      42.207  -9.214   5.916  1.00  0.00    -0.268 OA
BRANCH   8  11
HETATM   11  C   UNL     1      41.258  -9.028   8.559  1.00  0.00     0.161 C 
BRANCH  11  12
HETATM   12  C   UNL     1      42.293  -9.054   9.719  1.00  0.00     0.245 C 
BRANCH  12  13
HETATM   13  N   UNL     1      42.023 -10.025  10.877  1.00  0.00    -0.061 N 
HETATM   14  H   UNL     1      42.034 -10.953  10.433  1.00  0.00     0.280 HD
HETATM   15  C   UNL     1      40.719  -9.961  11.643  1.00  0.00     0.236 C 
HETATM   16  C   UNL     1      41.077  -9.442  13.027  1.00  0.00     0.029 C 
HETATM   17  C   UNL     1      42.550  -9.081  12.971  1.00  0.00     0.029 C 
HETATM   18  C   UNL     1      43.099 -10.029  11.933  1.00  0.00     0.236 C 
ENDBRANCH  12  13
BRANCH  12  19
HETATM   19  C   UNL     1      43.682  -9.290   9.159  1.00  0.00     0.015 A 
HETATM   20  S   UNL     1      44.237 -10.889   8.855  1.00  0.00    -0.104 SA
HETATM   21  C   UNL     1      45.737 -10.328   8.264  1.00  0.00     0.050 A 
HETATM   22  C   UNL     1      45.821  -8.955   8.289  1.00  0.00     0.008 A 
HETATM   23  C   UNL     1      44.638  -8.353   8.810  1.00  0.00     0.017 A 
ENDBRANCH  12  19
ENDBRANCH  11  12
ENDBRANCH   8  11
ENDBRANCH   2   7
BRANCH   1  24
HETATM   24  S   UNL     1      43.207 -12.738   5.572  1.00  0.00    -0.120 SA
BRANCH  24  25
HETATM   25  C   UNL     1      42.867 -14.070   6.782  1.00  0.00     0.182 C 
BRANCH  25  26
HETATM   26  C   UNL     1      42.478 -15.370   6.098  1.00  0.00     0.231 C 
HETATM   27  N   UNL     1      43.224 -15.615   4.954  1.00  0.00    -0.327 N 
HETATM   28  H   UNL     1      43.766 -14.853   4.571  1.00  0.00     0.169 HD
HETATM   29  O   UNL     1      41.613 -16.102   6.567  1.00  0.00    -0.272 OA
BRANCH  27  30
HETATM   30  C   UNL     1      43.341 -16.839   4.264  1.00  0.00     0.034 A 
HETATM   31  C   UNL     1      44.147 -17.897   4.683  1.00  0.00     0.030 A 
HETATM   32  C   UNL     1      44.274 -19.046   3.895  1.00  0.00     0.009 A 
HETATM   33  C   UNL     1      43.599 -19.154   2.677  1.00  0.00    -0.062 A 
HETATM   34  C   UNL     1      43.731 -20.397   1.848  1.00  0.00     0.048 C 
HETATM   35  C   UNL     1      42.767 -18.108   2.270  1.00  0.00     0.009 A 
HETATM   36  C   UNL     1      42.646 -16.957   3.053  1.00  0.00     0.030 A 
ENDBRANCH  27  30
ENDBRANCH  25  26
ENDBRANCH  24  25
ENDBRANCH   1  24
TORSDOF 9
ENDMDL
MODEL 7
REMARK VINA RESULT:      -8.2      2.221      7.731
REMARK  9 active torsions:
REMARK  status: ('A' for Active; 'I' for Inactive)
REMARK    1  A    between atoms: C_5  and  N_6 
REMARK       I    between atoms: N_6  and  C_7 
REMARK    2  A    between atoms: C_7  and  C_8 
REMARK    3  A    between atoms: C_8  and  S_9 
REMARK    4  A    between atoms: S_9  and  C_10 
REMARK    5  A    between atoms: C_11  and  C_12 
REMARK       I    between atoms: C_12  and  N_13 
REMARK    6  A    between atoms: N_13  and  C_14 
REMARK    7  A    between atoms: C_14  and  C_15 
REMARK    8  A    between atoms: C_15  and  N_16 
REMARK    9  A    between atoms: C_15  and  C_22 
ROOT
HETATM    1  C   UNL     1      42.433 -16.761   3.225  1.00  0.00     0.016 A 
HETATM    2  C   UNL     1      43.017 -16.770   4.501  1.00  0.00     0.048 A 
HETATM    3  C   UNL     1      43.956 -17.753   4.859  1.00  0.00     0.018 A 
HETATM    4  C   UNL     1      44.317 -18.739   3.946  1.00  0.00     0.001 A 
HETATM    5  C   UNL     1      43.715 -18.769   2.692  1.00  0.00     0.001 A 
HETATM    6  C   UNL     1      42.767 -17.802   2.347  1.00  0.00     0.019 A 
ENDROOT
BRANCH   2   7
HETATM    7  C   UNL     1      42.660 -15.813   5.568  1.00  0.00     0.253 C 
HETATM    8  N   UNL     1      43.283 -14.578   5.512  1.00  0.00    -0.354 N 
HETATM    9  H   UNL     1      43.983 -14.479   4.783  1.00  0.00     0.162 HD
HETATM   10  O   UNL     1      41.938 -16.160   6.493  1.00  0.00    -0.268 OA
BRANCH   8  11
HETATM   11  C   UNL     1      43.492 -13.829   6.753  1.00  0.00     0.161 C 
BRANCH  11  12
HETATM   12  C   UNL     1      42.908 -12.388   6.770  1.00  0.00     0.245 C 
BRANCH  12  13
HETATM   13  N   UNL     1      43.865 -11.240   6.422  1.00  0.00    -0.061 N 
HETATM   14  H   UNL     1      43.508 -10.878   5.529  1.00  0.00     0.280 HD
HETATM   15  C   UNL     1      45.336 -11.513   6.186  1.00  0.00     0.236 C 
HETATM   16  C   UNL     1      46.067 -10.893   7.367  1.00  0.00     0.029 C 
HETATM   17  C   UNL     1      44.989 -10.413   8.322  1.00  0.00     0.029 C 
HETATM   18  C   UNL     1      43.831 -10.098   7.406  1.00  0.00     0.236 C 
ENDBRANCH  12  13
BRANCH  12  19
HETATM   19  C   UNL     1      41.680 -12.324   5.882  1.00  0.00     0.015 A 
HETATM   20  S   UNL     1      41.715 -11.432   4.413  1.00  0.00    -0.104 SA
HETATM   21  C   UNL     1      40.104 -11.856   4.040  1.00  0.00     0.050 A 
HETATM   22  C   UNL     1      39.545 -12.662   5.004  1.00  0.00     0.008 A 
HETATM   23  C   UNL     1      40.451 -12.930   6.072  1.00  0.00     0.017 A 
ENDBRANCH  12  19
ENDBRANCH  11  12
ENDBRANCH   8  11
ENDBRANCH   2   7
BRANCH   1  24
HETATM   24  S   UNL     1      41.214 -15.552   2.723  1.00  0.00    -0.120 SA
BRANCH  24  25
HETATM   25  C   UNL     1      42.264 -14.253   1.972  1.00  0.00     0.182 C 
BRANCH  25  26
HETATM   26  C   UNL     1      41.501 -13.431   0.947  1.00  0.00     0.231 C 
HETATM   27  N   UNL     1      40.718 -14.214   0.111  1.00  0.00    -0.327 N 
HETATM   28  H   UNL     1      40.885 -15.211   0.103  1.00  0.00     0.169 HD
HETATM   29  O   UNL     1      41.579 -12.207   0.926  1.00  0.00    -0.272 OA
BRANCH  27  30
HETATM   30  C   UNL     1      39.673 -13.777  -0.728  1.00  0.00     0.034 A 
HETATM   31  C   UNL     1      38.870 -12.669  -0.462  1.00  0.00     0.030 A 
HETATM   32  C   UNL     1      37.798 -12.352  -1.303  1.00  0.00     0.009 A 
HETATM   33  C   UNL     1      37.512 -13.139  -2.421  1.00  0.00    -0.062 A 
HETATM   34  C   UNL     1      36.368 -12.781  -3.323  1.00  0.00     0.048 C 
HETATM   35  C   UNL     1      38.333 -14.232  -2.707  1.00  0.00     0.009 A 
HETATM   36  C   UNL     1      39.400 -14.552  -1.863  1.00  0.00     0.030 A 
ENDBRANCH  27  30
ENDBRANCH  25  26
ENDBRANCH  24  25
ENDBRANCH   1  24
TORSDOF 9
ENDMDL
MODEL 8
REMARK VINA RESULT:      -8.1      3.422      8.776
REMARK  9 active torsions:
REMARK  status: ('A' for Active; 'I' for Inactive)
REMARK    1  A    between atoms: C_5  and  N_6 
REMARK       I    between atoms: N_6  and  C_7 
REMARK    2  A    between atoms: C_7  and  C_8 
REMARK    3  A    between atoms: C_8  and  S_9 
REMARK    4  A    between atoms: S_9  and  C_10 
REMARK    5  A    between atoms: C_11  and  C_12 
REMARK       I    between atoms: C_12  and  N_13 
REMARK    6  A    between atoms: N_13  and  C_14 
REMARK    7  A    between atoms: C_14  and  C_15 
REMARK    8  A    between atoms: C_15  and  N_16 
REMARK    9  A    between atoms: C_15  and  C_22 
ROOT
HETATM    1  C   UNL     1      41.417 -11.915   5.200  1.00  0.00     0.016 A 
HETATM    2  C   UNL     1      40.993 -10.728   5.818  1.00  0.00     0.048 A 
HETATM    3  C   UNL     1      39.777 -10.122   5.458  1.00  0.00     0.018 A 
HETATM    4  C   UNL     1      38.974 -10.694   4.476  1.00  0.00     0.001 A 
HETATM    5  C   UNL     1      39.401 -11.847   3.825  1.00  0.00     0.001 A 
HETATM    6  C   UNL     1      40.620 -12.436   4.170  1.00  0.00     0.019 A 
ENDROOT
BRANCH   2   7
HETATM    7  C   UNL     1      41.794 -10.002   6.823  1.00  0.00     0.253 C 
HETATM    8  N   UNL     1      41.488 -10.260   8.149  1.00  0.00    -0.354 N 
HETATM    9  H   UNL     1      40.689 -10.869   8.297  1.00  0.00     0.162 HD
HETATM   10  O   UNL     1      42.597  -9.147   6.473  1.00  0.00    -0.268 OA
BRANCH   8  11
HETATM   11  C   UNL     1      41.742  -9.225   9.153  1.00  0.00     0.161 C 
BRANCH  11  12
HETATM   12  C   UNL     1      42.764  -9.606  10.261  1.00  0.00     0.245 C 
BRANCH  12  13
HETATM   13  N   UNL     1      44.147  -8.944  10.194  1.00  0.00    -0.061 N 
HETATM   14  H   UNL     1      44.176  -8.340  11.026  1.00  0.00     0.280 HD
HETATM   15  C   UNL     1      44.511  -8.044   9.032  1.00  0.00     0.236 C 
HETATM   16  C   UNL     1      45.560  -8.803   8.234  1.00  0.00     0.029 C 
HETATM   17  C   UNL     1      45.660 -10.176   8.873  1.00  0.00     0.029 C 
HETATM   18  C   UNL     1      45.294  -9.914  10.314  1.00  0.00     0.236 C 
ENDBRANCH  12  13
BRANCH  12  19
HETATM   19  C   UNL     1      42.146  -9.376  11.627  1.00  0.00     0.015 A 
HETATM   20  S   UNL     1      40.492  -9.755  11.907  1.00  0.00    -0.104 SA
HETATM   21  C   UNL     1      40.591  -9.276  13.542  1.00  0.00     0.050 A 
HETATM   22  C   UNL     1      41.853  -8.841  13.878  1.00  0.00     0.008 A 
HETATM   23  C   UNL     1      42.751  -8.893  12.772  1.00  0.00     0.017 A 
ENDBRANCH  12  19
ENDBRANCH  11  12
ENDBRANCH   8  11
ENDBRANCH   2   7
BRANCH   1  24
HETATM   24  S   UNL     1      42.965 -12.718   5.597  1.00  0.00    -0.120 SA
BRANCH  24  25
HETATM   25  C   UNL     1      42.411 -14.080   6.688  1.00  0.00     0.182 C 
BRANCH  25  26
HETATM   26  C   UNL     1      42.087 -15.339   5.902  1.00  0.00     0.231 C 
HETATM   27  N   UNL     1      43.045 -15.628   4.940  1.00  0.00    -0.327 N 
HETATM   28  H   UNL     1      43.711 -14.906   4.703  1.00  0.00     0.169 HD
HETATM   29  O   UNL     1      41.091 -16.009   6.152  1.00  0.00    -0.272 OA
BRANCH  27  30
HETATM   30  C   UNL     1      43.221 -16.849   4.258  1.00  0.00     0.034 A 
HETATM   31  C   UNL     1      43.997 -17.906   4.737  1.00  0.00     0.030 A 
HETATM   32  C   UNL     1      44.190 -19.052   3.959  1.00  0.00     0.009 A 
HETATM   33  C   UNL     1      43.613 -19.160   2.691  1.00  0.00    -0.062 A 
HETATM   34  C   UNL     1      43.816 -20.400   1.872  1.00  0.00     0.048 C 
HETATM   35  C   UNL     1      42.811 -18.116   2.222  1.00  0.00     0.009 A 
HETATM   36  C   UNL     1      42.623 -16.968   2.996  1.00  0.00     0.030 A 
ENDBRANCH  27  30
ENDBRANCH  25  26
ENDBRANCH  24  25
ENDBRANCH   1  24
TORSDOF 9
ENDMDL
MODEL 9
REMARK VINA RESULT:      -8.1      3.005      5.157
REMARK  9 active torsions:
REMARK  status: ('A' for Active; 'I' for Inactive)
REMARK    1  A    between atoms: C_5  and  N_6 
REMARK       I    between atoms: N_6  and  C_7 
REMARK    2  A    between atoms: C_7  and  C_8 
REMARK    3  A    between atoms: C_8  and  S_9 
REMARK    4  A    between atoms: S_9  and  C_10 
REMARK    5  A    between atoms: C_11  and  C_12 
REMARK       I    between atoms: C_12  and  N_13 
REMARK    6  A    between atoms: N_13  and  C_14 
REMARK    7  A    between atoms: C_14  and  C_15 
REMARK    8  A    between atoms: C_15  and  N_16 
REMARK    9  A    between atoms: C_15  and  C_22 
ROOT
HETATM    1  C   UNL     1      41.878 -11.237   6.186  1.00  0.00     0.016 A 
HETATM    2  C   UNL     1      41.534 -12.465   5.599  1.00  0.00     0.048 A 
HETATM    3  C   UNL     1      40.189 -12.852   5.470  1.00  0.00     0.018 A 
HETATM    4  C   UNL     1      39.174 -12.018   5.931  1.00  0.00     0.001 A 
HETATM    5  C   UNL     1      39.501 -10.818   6.554  1.00  0.00     0.001 A 
HETATM    6  C   UNL     1      40.840 -10.445   6.698  1.00  0.00     0.019 A 
ENDROOT
BRANCH   2   7
HETATM    7  C   UNL     1      42.528 -13.453   5.137  1.00  0.00     0.253 C 
HETATM    8  N   UNL     1      42.769 -13.484   3.773  1.00  0.00    -0.354 N 
HETATM    9  H   UNL     1      42.180 -12.872   3.216  1.00  0.00     0.162 HD
HETATM   10  O   UNL     1      43.011 -14.258   5.922  1.00  0.00    -0.268 OA
BRANCH   8  11
HETATM   11  C   UNL     1      43.214 -14.735   3.156  1.00  0.00     0.161 C 
BRANCH  11  12
HETATM   12  C   UNL     1      42.172 -15.889   3.159  1.00  0.00     0.245 C 
BRANCH  12  13
HETATM   13  N   UNL     1      41.132 -15.896   2.030  1.00  0.00    -0.061 N 
HETATM   14  H   UNL     1      41.152 -16.862   1.678  1.00  0.00     0.280 HD
HETATM   15  C   UNL     1      41.320 -15.020   0.810  1.00  0.00     0.236 C 
HETATM   16  C   UNL     1      40.248 -13.945   0.903  1.00  0.00     0.029 C 
HETATM   17  C   UNL     1      39.572 -14.144   2.247  1.00  0.00     0.029 C 
HETATM   18  C   UNL     1      39.724 -15.624   2.495  1.00  0.00     0.236 C 
ENDBRANCH  12  13
BRANCH  12  19
HETATM   19  C   UNL     1      42.889 -17.224   3.210  1.00  0.00     0.015 A 
HETATM   20  S   UNL     1      43.802 -17.668   4.598  1.00  0.00    -0.104 SA
HETATM   21  C   UNL     1      44.219 -19.179   3.923  1.00  0.00     0.050 A 
HETATM   22  C   UNL     1      43.675 -19.353   2.671  1.00  0.00     0.008 A 
HETATM   23  C   UNL     1      42.910 -18.224   2.255  1.00  0.00     0.017 A 
ENDBRANCH  12  19
ENDBRANCH  11  12
ENDBRANCH   8  11
ENDBRANCH   2   7
BRANCH   1  24
HETATM   24  S   UNL     1      43.571 -10.702   6.400  1.00  0.00    -0.120 SA
BRANCH  24  25
HETATM   25  C   UNL     1      44.063 -11.611   7.911  1.00  0.00     0.182 C 
BRANCH  25  26
HETATM   26  C   UNL     1      44.298 -10.673   9.084  1.00  0.00     0.231 C 
HETATM   27  N   UNL     1      43.131 -10.062   9.521  1.00  0.00    -0.327 N 
HETATM   28  H   UNL     1      42.319 -10.111   8.921  1.00  0.00     0.169 HD
HETATM   29  O   UNL     1      45.413 -10.533   9.574  1.00  0.00    -0.272 OA
BRANCH  27  30
HETATM   30  C   UNL     1      42.931  -9.391  10.744  1.00  0.00     0.034 A 
HETATM   31  C   UNL     1      43.059  -8.012  10.908  1.00  0.00     0.030 A 
HETATM   32  C   UNL     1      42.927  -7.433  12.174  1.00  0.00     0.009 A 
HETATM   33  C   UNL     1      42.667  -8.224  13.296  1.00  0.00    -0.062 A 
HETATM   34  C   UNL     1      42.514  -7.591  14.647  1.00  0.00     0.048 C 
HETATM   35  C   UNL     1      42.508  -9.602  13.130  1.00  0.00     0.009 A 
HETATM   36  C   UNL     1      42.646 -10.181  11.866  1.00  0.00     0.030 A 
ENDBRANCH  27  30
ENDBRANCH  25  26
ENDBRANCH  24  25
ENDBRANCH   1  24
TORSDOF 9
ENDMDL
MODEL 10
REMARK VINA RESULT:      -8.1      2.196      7.518
REMARK  9 active torsions:
REMARK  status: ('A' for Active; 'I' for Inactive)
REMARK    1  A    between atoms: C_5  and  N_6 
REMARK       I    between atoms: N_6  and  C_7 
REMARK    2  A    between atoms: C_7  and  C_8 
REMARK    3  A    between atoms: C_8  and  S_9 
REMARK    4  A    between atoms: S_9  and  C_10 
REMARK    5  A    between atoms: C_11  and  C_12 
REMARK       I    between atoms: C_12  and  N_13 
REMARK    6  A    between atoms: N_13  and  C_14 
REMARK    7  A    between atoms: C_14  and  C_15 
REMARK    8  A    between atoms: C_15  and  N_16 
REMARK    9  A    between atoms: C_15  and  C_22 
ROOT
HETATM    1  C   UNL     1      42.363 -17.096   3.139  1.00  0.00     0.016 A 
HETATM    2  C   UNL     1      43.010 -16.973   4.379  1.00  0.00     0.048 A 
HETATM    3  C   UNL     1      44.045 -17.850   4.744  1.00  0.00     0.018 A 
HETATM    4  C   UNL     1      44.442 -18.862   3.875  1.00  0.00     0.001 A 
HETATM    5  C   UNL     1      43.782 -19.024   2.660  1.00  0.00     0.001 A 
HETATM    6  C   UNL     1      42.740 -18.162   2.310  1.00  0.00     0.019 A 
ENDROOT
BRANCH   2   7
HETATM    7  C   UNL     1      42.626 -15.979   5.402  1.00  0.00     0.253 C 
HETATM    8  N   UNL     1      43.215 -14.731   5.290  1.00  0.00    -0.354 N 
HETATM    9  H   UNL     1      43.912 -14.645   4.556  1.00  0.00     0.162 HD
HETATM   10  O   UNL     1      41.916 -16.305   6.344  1.00  0.00    -0.268 OA
BRANCH   8  11
HETATM   11  C   UNL     1      43.404 -13.922   6.496  1.00  0.00     0.161 C 
BRANCH  11  12
HETATM   12  C   UNL     1      42.758 -12.508   6.460  1.00  0.00     0.245 C 
BRANCH  12  13
HETATM   13  N   UNL     1      43.697 -11.314   6.242  1.00  0.00    -0.061 N 
HETATM   14  H   UNL     1      43.377 -10.904   5.354  1.00  0.00     0.280 HD
HETATM   15  C   UNL     1      45.185 -11.531   6.071  1.00  0.00     0.236 C 
HETATM   16  C   UNL     1      45.832 -10.970   7.329  1.00  0.00     0.029 C 
HETATM   17  C   UNL     1      44.689 -10.584   8.250  1.00  0.00     0.029 C 
HETATM   18  C   UNL     1      43.574 -10.241   7.294  1.00  0.00     0.236 C 
ENDBRANCH  12  13
BRANCH  12  19
HETATM   19  C   UNL     1      41.641 -12.483   5.434  1.00  0.00     0.015 A 
HETATM   20  S   UNL     1      41.911 -11.816   3.872  1.00  0.00    -0.104 SA
HETATM   21  C   UNL     1      40.318 -12.170   3.373  1.00  0.00     0.050 A 
HETATM   22  C   UNL     1      39.590 -12.787   4.365  1.00  0.00     0.008 A 
HETATM   23  C   UNL     1      40.351 -12.965   5.558  1.00  0.00     0.017 A 
ENDBRANCH  12  19
ENDBRANCH  11  12
ENDBRANCH   8  11
ENDBRANCH   2   7
BRANCH   1  24
HETATM   24  S   UNL     1      41.023 -16.025   2.631  1.00  0.00    -0.120 SA
BRANCH  24  25
HETATM   25  C   UNL     1      41.815 -15.036   1.310  1.00  0.00     0.182 C 
BRANCH  25  26
HETATM   26  C   UNL     1      40.789 -14.372   0.407  1.00  0.00     0.231 C 
HETATM   27  N   UNL     1      41.143 -13.076   0.059  1.00  0.00    -0.327 N 
HETATM   28  H   UNL     1      41.885 -12.632   0.582  1.00  0.00     0.169 HD
HETATM   29  O   UNL     1      39.789 -14.974   0.029  1.00  0.00    -0.272 OA
BRANCH  27  30
HETATM   30  C   UNL     1      40.597 -12.298  -0.981  1.00  0.00     0.034 A 
HETATM   31  C   UNL     1      41.129 -12.231  -2.269  1.00  0.00     0.030 A 
HETATM   32  C   UNL     1      40.576 -11.368  -3.221  1.00  0.00     0.009 A 
HETATM   33  C   UNL     1      39.485 -10.557  -2.900  1.00  0.00    -0.062 A 
HETATM   34  C   UNL     1      38.892  -9.645  -3.933  1.00  0.00     0.048 C 
HETATM   35  C   UNL     1      38.931 -10.644  -1.620  1.00  0.00     0.009 A 
HETATM   36  C   UNL     1      39.487 -11.502  -0.668  1.00  0.00     0.030 A 
ENDBRANCH  27  30
ENDBRANCH  25  26
ENDBRANCH  24  25
ENDBRANCH   1  24
TORSDOF 9
ENDMDL
