MODEL 1
REMARK VINA RESULT:      -8.1      0.000      0.000
REMARK  5 active torsions:
REMARK  status: ('A' for Active; 'I' for Inactive)
REMARK    1  A    between atoms: C_6  and  N_7 
REMARK       I    between atoms: N_7  and  C_8 
REMARK    2  A    between atoms: C_8  and  C_9 
REMARK    3  A    between atoms: C_9  and  C_10 
REMARK    4  A    between atoms: C_13  and  O_14 
REMARK    5  A    between atoms: C_19  and  C_20 
ROOT
HETATM    1  C   UNL     1      43.180 -20.157   1.819  1.00  0.00     0.073 C 
HETATM    2  C   UNL     1      43.635 -19.428   3.030  1.00  0.00     0.065 A 
HETATM    3  N   UNL     1      44.324 -20.075   3.979  1.00  0.00    -0.177 NA
HETATM    4  N   UNL     1      44.581 -19.126   4.895  1.00  0.00    -0.262 N 
HETATM    5  H   UNL     1      45.105 -19.363   5.734  1.00  0.00     0.191 HD
HETATM    6  C   UNL     1      44.071 -17.894   4.577  1.00  0.00     0.137 A 
HETATM    7  C   UNL     1      43.446 -18.054   3.355  1.00  0.00     0.046 A 
ENDROOT
BRANCH   6   8
HETATM    8  N   UNL     1      44.200 -16.775   5.383  1.00  0.00    -0.311 N 
HETATM    9  C   UNL     1      43.171 -16.336   6.206  1.00  0.00     0.227 C 
HETATM   10  O   UNL     1      42.075 -16.889   6.282  1.00  0.00    -0.273 OA
HETATM   11  H   UNL     1      45.085 -16.281   5.359  1.00  0.00     0.170 HD
BRANCH   9  12
HETATM   12  C   UNL     1      43.584 -15.143   7.059  1.00  0.00     0.141 C 
BRANCH  12  13
HETATM   13  C   UNL     1      43.438 -13.795   6.394  1.00  0.00    -0.049 A 
HETATM   14  C   UNL     1      42.758 -13.668   5.178  1.00  0.00     0.010 A 
HETATM   15  C   UNL     1      42.588 -12.413   4.589  1.00  0.00     0.037 A 
HETATM   16  C   UNL     1      43.080 -11.262   5.207  1.00  0.00     0.068 A 
HETATM   17  C   UNL     1      43.773 -11.383   6.412  1.00  0.00     0.037 A 
HETATM   18  C   UNL     1      43.951 -12.641   7.001  1.00  0.00     0.010 A 
BRANCH  16  19
HETATM   19  O   UNL     1      42.828 -10.098   4.537  1.00  0.00    -0.356 OA
HETATM   20  C   UNL     1      41.674 -10.075   3.707  1.00  0.00     0.210 C 
ENDBRANCH  16  19
ENDBRANCH  12  13
ENDBRANCH   9  12
ENDBRANCH   6   8
BRANCH   7  21
HETATM   21  C   UNL     1      42.763 -17.004   2.626  1.00  0.00    -0.020 A 
HETATM   22  C   UNL     1      43.486 -16.091   1.848  1.00  0.00     0.014 A 
HETATM   23  C   UNL     1      42.823 -15.081   1.146  1.00  0.00     0.020 A 
HETATM   24  C   UNL     1      41.434 -14.989   1.217  1.00  0.00     0.011 A 
HETATM   25 BR   UNL     1      40.535 -13.625   0.267  1.00  0.00    -0.051 Br
HETATM   26  C   UNL     1      40.703 -15.897   1.980  1.00  0.00     0.020 A 
HETATM   27  C   UNL     1      41.367 -16.905   2.684  1.00  0.00     0.014 A 
ENDBRANCH   7  21
TORSDOF 5
ENDMDL
MODEL 2
REMARK VINA RESULT:      -7.4      3.308      4.730
REMARK  5 active torsions:
REMARK  status: ('A' for Active; 'I' for Inactive)
REMARK    1  A    between atoms: C_6  and  N_7 
REMARK       I    between atoms: N_7  and  C_8 
REMARK    2  A    between atoms: C_8  and  C_9 
REMARK    3  A    between atoms: C_9  and  C_10 
REMARK    4  A    between atoms: C_13  and  O_14 
REMARK    5  A    between atoms: C_19  and  C_20 
ROOT
HETATM    1  C   UNL     1      40.119 -15.798   1.535  1.00  0.00     0.073 C 
HETATM    2  C   UNL     1      40.910 -14.824   2.327  1.00  0.00     0.065 A 
HETATM    3  N   UNL     1      40.658 -13.513   2.218  1.00  0.00    -0.177 NA
HETATM    4  N   UNL     1      41.529 -12.945   3.069  1.00  0.00    -0.262 N 
HETATM    5  H   UNL     1      41.541 -11.933   3.178  1.00  0.00     0.191 HD
HETATM    6  C   UNL     1      42.342 -13.841   3.713  1.00  0.00     0.137 A 
HETATM    7  C   UNL     1      41.961 -15.087   3.253  1.00  0.00     0.046 A 
ENDROOT
BRANCH   6   8
HETATM    8  N   UNL     1      43.324 -13.478   4.619  1.00  0.00    -0.311 N 
HETATM    9  C   UNL     1      43.030 -13.173   5.943  1.00  0.00     0.227 C 
HETATM   10  O   UNL     1      41.892 -13.193   6.411  1.00  0.00    -0.273 OA
HETATM   11  H   UNL     1      44.280 -13.446   4.286  1.00  0.00     0.170 HD
BRANCH   9  12
HETATM   12  C   UNL     1      44.283 -12.891   6.761  1.00  0.00     0.141 C 
BRANCH  12  13
HETATM   13  C   UNL     1      44.457 -11.456   7.199  1.00  0.00    -0.049 A 
HETATM   14  C   UNL     1      43.351 -10.607   7.321  1.00  0.00     0.010 A 
HETATM   15  C   UNL     1      43.512  -9.294   7.768  1.00  0.00     0.037 A 
HETATM   16  C   UNL     1      44.774  -8.807   8.113  1.00  0.00     0.068 A 
HETATM   17  C   UNL     1      45.883  -9.643   7.979  1.00  0.00     0.037 A 
HETATM   18  C   UNL     1      45.725 -10.958   7.525  1.00  0.00     0.010 A 
BRANCH  16  19
HETATM   19  O   UNL     1      44.790  -7.514   8.554  1.00  0.00    -0.356 OA
HETATM   20  C   UNL     1      43.630  -7.058   9.239  1.00  0.00     0.210 C 
ENDBRANCH  16  19
ENDBRANCH  12  13
ENDBRANCH   9  12
ENDBRANCH   6   8
BRANCH   7  21
HETATM   21  C   UNL     1      42.554 -16.344   3.665  1.00  0.00    -0.020 A 
HETATM   22  C   UNL     1      42.549 -16.723   5.014  1.00  0.00     0.014 A 
HETATM   23  C   UNL     1      43.122 -17.936   5.407  1.00  0.00     0.020 A 
HETATM   24  C   UNL     1      43.691 -18.773   4.449  1.00  0.00     0.011 A 
HETATM   25 BR   UNL     1      44.462 -20.415   4.979  1.00  0.00    -0.051 Br
HETATM   26  C   UNL     1      43.692 -18.411   3.104  1.00  0.00     0.020 A 
HETATM   27  C   UNL     1      43.123 -17.196   2.712  1.00  0.00     0.014 A 
ENDBRANCH   7  21
TORSDOF 5
ENDMDL
MODEL 3
REMARK VINA RESULT:      -7.4      3.841      7.228
REMARK  5 active torsions:
REMARK  status: ('A' for Active; 'I' for Inactive)
REMARK    1  A    between atoms: C_6  and  N_7 
REMARK       I    between atoms: N_7  and  C_8 
REMARK    2  A    between atoms: C_8  and  C_9 
REMARK    3  A    between atoms: C_9  and  C_10 
REMARK    4  A    between atoms: C_13  and  O_14 
REMARK    5  A    between atoms: C_19  and  C_20 
ROOT
HETATM    1  C   UNL     1      39.004  -9.018   3.105  1.00  0.00     0.073 C 
HETATM    2  C   UNL     1      38.779 -10.429   2.702  1.00  0.00     0.065 A 
HETATM    3  N   UNL     1      37.756 -10.737   1.895  1.00  0.00    -0.177 NA
HETATM    4  N   UNL     1      37.865 -12.067   1.730  1.00  0.00    -0.262 N 
HETATM    5  H   UNL     1      37.194 -12.560   1.144  1.00  0.00     0.191 HD
HETATM    6  C   UNL     1      38.913 -12.628   2.413  1.00  0.00     0.137 A 
HETATM    7  C   UNL     1      39.539 -11.580   3.060  1.00  0.00     0.046 A 
ENDROOT
BRANCH   6   8
HETATM    8  N   UNL     1      39.203 -13.982   2.402  1.00  0.00    -0.311 N 
HETATM    9  C   UNL     1      40.148 -14.527   1.541  1.00  0.00     0.227 C 
HETATM   10  O   UNL     1      40.789 -13.866   0.725  1.00  0.00    -0.273 OA
HETATM   11  H   UNL     1      38.703 -14.573   3.055  1.00  0.00     0.170 HD
BRANCH   9  12
HETATM   12  C   UNL     1      40.352 -16.017   1.779  1.00  0.00     0.141 C 
BRANCH  12  13
HETATM   13  C   UNL     1      41.471 -16.371   2.729  1.00  0.00    -0.049 A 
HETATM   14  C   UNL     1      41.584 -15.733   3.970  1.00  0.00     0.010 A 
HETATM   15  C   UNL     1      42.595 -16.094   4.863  1.00  0.00     0.037 A 
HETATM   16  C   UNL     1      43.503 -17.105   4.541  1.00  0.00     0.068 A 
HETATM   17  C   UNL     1      43.407 -17.734   3.301  1.00  0.00     0.037 A 
HETATM   18  C   UNL     1      42.398 -17.369   2.401  1.00  0.00     0.010 A 
BRANCH  16  19
HETATM   19  O   UNL     1      44.429 -17.374   5.511  1.00  0.00    -0.356 OA
HETATM   20  C   UNL     1      44.194 -16.808   6.794  1.00  0.00     0.210 C 
ENDBRANCH  16  19
ENDBRANCH  12  13
ENDBRANCH   9  12
ENDBRANCH   6   8
BRANCH   7  21
HETATM   21  C   UNL     1      40.708 -11.704   3.908  1.00  0.00    -0.020 A 
HETATM   22  C   UNL     1      40.589 -12.193   5.216  1.00  0.00     0.014 A 
HETATM   23  C   UNL     1      41.719 -12.311   6.029  1.00  0.00     0.020 A 
HETATM   24  C   UNL     1      42.969 -11.949   5.531  1.00  0.00     0.011 A 
HETATM   25 BR   UNL     1      44.499 -12.112   6.630  1.00  0.00    -0.051 Br
HETATM   26  C   UNL     1      43.101 -11.471   4.229  1.00  0.00     0.020 A 
HETATM   27  C   UNL     1      41.970 -11.349   3.417  1.00  0.00     0.014 A 
ENDBRANCH   7  21
TORSDOF 5
ENDMDL
MODEL 4
REMARK VINA RESULT:      -7.4      2.613      6.214
REMARK  5 active torsions:
REMARK  status: ('A' for Active; 'I' for Inactive)
REMARK    1  A    between atoms: C_6  and  N_7 
REMARK       I    between atoms: N_7  and  C_8 
REMARK    2  A    between atoms: C_8  and  C_9 
REMARK    3  A    between atoms: C_9  and  C_10 
REMARK    4  A    between atoms: C_13  and  O_14 
REMARK    5  A    between atoms: C_19  and  C_20 
ROOT
HETATM    1  C   UNL     1      40.796  -9.353   4.733  1.00  0.00     0.073 C 
HETATM    2  C   UNL     1      41.750 -10.294   5.370  1.00  0.00     0.065 A 
HETATM    3  N   UNL     1      42.426  -9.920   6.463  1.00  0.00    -0.177 NA
HETATM    4  N   UNL     1      43.166 -11.000   6.771  1.00  0.00    -0.262 N 
HETATM    5  H   UNL     1      43.781 -10.977   7.581  1.00  0.00     0.191 HD
HETATM    6  C   UNL     1      43.000 -12.051   5.906  1.00  0.00     0.137 A 
HETATM    7  C   UNL     1      42.073 -11.624   4.975  1.00  0.00     0.046 A 
ENDROOT
BRANCH   6   8
HETATM    8  N   UNL     1      43.673 -13.256   6.020  1.00  0.00    -0.311 N 
HETATM    9  C   UNL     1      43.049 -14.411   6.474  1.00  0.00     0.227 C 
HETATM   10  O   UNL     1      41.868 -14.458   6.816  1.00  0.00    -0.273 OA
HETATM   11  H   UNL     1      44.650 -13.273   5.752  1.00  0.00     0.170 HD
BRANCH   9  12
HETATM   12  C   UNL     1      43.971 -15.622   6.427  1.00  0.00     0.141 C 
BRANCH  12  13
HETATM   13  C   UNL     1      43.748 -16.556   5.261  1.00  0.00    -0.049 A 
HETATM   14  C   UNL     1      42.980 -16.156   4.162  1.00  0.00     0.010 A 
HETATM   15  C   UNL     1      42.813 -17.008   3.068  1.00  0.00     0.037 A 
HETATM   16  C   UNL     1      43.418 -18.266   3.044  1.00  0.00     0.068 A 
HETATM   17  C   UNL     1      44.172 -18.677   4.142  1.00  0.00     0.037 A 
HETATM   18  C   UNL     1      44.336 -17.828   5.244  1.00  0.00     0.010 A 
BRANCH  16  19
HETATM   19  O   UNL     1      43.192 -18.990   1.907  1.00  0.00    -0.356 OA
HETATM   20  C   UNL     1      43.554 -20.365   1.942  1.00  0.00     0.210 C 
ENDBRANCH  16  19
ENDBRANCH  12  13
ENDBRANCH   9  12
ENDBRANCH   6   8
BRANCH   7  21
HETATM   21  C   UNL     1      41.588 -12.415   3.861  1.00  0.00    -0.020 A 
HETATM   22  C   UNL     1      42.376 -12.587   2.715  1.00  0.00     0.014 A 
HETATM   23  C   UNL     1      41.904 -13.350   1.643  1.00  0.00     0.020 A 
HETATM   24  C   UNL     1      40.648 -13.948   1.722  1.00  0.00     0.011 A 
HETATM   25 BR   UNL     1      40.010 -14.983   0.275  1.00  0.00    -0.051 Br
HETATM   26  C   UNL     1      39.860 -13.792   2.860  1.00  0.00     0.020 A 
HETATM   27  C   UNL     1      40.330 -13.026   3.930  1.00  0.00     0.014 A 
ENDBRANCH   7  21
TORSDOF 5
ENDMDL
MODEL 5
REMARK VINA RESULT:      -7.2      4.203      8.442
REMARK  5 active torsions:
REMARK  status: ('A' for Active; 'I' for Inactive)
REMARK    1  A    between atoms: C_6  and  N_7 
REMARK       I    between atoms: N_7  and  C_8 
REMARK    2  A    between atoms: C_8  and  C_9 
REMARK    3  A    between atoms: C_9  and  C_10 
REMARK    4  A    between atoms: C_13  and  O_14 
REMARK    5  A    between atoms: C_19  and  C_20 
ROOT
HETATM    1  C   UNL     1      46.343  -8.844   8.323  1.00  0.00     0.073 C 
HETATM    2  C   UNL     1      45.722 -10.083   7.791  1.00  0.00     0.065 A 
HETATM    3  N   UNL     1      46.306 -10.741   6.782  1.00  0.00    -0.177 NA
HETATM    4  N   UNL     1      45.500 -11.798   6.577  1.00  0.00    -0.262 N 
HETATM    5  H   UNL     1      45.727 -12.472   5.849  1.00  0.00     0.191 HD
HETATM    6  C   UNL     1      44.412 -11.836   7.409  1.00  0.00     0.137 A 
HETATM    7  C   UNL     1      44.527 -10.726   8.224  1.00  0.00     0.046 A 
ENDROOT
BRANCH   6   8
HETATM    8  N   UNL     1      43.442 -12.823   7.364  1.00  0.00    -0.311 N 
HETATM    9  C   UNL     1      42.685 -13.062   6.223  1.00  0.00     0.227 C 
HETATM   10  O   UNL     1      42.804 -12.423   5.179  1.00  0.00    -0.273 OA
HETATM   11  H   UNL     1      43.302 -13.380   8.198  1.00  0.00     0.170 HD
BRANCH   9  12
HETATM   12  C   UNL     1      41.750 -14.253   6.391  1.00  0.00     0.141 C 
BRANCH  12  13
HETATM   13  C   UNL     1      42.359 -15.599   6.081  1.00  0.00    -0.049 A 
HETATM   14  C   UNL     1      42.729 -15.932   4.772  1.00  0.00     0.010 A 
HETATM   15  C   UNL     1      43.331 -17.162   4.498  1.00  0.00     0.037 A 
HETATM   16  C   UNL     1      43.587 -18.075   5.522  1.00  0.00     0.068 A 
HETATM   17  C   UNL     1      43.207 -17.758   6.826  1.00  0.00     0.037 A 
HETATM   18  C   UNL     1      42.596 -16.528   7.103  1.00  0.00     0.010 A 
BRANCH  16  19
HETATM   19  O   UNL     1      44.199 -19.230   5.122  1.00  0.00    -0.356 OA
HETATM   20  C   UNL     1      44.021 -19.609   3.763  1.00  0.00     0.210 C 
ENDBRANCH  16  19
ENDBRANCH  12  13
ENDBRANCH   9  12
ENDBRANCH   6   8
BRANCH   7  21
HETATM   21  C   UNL     1      43.591 -10.359   9.267  1.00  0.00    -0.020 A 
HETATM   22  C   UNL     1      43.846 -10.696  10.603  1.00  0.00     0.014 A 
HETATM   23  C   UNL     1      42.940 -10.340  11.606  1.00  0.00     0.020 A 
HETATM   24  C   UNL     1      41.783  -9.639  11.274  1.00  0.00     0.011 A 
HETATM   25 BR   UNL     1      40.559  -9.153  12.629  1.00  0.00    -0.051 Br
HETATM   26  C   UNL     1      41.523  -9.289   9.950  1.00  0.00     0.020 A 
HETATM   27  C   UNL     1      42.427  -9.649   8.947  1.00  0.00     0.014 A 
ENDBRANCH   7  21
TORSDOF 5
ENDMDL
MODEL 6
REMARK VINA RESULT:      -7.1     14.541     16.182
REMARK  5 active torsions:
REMARK  status: ('A' for Active; 'I' for Inactive)
REMARK    1  A    between atoms: C_6  and  N_7 
REMARK       I    between atoms: N_7  and  C_8 
REMARK    2  A    between atoms: C_8  and  C_9 
REMARK    3  A    between atoms: C_9  and  C_10 
REMARK    4  A    between atoms: C_13  and  O_14 
REMARK    5  A    between atoms: C_19  and  C_20 
ROOT
HETATM    1  C   UNL     1      43.872 -29.281  -3.322  1.00  0.00     0.073 C 
HETATM    2  C   UNL     1      44.827 -28.803  -2.292  1.00  0.00     0.065 A 
HETATM    3  N   UNL     1      45.886 -28.067  -2.654  1.00  0.00    -0.177 NA
HETATM    4  N   UNL     1      46.507 -27.802  -1.492  1.00  0.00    -0.262 N 
HETATM    5  H   UNL     1      47.358 -27.243  -1.490  1.00  0.00     0.191 HD
HETATM    6  C   UNL     1      45.894 -28.351  -0.396  1.00  0.00     0.137 A 
HETATM    7  C   UNL     1      44.783 -29.013  -0.884  1.00  0.00     0.046 A 
ENDROOT
BRANCH   6   8
HETATM    8  N   UNL     1      46.368 -28.221   0.898  1.00  0.00    -0.311 N 
HETATM    9  C   UNL     1      47.543 -28.833   1.319  1.00  0.00     0.227 C 
HETATM   10  O   UNL     1      48.243 -29.537   0.593  1.00  0.00    -0.273 OA
HETATM   11  H   UNL     1      45.829 -27.651   1.540  1.00  0.00     0.170 HD
BRANCH   9  12
HETATM   12  C   UNL     1      47.900 -28.469   2.754  1.00  0.00     0.141 C 
BRANCH  12  13
HETATM   13  C   UNL     1      48.559 -29.568   3.553  1.00  0.00    -0.049 A 
HETATM   14  C   UNL     1      49.948 -29.588   3.730  1.00  0.00     0.010 A 
HETATM   15  C   UNL     1      50.548 -30.583   4.506  1.00  0.00     0.037 A 
HETATM   16  C   UNL     1      49.776 -31.566   5.128  1.00  0.00     0.068 A 
HETATM   17  C   UNL     1      48.394 -31.562   4.942  1.00  0.00     0.037 A 
HETATM   18  C   UNL     1      47.790 -30.570   4.159  1.00  0.00     0.010 A 
BRANCH  16  19
HETATM   19  O   UNL     1      50.485 -32.466   5.873  1.00  0.00    -0.356 OA
HETATM   20  C   UNL     1      51.839 -32.136   6.157  1.00  0.00     0.210 C 
ENDBRANCH  16  19
ENDBRANCH  12  13
ENDBRANCH   9  12
ENDBRANCH   6   8
BRANCH   7  21
HETATM   21  C   UNL     1      43.830 -29.746  -0.075  1.00  0.00    -0.020 A 
HETATM   22  C   UNL     1      43.828 -31.147  -0.073  1.00  0.00     0.014 A 
HETATM   23  C   UNL     1      42.907 -31.850   0.709  1.00  0.00     0.020 A 
HETATM   24  C   UNL     1      41.993 -31.151   1.495  1.00  0.00     0.011 A 
HETATM   25 BR   UNL     1      40.749 -32.100   2.555  1.00  0.00    -0.051 Br
HETATM   26  C   UNL     1      41.991 -29.757   1.509  1.00  0.00     0.020 A 
HETATM   27  C   UNL     1      42.910 -29.055   0.724  1.00  0.00     0.014 A 
ENDBRANCH   7  21
TORSDOF 5
ENDMDL
MODEL 7
REMARK VINA RESULT:      -6.9     14.662     17.182
REMARK  5 active torsions:
REMARK  status: ('A' for Active; 'I' for Inactive)
REMARK    1  A    between atoms: C_6  and  N_7 
REMARK       I    between atoms: N_7  and  C_8 
REMARK    2  A    between atoms: C_8  and  C_9 
REMARK    3  A    between atoms: C_9  and  C_10 
REMARK    4  A    between atoms: C_13  and  O_14 
REMARK    5  A    between atoms: C_19  and  C_20 
ROOT
HETATM    1  C   UNL     1      50.848 -30.187   2.856  1.00  0.00     0.073 C 
HETATM    2  C   UNL     1      49.494 -29.675   2.525  1.00  0.00     0.065 A 
HETATM    3  N   UNL     1      48.813 -28.960   3.430  1.00  0.00    -0.177 NA
HETATM    4  N   UNL     1      47.665 -28.653   2.800  1.00  0.00    -0.262 N 
HETATM    5  H   UNL     1      46.959 -28.100   3.280  1.00  0.00     0.191 HD
HETATM    6  C   UNL     1      47.578 -29.156   1.528  1.00  0.00     0.137 A 
HETATM    7  C   UNL     1      48.765 -29.830   1.312  1.00  0.00     0.046 A 
ENDROOT
BRANCH   6   8
HETATM    8  N   UNL     1      46.480 -28.979   0.703  1.00  0.00    -0.311 N 
HETATM    9  C   UNL     1      46.509 -28.124  -0.392  1.00  0.00     0.227 C 
HETATM   10  O   UNL     1      47.493 -27.458  -0.711  1.00  0.00    -0.273 OA
HETATM   11  H   UNL     1      45.641 -29.504   0.921  1.00  0.00     0.170 HD
BRANCH   9  12
HETATM   12  C   UNL     1      45.214 -28.167  -1.192  1.00  0.00     0.141 C 
BRANCH  12  13
HETATM   13  C   UNL     1      45.242 -29.048  -2.417  1.00  0.00    -0.049 A 
HETATM   14  C   UNL     1      44.290 -28.892  -3.431  1.00  0.00     0.010 A 
HETATM   15  C   UNL     1      44.347 -29.681  -4.583  1.00  0.00     0.037 A 
HETATM   16  C   UNL     1      45.358 -30.628  -4.750  1.00  0.00     0.068 A 
HETATM   17  C   UNL     1      46.301 -30.800  -3.737  1.00  0.00     0.037 A 
HETATM   18  C   UNL     1      46.243 -30.016  -2.578  1.00  0.00     0.010 A 
BRANCH  16  19
HETATM   19  O   UNL     1      45.311 -31.317  -5.929  1.00  0.00    -0.356 OA
HETATM   20  C   UNL     1      44.145 -31.142  -6.725  1.00  0.00     0.210 C 
ENDBRANCH  16  19
ENDBRANCH  12  13
ENDBRANCH   9  12
ENDBRANCH   6   8
BRANCH   7  21
HETATM   21  C   UNL     1      49.116 -30.525   0.090  1.00  0.00    -0.020 A 
HETATM   22  C   UNL     1      49.948 -29.918  -0.860  1.00  0.00     0.014 A 
HETATM   23  C   UNL     1      50.284 -30.592  -2.037  1.00  0.00     0.020 A 
HETATM   24  C   UNL     1      49.795 -31.878  -2.260  1.00  0.00     0.011 A 
HETATM   25 BR   UNL     1      50.252 -32.792  -3.849  1.00  0.00    -0.051 Br
HETATM   26  C   UNL     1      48.976 -32.497  -1.318  1.00  0.00     0.020 A 
HETATM   27  C   UNL     1      48.636 -31.820  -0.143  1.00  0.00     0.014 A 
ENDBRANCH   7  21
TORSDOF 5
ENDMDL
MODEL 8
REMARK VINA RESULT:      -6.9      4.236      8.384
REMARK  5 active torsions:
REMARK  status: ('A' for Active; 'I' for Inactive)
REMARK    1  A    between atoms: C_6  and  N_7 
REMARK       I    between atoms: N_7  and  C_8 
REMARK    2  A    between atoms: C_8  and  C_9 
REMARK    3  A    between atoms: C_9  and  C_10 
REMARK    4  A    between atoms: C_13  and  O_14 
REMARK    5  A    between atoms: C_19  and  C_20 
ROOT
HETATM    1  C   UNL     1      46.239  -8.856   8.637  1.00  0.00     0.073 C 
HETATM    2  C   UNL     1      45.616 -10.055   8.023  1.00  0.00     0.065 A 
HETATM    3  N   UNL     1      46.289 -10.760   7.105  1.00  0.00    -0.177 NA
HETATM    4  N   UNL     1      45.450 -11.761   6.787  1.00  0.00    -0.262 N 
HETATM    5  H   UNL     1      45.730 -12.455   6.097  1.00  0.00     0.191 HD
HETATM    6  C   UNL     1      44.255 -11.718   7.458  1.00  0.00     0.137 A 
HETATM    7  C   UNL     1      44.331 -10.612   8.283  1.00  0.00     0.046 A 
ENDROOT
BRANCH   6   8
HETATM    8  N   UNL     1      43.237 -12.638   7.276  1.00  0.00    -0.311 N 
HETATM    9  C   UNL     1      42.597 -12.798   6.053  1.00  0.00     0.227 C 
HETATM   10  O   UNL     1      42.871 -12.142   5.049  1.00  0.00    -0.273 OA
HETATM   11  H   UNL     1      42.970 -13.206   8.072  1.00  0.00     0.170 HD
BRANCH   9  12
HETATM   12  C   UNL     1      41.576 -13.928   6.080  1.00  0.00     0.141 C 
BRANCH  12  13
HETATM   13  C   UNL     1      41.769 -14.996   5.029  1.00  0.00    -0.049 A 
HETATM   14  C   UNL     1      42.857 -15.874   5.094  1.00  0.00     0.010 A 
HETATM   15  C   UNL     1      43.007 -16.887   4.143  1.00  0.00     0.037 A 
HETATM   16  C   UNL     1      42.070 -17.050   3.121  1.00  0.00     0.068 A 
HETATM   17  C   UNL     1      40.992 -16.169   3.041  1.00  0.00     0.037 A 
HETATM   18  C   UNL     1      40.843 -15.148   3.989  1.00  0.00     0.010 A 
BRANCH  16  19
HETATM   19  O   UNL     1      42.323 -18.091   2.272  1.00  0.00    -0.356 OA
HETATM   20  C   UNL     1      43.485 -18.866   2.539  1.00  0.00     0.210 C 
ENDBRANCH  16  19
ENDBRANCH  12  13
ENDBRANCH   9  12
ENDBRANCH   6   8
BRANCH   7  21
HETATM   21  C   UNL     1      43.285 -10.174   9.184  1.00  0.00    -0.020 A 
HETATM   22  C   UNL     1      42.138  -9.538   8.689  1.00  0.00     0.014 A 
HETATM   23  C   UNL     1      41.132  -9.118   9.562  1.00  0.00     0.020 A 
HETATM   24  C   UNL     1      41.268  -9.340  10.931  1.00  0.00     0.011 A 
HETATM   25 BR   UNL     1      39.906  -8.775  12.113  1.00  0.00    -0.051 Br
HETATM   26  C   UNL     1      42.398  -9.980  11.435  1.00  0.00     0.020 A 
HETATM   27  C   UNL     1      43.407 -10.397  10.561  1.00  0.00     0.014 A 
ENDBRANCH   7  21
TORSDOF 5
ENDMDL
MODEL 9
REMARK VINA RESULT:      -6.9      3.867      6.903
REMARK  5 active torsions:
REMARK  status: ('A' for Active; 'I' for Inactive)
REMARK    1  A    between atoms: C_6  and  N_7 
REMARK       I    between atoms: N_7  and  C_8 
REMARK    2  A    between atoms: C_8  and  C_9 
REMARK    3  A    between atoms: C_9  and  C_10 
REMARK    4  A    between atoms: C_13  and  O_14 
REMARK    5  A    between atoms: C_19  and  C_20 
ROOT
HETATM    1  C   UNL     1      44.691 -12.534   6.613  1.00  0.00     0.073 C 
HETATM    2  C   UNL     1      43.406 -12.047   6.052  1.00  0.00     0.065 A 
HETATM    3  N   UNL     1      42.926 -10.853   6.422  1.00  0.00    -0.177 NA
HETATM    4  N   UNL     1      41.785 -10.733   5.722  1.00  0.00    -0.262 N 
HETATM    5  H   UNL     1      41.217  -9.895   5.822  1.00  0.00     0.191 HD
HETATM    6  C   UNL     1      41.505 -11.814   4.925  1.00  0.00     0.137 A 
HETATM    7  C   UNL     1      42.552 -12.695   5.114  1.00  0.00     0.046 A 
ENDROOT
BRANCH   6   8
HETATM    8  N   UNL     1      40.375 -11.914   4.132  1.00  0.00    -0.311 N 
HETATM    9  C   UNL     1      40.271 -11.262   2.909  1.00  0.00     0.227 C 
HETATM   10  O   UNL     1      41.156 -10.548   2.440  1.00  0.00    -0.273 OA
HETATM   11  H   UNL     1      39.614 -12.491   4.472  1.00  0.00     0.170 HD
BRANCH   9  12
HETATM   12  C   UNL     1      38.973 -11.598   2.186  1.00  0.00     0.141 C 
BRANCH  12  13
HETATM   13  C   UNL     1      39.131 -12.406   0.920  1.00  0.00    -0.049 A 
HETATM   14  C   UNL     1      38.540 -11.982  -0.276  1.00  0.00     0.010 A 
HETATM   15  C   UNL     1      38.725 -12.711  -1.453  1.00  0.00     0.037 A 
HETATM   16  C   UNL     1      39.510 -13.865  -1.463  1.00  0.00     0.068 A 
HETATM   17  C   UNL     1      40.089 -14.302  -0.271  1.00  0.00     0.037 A 
HETATM   18  C   UNL     1      39.900 -13.577   0.912  1.00  0.00     0.010 A 
BRANCH  16  19
HETATM   19  O   UNL     1      39.627 -14.470  -2.682  1.00  0.00    -0.356 OA
HETATM   20  C   UNL     1      38.422 -14.917  -3.292  1.00  0.00     0.210 C 
ENDBRANCH  16  19
ENDBRANCH  12  13
ENDBRANCH   9  12
ENDBRANCH   6   8
BRANCH   7  21
HETATM   21  C   UNL     1      42.680 -13.986   4.466  1.00  0.00    -0.020 A 
HETATM   22  C   UNL     1      42.479 -15.168   5.191  1.00  0.00     0.014 A 
HETATM   23  C   UNL     1      42.603 -16.410   4.562  1.00  0.00     0.020 A 
HETATM   24  C   UNL     1      42.920 -16.469   3.206  1.00  0.00     0.011 A 
HETATM   25 BR   UNL     1      43.085 -18.147   2.354  1.00  0.00    -0.051 Br
HETATM   26  C   UNL     1      43.112 -15.300   2.473  1.00  0.00     0.020 A 
HETATM   27  C   UNL     1      42.992 -14.058   3.103  1.00  0.00     0.014 A 
ENDBRANCH   7  21
TORSDOF 5
ENDMDL
MODEL 10
REMARK VINA RESULT:      -6.8      3.699      5.446
REMARK  5 active torsions:
REMARK  status: ('A' for Active; 'I' for Inactive)
REMARK    1  A    between atoms: C_6  and  N_7 
REMARK       I    between atoms: N_7  and  C_8 
REMARK    2  A    between atoms: C_8  and  C_9 
REMARK    3  A    between atoms: C_9  and  C_10 
REMARK    4  A    between atoms: C_13  and  O_14 
REMARK    5  A    between atoms: C_19  and  C_20 
ROOT
HETATM    1  C   UNL     1      40.126 -14.281  -1.618  1.00  0.00     0.073 C 
HETATM    2  C   UNL     1      39.765 -13.575  -0.363  1.00  0.00     0.065 A 
HETATM    3  N   UNL     1      38.927 -12.531  -0.402  1.00  0.00    -0.177 NA
HETATM    4  N   UNL     1      38.814 -12.160   0.885  1.00  0.00    -0.262 N 
HETATM    5  H   UNL     1      38.219 -11.372   1.133  1.00  0.00     0.191 HD
HETATM    6  C   UNL     1      39.560 -12.919   1.750  1.00  0.00     0.137 A 
HETATM    7  C   UNL     1      40.194 -13.862   0.964  1.00  0.00     0.046 A 
ENDROOT
BRANCH   6   8
HETATM    8  N   UNL     1      39.609 -12.704   3.116  1.00  0.00    -0.311 N 
HETATM    9  C   UNL     1      40.160 -11.552   3.663  1.00  0.00     0.227 C 
HETATM   10  O   UNL     1      40.650 -10.645   2.992  1.00  0.00    -0.273 OA
HETATM   11  H   UNL     1      39.218 -13.420   3.717  1.00  0.00     0.170 HD
BRANCH   9  12
HETATM   12  C   UNL     1      40.017 -11.507   5.179  1.00  0.00     0.141 C 
BRANCH  12  13
HETATM   13  C   UNL     1      41.316 -11.509   5.949  1.00  0.00    -0.049 A 
HETATM   14  C   UNL     1      42.157 -12.628   5.929  1.00  0.00     0.010 A 
HETATM   15  C   UNL     1      43.377 -12.609   6.608  1.00  0.00     0.037 A 
HETATM   16  C   UNL     1      43.786 -11.473   7.308  1.00  0.00     0.068 A 
HETATM   17  C   UNL     1      42.947 -10.360   7.346  1.00  0.00     0.037 A 
HETATM   18  C   UNL     1      41.719 -10.379   6.672  1.00  0.00     0.010 A 
BRANCH  16  19
HETATM   19  O   UNL     1      45.009 -11.578   7.910  1.00  0.00    -0.356 OA
HETATM   20  C   UNL     1      46.075 -10.839   7.327  1.00  0.00     0.210 C 
ENDBRANCH  16  19
ENDBRANCH  12  13
ENDBRANCH   9  12
ENDBRANCH   6   8
BRANCH   7  21
HETATM   21  C   UNL     1      41.094 -14.886   1.457  1.00  0.00    -0.020 A 
HETATM   22  C   UNL     1      40.593 -16.113   1.912  1.00  0.00     0.014 A 
HETATM   23  C   UNL     1      41.464 -17.098   2.387  1.00  0.00     0.020 A 
HETATM   24  C   UNL     1      42.837 -16.858   2.398  1.00  0.00     0.011 A 
HETATM   25 BR   UNL     1      44.016 -18.190   3.036  1.00  0.00    -0.051 Br
HETATM   26  C   UNL     1      43.347 -15.645   1.939  1.00  0.00     0.020 A 
HETATM   27  C   UNL     1      42.476 -14.659   1.469  1.00  0.00     0.014 A 
ENDBRANCH   7  21
TORSDOF 5
ENDMDL
