MODEL 1
REMARK VINA RESULT:      -9.0      0.000      0.000
REMARK  7 active torsions:
REMARK  status: ('A' for Active; 'I' for Inactive)
REMARK    1  A    between atoms: O_2  and  C_3 
REMARK    2  A    between atoms: C_5  and  C_6 
REMARK    3  A    between atoms: C_6  and  O_7 
REMARK    4  A    between atoms: C_6  and  C_8 
REMARK    5  A    between atoms: C_8  and  N_9 
REMARK       I    between atoms: N_9  and  C_10 
REMARK    6  A    between atoms: C_10  and  C_11 
REMARK    7  A    between atoms: C_12  and  C_13 
ROOT
HETATM    1  C   UNL     1      42.723 -12.819   4.568  1.00  0.00     0.089 C 
HETATM    2  C   UNL     1      42.901 -13.928   5.650  1.00  0.00     0.068 C 
HETATM    3  C   UNL     1      44.068 -13.650   6.624  1.00  0.00     0.013 C 
HETATM    4  C   UNL     1      44.062 -12.241   7.191  1.00  0.00     0.001 C 
HETATM    5  C   UNL     1      44.092 -11.232   6.059  1.00  0.00     0.001 C 
HETATM    6  C   UNL     1      42.873 -11.403   5.166  1.00  0.00     0.015 C 
ENDROOT
BRANCH   1   7
HETATM    7  C   UNL     1      41.371 -13.002   3.829  1.00  0.00     0.222 C 
HETATM    8  N   UNL     1      41.394 -13.194   2.470  1.00  0.00    -0.358 N 
HETATM    9  H   UNL     1      42.273 -13.330   1.994  1.00  0.00     0.162 HD
HETATM   10  O   UNL     1      40.297 -13.000   4.430  1.00  0.00    -0.273 OA
BRANCH   8  11
HETATM   11  C   UNL     1      40.201 -13.535   1.703  1.00  0.00     0.159 C 
BRANCH  11  12
HETATM   12  C   UNL     1      40.309 -14.697   0.688  1.00  0.00     0.169 C 
BRANCH  12  13
HETATM   13  C   UNL     1      39.901 -14.329  -0.724  1.00  0.00    -0.025 A 
HETATM   14  C   UNL     1      40.295 -13.105  -1.295  1.00  0.00     0.046 A 
HETATM   15  C   UNL     1      39.938 -12.781  -2.604  1.00  0.00     0.068 A 
HETATM   16  C   UNL     1      39.168 -13.680  -3.346  1.00  0.00     0.037 A 
HETATM   17  C   UNL     1      38.766 -14.896  -2.793  1.00  0.00     0.003 A 
HETATM   18  C   UNL     1      39.134 -15.220  -1.489  1.00  0.00     0.010 A 
BRANCH  15  19
HETATM   19  O   UNL     1      40.273 -11.634  -3.268  1.00  0.00    -0.356 OA
HETATM   20  C   UNL     1      39.338 -10.563  -3.209  1.00  0.00     0.210 C 
ENDBRANCH  15  19
ENDBRANCH  12  13
BRANCH  12  21
HETATM   21  O   UNL     1      41.669 -15.154   0.664  1.00  0.00    -0.389 OA
HETATM   22  H   UNL     1      41.692 -15.974   1.190  1.00  0.00     0.210 HD
ENDBRANCH  12  21
ENDBRANCH  11  12
ENDBRANCH   8  11
ENDBRANCH   1   7
BRANCH   2  23
HETATM   23  C   UNL     1      43.112 -15.306   5.057  1.00  0.00     0.110 A 
HETATM   24  N   UNL     1      42.981 -15.663   3.794  1.00  0.00    -0.233 NA
HETATM   25  C   UNL     1      43.311 -16.998   3.745  1.00  0.00     0.087 A 
HETATM   26  C   UNL     1      43.655 -17.470   5.004  1.00  0.00     0.062 A 
HETATM   27  C   UNL     1      43.329 -17.878   2.653  1.00  0.00     0.057 A 
HETATM   28  N   UNL     1      43.519 -16.377   5.816  1.00  0.00    -0.342 N 
HETATM   29  C   UNL     1      44.017 -18.793   5.264  1.00  0.00     0.034 A 
HETATM   30  H   UNL     1      43.567 -16.378   6.826  1.00  0.00     0.167 HD
HETATM   31  C   UNL     1      44.033 -19.659   4.167  1.00  0.00     0.026 A 
HETATM   32  C   UNL     1      43.694 -19.207   2.888  1.00  0.00     0.036 A 
HETATM   33 CL   UNL     1      43.723 -20.317   1.569  1.00  0.00    -0.084 Cl
ENDBRANCH   2  23
TORSDOF 7
ENDMDL
MODEL 2
REMARK VINA RESULT:      -8.8      4.018      7.847
REMARK  7 active torsions:
REMARK  status: ('A' for Active; 'I' for Inactive)
REMARK    1  A    between atoms: O_2  and  C_3 
REMARK    2  A    between atoms: C_5  and  C_6 
REMARK    3  A    between atoms: C_6  and  O_7 
REMARK    4  A    between atoms: C_6  and  C_8 
REMARK    5  A    between atoms: C_8  and  N_9 
REMARK       I    between atoms: N_9  and  C_10 
REMARK    6  A    between atoms: C_10  and  C_11 
REMARK    7  A    between atoms: C_12  and  C_13 
ROOT
HETATM    1  C   UNL     1      41.570 -13.377   5.766  1.00  0.00     0.089 C 
HETATM    2  C   UNL     1      41.727 -13.673   4.243  1.00  0.00     0.068 C 
HETATM    3  C   UNL     1      40.415 -13.495   3.446  1.00  0.00     0.013 C 
HETATM    4  C   UNL     1      39.699 -12.189   3.743  1.00  0.00     0.001 C 
HETATM    5  C   UNL     1      39.412 -12.086   5.229  1.00  0.00     0.001 C 
HETATM    6  C   UNL     1      40.708 -12.122   6.022  1.00  0.00     0.015 C 
ENDROOT
BRANCH   1   7
HETATM    7  C   UNL     1      42.964 -13.279   6.440  1.00  0.00     0.222 C 
HETATM    8  N   UNL     1      43.804 -12.264   6.052  1.00  0.00    -0.358 N 
HETATM    9  H   UNL     1      43.469 -11.540   5.434  1.00  0.00     0.162 HD
HETATM   10  O   UNL     1      43.319 -14.067   7.316  1.00  0.00    -0.273 OA
BRANCH   8  11
HETATM   11  C   UNL     1      45.064 -11.983   6.729  1.00  0.00     0.159 C 
BRANCH  11  12
HETATM   12  C   UNL     1      45.345 -10.520   7.143  1.00  0.00     0.169 C 
BRANCH  12  13
HETATM   13  C   UNL     1      44.667 -10.097   8.431  1.00  0.00    -0.025 A 
HETATM   14  C   UNL     1      43.282  -9.855   8.472  1.00  0.00     0.046 A 
HETATM   15  C   UNL     1      42.658  -9.489   9.665  1.00  0.00     0.068 A 
HETATM   16  C   UNL     1      43.425  -9.350  10.824  1.00  0.00     0.037 A 
HETATM   17  C   UNL     1      44.800  -9.583  10.798  1.00  0.00     0.003 A 
HETATM   18  C   UNL     1      45.417  -9.958   9.607  1.00  0.00     0.010 A 
BRANCH  15  19
HETATM   19  O   UNL     1      41.323  -9.243   9.830  1.00  0.00    -0.356 OA
HETATM   20  C   UNL     1      40.771  -9.532  11.110  1.00  0.00     0.210 C 
ENDBRANCH  15  19
ENDBRANCH  12  13
BRANCH  12  21
HETATM   21  O   UNL     1      46.762 -10.357   7.301  1.00  0.00    -0.389 OA
HETATM   22  H   UNL     1      47.181 -11.029   6.733  1.00  0.00     0.210 HD
ENDBRANCH  12  21
ENDBRANCH  11  12
ENDBRANCH   8  11
ENDBRANCH   1   7
BRANCH   2  23
HETATM   23  C   UNL     1      42.254 -15.066   3.960  1.00  0.00     0.110 A 
HETATM   24  N   UNL     1      42.028 -15.806   2.892  1.00  0.00    -0.233 NA
HETATM   25  C   UNL     1      42.745 -16.965   3.080  1.00  0.00     0.087 A 
HETATM   26  C   UNL     1      43.428 -16.935   4.287  1.00  0.00     0.062 A 
HETATM   27  C   UNL     1      42.850 -18.097   2.259  1.00  0.00     0.057 A 
HETATM   28  N   UNL     1      43.099 -15.720   4.824  1.00  0.00    -0.342 N 
HETATM   29  C   UNL     1      44.225 -17.982   4.754  1.00  0.00     0.034 A 
HETATM   30  H   UNL     1      43.316 -15.406   5.760  1.00  0.00     0.167 HD
HETATM   31  C   UNL     1      44.323 -19.103   3.925  1.00  0.00     0.026 A 
HETATM   32  C   UNL     1      43.647 -19.157   2.702  1.00  0.00     0.036 A 
HETATM   33 CL   UNL     1      43.796 -20.566   1.721  1.00  0.00    -0.084 Cl
ENDBRANCH   2  23
TORSDOF 7
ENDMDL
MODEL 3
REMARK VINA RESULT:      -8.5      2.689      6.995
REMARK  7 active torsions:
REMARK  status: ('A' for Active; 'I' for Inactive)
REMARK    1  A    between atoms: O_2  and  C_3 
REMARK    2  A    between atoms: C_5  and  C_6 
REMARK    3  A    between atoms: C_6  and  O_7 
REMARK    4  A    between atoms: C_6  and  C_8 
REMARK    5  A    between atoms: C_8  and  N_9 
REMARK       I    between atoms: N_9  and  C_10 
REMARK    6  A    between atoms: C_10  and  C_11 
REMARK    7  A    between atoms: C_12  and  C_13 
ROOT
HETATM    1  C   UNL     1      38.619 -12.479  -0.866  1.00  0.00     0.089 C 
HETATM    2  C   UNL     1      39.726 -13.523  -1.206  1.00  0.00     0.068 C 
HETATM    3  C   UNL     1      39.206 -14.718  -2.036  1.00  0.00     0.013 C 
HETATM    4  C   UNL     1      38.369 -14.305  -3.234  1.00  0.00     0.001 C 
HETATM    5  C   UNL     1      37.199 -13.455  -2.775  1.00  0.00     0.001 C 
HETATM    6  C   UNL     1      37.699 -12.202  -2.075  1.00  0.00     0.015 C 
ENDROOT
BRANCH   1   7
HETATM    7  C   UNL     1      39.259 -11.181  -0.307  1.00  0.00     0.222 C 
HETATM    8  N   UNL     1      39.133 -10.920   1.036  1.00  0.00    -0.358 N 
HETATM    9  H   UNL     1      38.740 -11.617   1.651  1.00  0.00     0.162 HD
HETATM   10  O   UNL     1      39.883 -10.402  -1.026  1.00  0.00    -0.273 OA
BRANCH   8  11
HETATM   11  C   UNL     1      39.828  -9.819   1.692  1.00  0.00     0.159 C 
BRANCH  11  12
HETATM   12  C   UNL     1      41.217 -10.111   2.305  1.00  0.00     0.169 C 
BRANCH  12  13
HETATM   13  C   UNL     1      41.197 -11.113   3.442  1.00  0.00    -0.025 A 
HETATM   14  C   UNL     1      42.246 -11.165   4.378  1.00  0.00     0.046 A 
HETATM   15  C   UNL     1      42.212 -12.073   5.437  1.00  0.00     0.068 A 
HETATM   16  C   UNL     1      41.128 -12.946   5.555  1.00  0.00     0.037 A 
HETATM   17  C   UNL     1      40.082 -12.909   4.633  1.00  0.00     0.003 A 
HETATM   18  C   UNL     1      40.116 -11.994   3.583  1.00  0.00     0.010 A 
BRANCH  15  19
HETATM   19  O   UNL     1      43.161 -12.206   6.412  1.00  0.00    -0.356 OA
HETATM   20  C   UNL     1      43.574 -13.530   6.729  1.00  0.00     0.210 C 
ENDBRANCH  15  19
ENDBRANCH  12  13
BRANCH  12  21
HETATM   21  O   UNL     1      42.074 -10.615   1.270  1.00  0.00    -0.389 OA
HETATM   22  H   UNL     1      42.846 -11.005   1.719  1.00  0.00     0.210 HD
ENDBRANCH  12  21
ENDBRANCH  11  12
ENDBRANCH   8  11
ENDBRANCH   1   7
BRANCH   2  23
HETATM   23  C   UNL     1      40.415 -14.079   0.024  1.00  0.00     0.110 A 
HETATM   24  N   UNL     1      39.974 -15.027   0.829  1.00  0.00    -0.233 NA
HETATM   25  C   UNL     1      40.959 -15.207   1.772  1.00  0.00     0.087 A 
HETATM   26  C   UNL     1      42.030 -14.355   1.539  1.00  0.00     0.062 A 
HETATM   27  C   UNL     1      41.003 -16.080   2.868  1.00  0.00     0.057 A 
HETATM   28  N   UNL     1      41.658 -13.652   0.425  1.00  0.00    -0.342 N 
HETATM   29  C   UNL     1      43.169 -14.301   2.345  1.00  0.00     0.034 A 
HETATM   30  H   UNL     1      42.141 -12.852   0.039  1.00  0.00     0.167 HD
HETATM   31  C   UNL     1      43.199 -15.178   3.433  1.00  0.00     0.026 A 
HETATM   32  C   UNL     1      42.135 -16.049   3.688  1.00  0.00     0.036 A 
HETATM   33 CL   UNL     1      42.219 -17.105   5.047  1.00  0.00    -0.084 Cl
ENDBRANCH   2  23
TORSDOF 7
ENDMDL
MODEL 4
REMARK VINA RESULT:      -8.5      3.059      8.198
REMARK  7 active torsions:
REMARK  status: ('A' for Active; 'I' for Inactive)
REMARK    1  A    between atoms: O_2  and  C_3 
REMARK    2  A    between atoms: C_5  and  C_6 
REMARK    3  A    between atoms: C_6  and  O_7 
REMARK    4  A    between atoms: C_6  and  C_8 
REMARK    5  A    between atoms: C_8  and  N_9 
REMARK       I    between atoms: N_9  and  C_10 
REMARK    6  A    between atoms: C_10  and  C_11 
REMARK    7  A    between atoms: C_12  and  C_13 
ROOT
HETATM    1  C   UNL     1      43.389 -16.637   4.329  1.00  0.00     0.089 C 
HETATM    2  C   UNL     1      42.371 -17.097   3.240  1.00  0.00     0.068 C 
HETATM    3  C   UNL     1      42.926 -18.200   2.311  1.00  0.00     0.013 C 
HETATM    4  C   UNL     1      43.581 -19.349   3.058  1.00  0.00     0.001 C 
HETATM    5  C   UNL     1      44.693 -18.820   3.943  1.00  0.00     0.001 C 
HETATM    6  C   UNL     1      44.138 -17.832   4.957  1.00  0.00     0.015 C 
ENDROOT
BRANCH   1   7
HETATM    7  C   UNL     1      42.675 -15.766   5.396  1.00  0.00     0.222 C 
HETATM    8  N   UNL     1      42.889 -14.410   5.378  1.00  0.00    -0.358 N 
HETATM    9  H   UNL     1      43.400 -13.989   4.615  1.00  0.00     0.162 HD
HETATM   10  O   UNL     1      41.919 -16.256   6.234  1.00  0.00    -0.273 OA
BRANCH   8  11
HETATM   11  C   UNL     1      42.149 -13.485   6.228  1.00  0.00     0.159 C 
BRANCH  11  12
HETATM   12  C   UNL     1      42.431 -11.973   6.059  1.00  0.00     0.169 C 
BRANCH  12  13
HETATM   13  C   UNL     1      43.721 -11.506   6.704  1.00  0.00    -0.025 A 
HETATM   14  C   UNL     1      43.761 -11.151   8.065  1.00  0.00     0.046 A 
HETATM   15  C   UNL     1      44.956 -10.745   8.660  1.00  0.00     0.068 A 
HETATM   16  C   UNL     1      46.117 -10.678   7.887  1.00  0.00     0.037 A 
HETATM   17  C   UNL     1      46.092 -11.023   6.536  1.00  0.00     0.003 A 
HETATM   18  C   UNL     1      44.900 -11.438   5.949  1.00  0.00     0.010 A 
BRANCH  15  19
HETATM   19  O   UNL     1      45.121 -10.391   9.971  1.00  0.00    -0.356 OA
HETATM   20  C   UNL     1      43.983 -10.515  10.816  1.00  0.00     0.210 C 
ENDBRANCH  15  19
ENDBRANCH  12  13
BRANCH  12  21
HETATM   21  O   UNL     1      42.490 -11.676   4.657  1.00  0.00    -0.389 OA
HETATM   22  H   UNL     1      43.088 -12.335   4.262  1.00  0.00     0.210 HD
ENDBRANCH  12  21
ENDBRANCH  11  12
ENDBRANCH   8  11
ENDBRANCH   1   7
BRANCH   2  23
HETATM   23  C   UNL     1      41.883 -15.960   2.366  1.00  0.00     0.110 A 
HETATM   24  N   UNL     1      42.321 -14.715   2.352  1.00  0.00    -0.233 NA
HETATM   25  C   UNL     1      41.598 -14.073   1.374  1.00  0.00     0.087 A 
HETATM   26  C   UNL     1      40.699 -14.943   0.771  1.00  0.00     0.062 A 
HETATM   27  C   UNL     1      41.650 -12.738   0.950  1.00  0.00     0.057 A 
HETATM   28  N   UNL     1      40.901 -16.131   1.419  1.00  0.00    -0.342 N 
HETATM   29  C   UNL     1      39.818 -14.567  -0.245  1.00  0.00     0.034 A 
HETATM   30  H   UNL     1      40.332 -16.961   1.328  1.00  0.00     0.167 HD
HETATM   31  C   UNL     1      39.883 -13.233  -0.659  1.00  0.00     0.026 A 
HETATM   32  C   UNL     1      40.782 -12.338  -0.070  1.00  0.00     0.036 A 
HETATM   33 CL   UNL     1      40.816 -10.702  -0.612  1.00  0.00    -0.084 Cl
ENDBRANCH   2  23
TORSDOF 7
ENDMDL
MODEL 5
REMARK VINA RESULT:      -8.3     14.960     16.998
REMARK  7 active torsions:
REMARK  status: ('A' for Active; 'I' for Inactive)
REMARK    1  A    between atoms: O_2  and  C_3 
REMARK    2  A    between atoms: C_5  and  C_6 
REMARK    3  A    between atoms: C_6  and  O_7 
REMARK    4  A    between atoms: C_6  and  C_8 
REMARK    5  A    between atoms: C_8  and  N_9 
REMARK       I    between atoms: N_9  and  C_10 
REMARK    6  A    between atoms: C_10  and  C_11 
REMARK    7  A    between atoms: C_12  and  C_13 
ROOT
HETATM    1  C   UNL     1      44.600 -29.801  -1.418  1.00  0.00     0.089 C 
HETATM    2  C   UNL     1      45.494 -28.562  -1.106  1.00  0.00     0.068 C 
HETATM    3  C   UNL     1      46.218 -28.001  -2.351  1.00  0.00     0.013 C 
HETATM    4  C   UNL     1      45.303 -27.807  -3.548  1.00  0.00     0.001 C 
HETATM    5  C   UNL     1      44.630 -29.121  -3.898  1.00  0.00     0.001 C 
HETATM    6  C   UNL     1      43.800 -29.618  -2.726  1.00  0.00     0.015 C 
ENDROOT
BRANCH   1   7
HETATM    7  C   UNL     1      43.682 -30.119  -0.209  1.00  0.00     0.222 C 
HETATM    8  N   UNL     1      43.141 -29.068   0.490  1.00  0.00    -0.358 N 
HETATM    9  H   UNL     1      43.246 -28.125   0.146  1.00  0.00     0.162 HD
HETATM   10  O   UNL     1      43.417 -31.274   0.120  1.00  0.00    -0.273 OA
BRANCH   8  11
HETATM   11  C   UNL     1      42.143 -29.250   1.538  1.00  0.00     0.159 C 
BRANCH  11  12
HETATM   12  C   UNL     1      42.650 -29.514   2.974  1.00  0.00     0.169 C 
BRANCH  12  13
HETATM   13  C   UNL     1      42.048 -30.741   3.631  1.00  0.00    -0.025 A 
HETATM   14  C   UNL     1      40.945 -30.629   4.497  1.00  0.00     0.046 A 
HETATM   15  C   UNL     1      40.379 -31.764   5.079  1.00  0.00     0.068 A 
HETATM   16  C   UNL     1      40.928 -33.019   4.807  1.00  0.00     0.037 A 
HETATM   17  C   UNL     1      42.024 -33.145   3.954  1.00  0.00     0.003 A 
HETATM   18  C   UNL     1      42.579 -32.011   3.366  1.00  0.00     0.010 A 
BRANCH  15  19
HETATM   19  O   UNL     1      39.302 -31.781   5.921  1.00  0.00    -0.356 OA
HETATM   20  C   UNL     1      39.542 -32.193   7.262  1.00  0.00     0.210 C 
ENDBRANCH  15  19
ENDBRANCH  12  13
BRANCH  12  21
HETATM   21  O   UNL     1      44.075 -29.675   2.930  1.00  0.00    -0.389 OA
HETATM   22  H   UNL     1      44.239 -30.592   2.644  1.00  0.00     0.210 HD
ENDBRANCH  12  21
ENDBRANCH  11  12
ENDBRANCH   8  11
ENDBRANCH   1   7
BRANCH   2  23
HETATM   23  C   UNL     1      46.542 -28.838  -0.047  1.00  0.00     0.110 A 
HETATM   24  N   UNL     1      47.595 -29.625  -0.149  1.00  0.00    -0.233 NA
HETATM   25  C   UNL     1      48.259 -29.521   1.051  1.00  0.00     0.087 A 
HETATM   26  C   UNL     1      47.603 -28.648   1.907  1.00  0.00     0.062 A 
HETATM   27  C   UNL     1      49.432 -30.155   1.485  1.00  0.00     0.057 A 
HETATM   28  N   UNL     1      46.518 -28.230   1.185  1.00  0.00    -0.342 N 
HETATM   29  C   UNL     1      48.036 -28.359   3.203  1.00  0.00     0.034 A 
HETATM   30  H   UNL     1      45.745 -27.681   1.538  1.00  0.00     0.167 HD
HETATM   31  C   UNL     1      49.207 -28.996   3.621  1.00  0.00     0.026 A 
HETATM   32  C   UNL     1      49.889 -29.878   2.777  1.00  0.00     0.036 A 
HETATM   33 CL   UNL     1      51.325 -30.644   3.345  1.00  0.00    -0.084 Cl
ENDBRANCH   2  23
TORSDOF 7
ENDMDL
MODEL 6
REMARK VINA RESULT:      -8.2      3.475      7.037
REMARK  7 active torsions:
REMARK  status: ('A' for Active; 'I' for Inactive)
REMARK    1  A    between atoms: O_2  and  C_3 
REMARK    2  A    between atoms: C_5  and  C_6 
REMARK    3  A    between atoms: C_6  and  O_7 
REMARK    4  A    between atoms: C_6  and  C_8 
REMARK    5  A    between atoms: C_8  and  N_9 
REMARK       I    between atoms: N_9  and  C_10 
REMARK    6  A    between atoms: C_10  and  C_11 
REMARK    7  A    between atoms: C_12  and  C_13 
ROOT
HETATM    1  C   UNL     1      43.273 -16.518   4.119  1.00  0.00     0.089 C 
HETATM    2  C   UNL     1      41.993 -16.745   3.257  1.00  0.00     0.068 C 
HETATM    3  C   UNL     1      42.218 -17.709   2.070  1.00  0.00     0.013 C 
HETATM    4  C   UNL     1      42.926 -18.995   2.460  1.00  0.00     0.001 C 
HETATM    5  C   UNL     1      44.257 -18.671   3.113  1.00  0.00     0.001 C 
HETATM    6  C   UNL     1      44.041 -17.835   4.364  1.00  0.00     0.015 C 
ENDROOT
BRANCH   1   7
HETATM    7  C   UNL     1      42.907 -15.798   5.443  1.00  0.00     0.222 C 
HETATM    8  N   UNL     1      43.841 -14.967   6.011  1.00  0.00    -0.358 N 
HETATM    9  H   UNL     1      44.689 -14.745   5.511  1.00  0.00     0.162 HD
HETATM   10  O   UNL     1      41.807 -15.938   5.977  1.00  0.00    -0.273 OA
BRANCH   8  11
HETATM   11  C   UNL     1      43.546 -14.121   7.162  1.00  0.00     0.159 C 
BRANCH  11  12
HETATM   12  C   UNL     1      43.889 -12.617   7.053  1.00  0.00     0.169 C 
BRANCH  12  13
HETATM   13  C   UNL     1      43.133 -11.883   5.963  1.00  0.00    -0.025 A 
HETATM   14  C   UNL     1      41.922 -11.225   6.242  1.00  0.00     0.046 A 
HETATM   15  C   UNL     1      41.241 -10.530   5.241  1.00  0.00     0.068 A 
HETATM   16  C   UNL     1      41.766 -10.505   3.948  1.00  0.00     0.037 A 
HETATM   17  C   UNL     1      42.964 -11.157   3.654  1.00  0.00     0.003 A 
HETATM   18  C   UNL     1      43.645 -11.840   4.659  1.00  0.00     0.010 A 
BRANCH  15  19
HETATM   19  O   UNL     1      40.068  -9.844   5.396  1.00  0.00    -0.356 OA
HETATM   20  C   UNL     1      39.550  -9.193   4.242  1.00  0.00     0.210 C 
ENDBRANCH  15  19
ENDBRANCH  12  13
BRANCH  12  21
HETATM   21  O   UNL     1      43.595 -11.991   8.310  1.00  0.00    -0.389 OA
HETATM   22  H   UNL     1      42.695 -12.274   8.553  1.00  0.00     0.210 HD
ENDBRANCH  12  21
ENDBRANCH  11  12
ENDBRANCH   8  11
ENDBRANCH   1   7
BRANCH   2  23
HETATM   23  C   UNL     1      41.415 -15.459   2.704  1.00  0.00     0.110 A 
HETATM   24  N   UNL     1      41.835 -14.777   1.655  1.00  0.00    -0.233 NA
HETATM   25  C   UNL     1      40.975 -13.711   1.530  1.00  0.00     0.087 A 
HETATM   26  C   UNL     1      40.004 -13.740   2.521  1.00  0.00     0.062 A 
HETATM   27  C   UNL     1      40.970 -12.667   0.594  1.00  0.00     0.057 A 
HETATM   28  N   UNL     1      40.306 -14.857   3.250  1.00  0.00    -0.342 N 
HETATM   29  C   UNL     1      39.005 -12.773   2.657  1.00  0.00     0.034 A 
HETATM   30  H   UNL     1      39.884 -15.126   4.129  1.00  0.00     0.167 HD
HETATM   31  C   UNL     1      39.011 -11.739   1.716  1.00  0.00     0.026 A 
HETATM   32  C   UNL     1      39.977 -11.690   0.706  1.00  0.00     0.036 A 
HETATM   33 CL   UNL     1      39.944 -10.390  -0.425  1.00  0.00    -0.084 Cl
ENDBRANCH   2  23
TORSDOF 7
ENDMDL
MODEL 7
REMARK VINA RESULT:      -8.2      1.598      2.507
REMARK  7 active torsions:
REMARK  status: ('A' for Active; 'I' for Inactive)
REMARK    1  A    between atoms: O_2  and  C_3 
REMARK    2  A    between atoms: C_5  and  C_6 
REMARK    3  A    between atoms: C_6  and  O_7 
REMARK    4  A    between atoms: C_6  and  C_8 
REMARK    5  A    between atoms: C_8  and  N_9 
REMARK       I    between atoms: N_9  and  C_10 
REMARK    6  A    between atoms: C_10  and  C_11 
REMARK    7  A    between atoms: C_12  and  C_13 
ROOT
HETATM    1  C   UNL     1      41.699 -12.720   2.183  1.00  0.00     0.089 C 
HETATM    2  C   UNL     1      41.740 -13.451   3.560  1.00  0.00     0.068 C 
HETATM    3  C   UNL     1      42.580 -12.708   4.623  1.00  0.00     0.013 C 
HETATM    4  C   UNL     1      42.254 -11.229   4.727  1.00  0.00     0.001 C 
HETATM    5  C   UNL     1      42.437 -10.564   3.376  1.00  0.00     0.001 C 
HETATM    6  C   UNL     1      41.513 -11.196   2.347  1.00  0.00     0.015 C 
ENDROOT
BRANCH   1   7
HETATM    7  C   UNL     1      40.610 -13.348   1.274  1.00  0.00     0.222 C 
HETATM    8  N   UNL     1      40.991 -13.845   0.052  1.00  0.00    -0.358 N 
HETATM    9  H   UNL     1      41.970 -13.903  -0.187  1.00  0.00     0.162 HD
HETATM   10  O   UNL     1      39.434 -13.428   1.628  1.00  0.00    -0.273 OA
BRANCH   8  11
HETATM   11  C   UNL     1      40.085 -14.596  -0.809  1.00  0.00     0.159 C 
BRANCH  11  12
HETATM   12  C   UNL     1      39.825 -14.046  -2.231  1.00  0.00     0.169 C 
BRANCH  12  13
HETATM   13  C   UNL     1      39.146 -12.691  -2.258  1.00  0.00    -0.025 A 
HETATM   14  C   UNL     1      39.668 -11.637  -3.031  1.00  0.00     0.046 A 
HETATM   15  C   UNL     1      39.026 -10.398  -3.072  1.00  0.00     0.068 A 
HETATM   16  C   UNL     1      37.863 -10.205  -2.325  1.00  0.00     0.037 A 
HETATM   17  C   UNL     1      37.335 -11.239  -1.551  1.00  0.00     0.003 A 
HETATM   18  C   UNL     1      37.973 -12.477  -1.521  1.00  0.00     0.010 A 
BRANCH  15  19
HETATM   19  O   UNL     1      39.429  -9.309  -3.795  1.00  0.00    -0.356 OA
HETATM   20  C   UNL     1      40.803  -9.255  -4.160  1.00  0.00     0.210 C 
ENDBRANCH  15  19
ENDBRANCH  12  13
BRANCH  12  21
HETATM   21  O   UNL     1      41.082 -13.938  -2.914  1.00  0.00    -0.389 OA
HETATM   22  H   UNL     1      41.748 -13.733  -2.233  1.00  0.00     0.210 HD
ENDBRANCH  12  21
ENDBRANCH  11  12
ENDBRANCH   8  11
ENDBRANCH   1   7
BRANCH   2  23
HETATM   23  C   UNL     1      42.266 -14.869   3.464  1.00  0.00     0.110 A 
HETATM   24  N   UNL     1      42.087 -15.724   2.475  1.00  0.00    -0.233 NA
HETATM   25  C   UNL     1      42.781 -16.858   2.828  1.00  0.00     0.087 A 
HETATM   26  C   UNL     1      43.403 -16.694   4.059  1.00  0.00     0.062 A 
HETATM   27  C   UNL     1      42.918 -18.075   2.147  1.00  0.00     0.057 A 
HETATM   28  N   UNL     1      43.059 -15.426   4.438  1.00  0.00    -0.342 N 
HETATM   29  C   UNL     1      44.164 -17.686   4.681  1.00  0.00     0.034 A 
HETATM   30  H   UNL     1      43.231 -15.009   5.343  1.00  0.00     0.167 HD
HETATM   31  C   UNL     1      44.292 -18.894   3.989  1.00  0.00     0.026 A 
HETATM   32  C   UNL     1      43.680 -19.082   2.747  1.00  0.00     0.036 A 
HETATM   33 CL   UNL     1      43.864 -20.593   1.939  1.00  0.00    -0.084 Cl
ENDBRANCH   2  23
TORSDOF 7
ENDMDL
MODEL 8
REMARK VINA RESULT:      -8.1      3.160      7.018
REMARK  7 active torsions:
REMARK  status: ('A' for Active; 'I' for Inactive)
REMARK    1  A    between atoms: O_2  and  C_3 
REMARK    2  A    between atoms: C_5  and  C_6 
REMARK    3  A    between atoms: C_6  and  O_7 
REMARK    4  A    between atoms: C_6  and  C_8 
REMARK    5  A    between atoms: C_8  and  N_9 
REMARK       I    between atoms: N_9  and  C_10 
REMARK    6  A    between atoms: C_10  and  C_11 
REMARK    7  A    between atoms: C_12  and  C_13 
ROOT
HETATM    1  C   UNL     1      42.572 -16.346   4.425  1.00  0.00     0.089 C 
HETATM    2  C   UNL     1      41.982 -16.809   3.057  1.00  0.00     0.068 C 
HETATM    3  C   UNL     1      42.958 -17.681   2.235  1.00  0.00     0.013 C 
HETATM    4  C   UNL     1      43.590 -18.804   3.038  1.00  0.00     0.001 C 
HETATM    5  C   UNL     1      44.311 -18.232   4.244  1.00  0.00     0.001 C 
HETATM    6  C   UNL     1      43.334 -17.485   5.137  1.00  0.00     0.015 C 
ENDROOT
BRANCH   1   7
HETATM    7  C   UNL     1      41.452 -15.745   5.315  1.00  0.00     0.222 C 
HETATM    8  N   UNL     1      41.422 -14.383   5.491  1.00  0.00    -0.358 N 
HETATM    9  H   UNL     1      42.041 -13.791   4.956  1.00  0.00     0.162 HD
HETATM   10  O   UNL     1      40.592 -16.449   5.843  1.00  0.00    -0.273 OA
BRANCH   8  11
HETATM   11  C   UNL     1      40.328 -13.701   6.171  1.00  0.00     0.159 C 
BRANCH  11  12
HETATM   12  C   UNL     1      39.499 -12.683   5.354  1.00  0.00     0.169 C 
BRANCH  12  13
HETATM   13  C   UNL     1      40.173 -11.339   5.168  1.00  0.00    -0.025 A 
HETATM   14  C   UNL     1      40.936 -10.763   6.200  1.00  0.00     0.046 A 
HETATM   15  C   UNL     1      41.576  -9.537   6.017  1.00  0.00     0.068 A 
HETATM   16  C   UNL     1      41.441  -8.872   4.796  1.00  0.00     0.037 A 
HETATM   17  C   UNL     1      40.685  -9.427   3.763  1.00  0.00     0.003 A 
HETATM   18  C   UNL     1      40.057 -10.657   3.948  1.00  0.00     0.010 A 
BRANCH  15  19
HETATM   19  O   UNL     1      42.352  -8.890   6.938  1.00  0.00    -0.356 OA
HETATM   20  C   UNL     1      43.277  -9.685   7.668  1.00  0.00     0.210 C 
ENDBRANCH  15  19
ENDBRANCH  12  13
BRANCH  12  21
HETATM   21  O   UNL     1      39.239 -13.244   4.059  1.00  0.00    -0.389 OA
HETATM   22  H   UNL     1      38.464 -12.771   3.706  1.00  0.00     0.210 HD
ENDBRANCH  12  21
ENDBRANCH  11  12
ENDBRANCH   8  11
ENDBRANCH   1   7
BRANCH   2  23
HETATM   23  C   UNL     1      41.543 -15.654   2.180  1.00  0.00     0.110 A 
HETATM   24  N   UNL     1      41.888 -14.386   2.293  1.00  0.00    -0.233 NA
HETATM   25  C   UNL     1      41.267 -13.734   1.253  1.00  0.00     0.087 A 
HETATM   26  C   UNL     1      40.529 -14.621   0.482  1.00  0.00     0.062 A 
HETATM   27  C   UNL     1      41.283 -12.375   0.910  1.00  0.00     0.057 A 
HETATM   28  N   UNL     1      40.721 -15.830   1.092  1.00  0.00    -0.342 N 
HETATM   29  C   UNL     1      39.777 -14.241  -0.632  1.00  0.00     0.034 A 
HETATM   30  H   UNL     1      40.233 -16.689   0.877  1.00  0.00     0.167 HD
HETATM   31  C   UNL     1      39.804 -12.883  -0.964  1.00  0.00     0.026 A 
HETATM   32  C   UNL     1      40.542 -11.970  -0.206  1.00  0.00     0.036 A 
HETATM   33 CL   UNL     1      40.536 -10.306  -0.653  1.00  0.00    -0.084 Cl
ENDBRANCH   2  23
TORSDOF 7
ENDMDL
MODEL 9
REMARK VINA RESULT:      -8.0      3.079      5.116
REMARK  7 active torsions:
REMARK  status: ('A' for Active; 'I' for Inactive)
REMARK    1  A    between atoms: O_2  and  C_3 
REMARK    2  A    between atoms: C_5  and  C_6 
REMARK    3  A    between atoms: C_6  and  O_7 
REMARK    4  A    between atoms: C_6  and  C_8 
REMARK    5  A    between atoms: C_8  and  N_9 
REMARK       I    between atoms: N_9  and  C_10 
REMARK    6  A    between atoms: C_10  and  C_11 
REMARK    7  A    between atoms: C_12  and  C_13 
ROOT
HETATM    1  C   UNL     1      42.317 -16.250   4.433  1.00  0.00     0.089 C 
HETATM    2  C   UNL     1      42.958 -14.921   4.938  1.00  0.00     0.068 C 
HETATM    3  C   UNL     1      43.595 -15.043   6.340  1.00  0.00     0.013 C 
HETATM    4  C   UNL     1      44.500 -16.253   6.491  1.00  0.00     0.001 C 
HETATM    5  C   UNL     1      43.727 -17.518   6.170  1.00  0.00     0.001 C 
HETATM    6  C   UNL     1      43.208 -17.472   4.741  1.00  0.00     0.015 C 
ENDROOT
BRANCH   1   7
HETATM    7  C   UNL     1      41.974 -16.140   2.923  1.00  0.00     0.222 C 
HETATM    8  N   UNL     1      40.661 -15.956   2.566  1.00  0.00    -0.358 N 
HETATM    9  H   UNL     1      39.966 -15.777   3.275  1.00  0.00     0.162 HD
HETATM   10  O   UNL     1      42.844 -16.195   2.054  1.00  0.00    -0.273 OA
BRANCH   8  11
HETATM   11  C   UNL     1      40.250 -15.681   1.194  1.00  0.00     0.159 C 
BRANCH  11  12
HETATM   12  C   UNL     1      40.075 -14.201   0.781  1.00  0.00     0.169 C 
BRANCH  12  13
HETATM   13  C   UNL     1      39.488 -14.008  -0.603  1.00  0.00    -0.025 A 
HETATM   14  C   UNL     1      39.108 -12.731  -1.056  1.00  0.00     0.046 A 
HETATM   15  C   UNL     1      38.591 -12.553  -2.339  1.00  0.00     0.068 A 
HETATM   16  C   UNL     1      38.439 -13.662  -3.175  1.00  0.00     0.037 A 
HETATM   17  C   UNL     1      38.807 -14.936  -2.740  1.00  0.00     0.003 A 
HETATM   18  C   UNL     1      39.332 -15.106  -1.461  1.00  0.00     0.010 A 
BRANCH  15  19
HETATM   19  O   UNL     1      38.203 -11.364  -2.892  1.00  0.00    -0.356 OA
HETATM   20  C   UNL     1      36.831 -11.012  -2.757  1.00  0.00     0.210 C 
ENDBRANCH  15  19
ENDBRANCH  12  13
BRANCH  12  21
HETATM   21  O   UNL     1      39.212 -13.563   1.733  1.00  0.00    -0.389 OA
HETATM   22  H   UNL     1      39.775 -12.962   2.254  1.00  0.00     0.210 HD
ENDBRANCH  12  21
ENDBRANCH  11  12
ENDBRANCH   8  11
ENDBRANCH   1   7
BRANCH   2  23
HETATM   23  C   UNL     1      41.979 -13.766   4.974  1.00  0.00     0.110 A 
HETATM   24  N   UNL     1      41.556 -13.041   3.956  1.00  0.00    -0.233 NA
HETATM   25  C   UNL     1      40.655 -12.144   4.481  1.00  0.00     0.087 A 
HETATM   26  C   UNL     1      40.519 -12.323   5.851  1.00  0.00     0.062 A 
HETATM   27  C   UNL     1      39.919 -11.135   3.845  1.00  0.00     0.057 A 
HETATM   28  N   UNL     1      41.369 -13.357   6.136  1.00  0.00    -0.342 N 
HETATM   29  C   UNL     1      39.686 -11.544   6.657  1.00  0.00     0.034 A 
HETATM   30  H   UNL     1      41.624 -13.679   7.060  1.00  0.00     0.167 HD
HETATM   31  C   UNL     1      38.957 -10.543   6.008  1.00  0.00     0.026 A 
HETATM   32  C   UNL     1      39.073 -10.344   4.629  1.00  0.00     0.036 A 
HETATM   33 CL   UNL     1      38.157  -9.092   3.880  1.00  0.00    -0.084 Cl
ENDBRANCH   2  23
TORSDOF 7
ENDMDL
MODEL 10
REMARK VINA RESULT:      -7.9     14.959     16.470
REMARK  7 active torsions:
REMARK  status: ('A' for Active; 'I' for Inactive)
REMARK    1  A    between atoms: O_2  and  C_3 
REMARK    2  A    between atoms: C_5  and  C_6 
REMARK    3  A    between atoms: C_6  and  O_7 
REMARK    4  A    between atoms: C_6  and  C_8 
REMARK    5  A    between atoms: C_8  and  N_9 
REMARK       I    between atoms: N_9  and  C_10 
REMARK    6  A    between atoms: C_10  and  C_11 
REMARK    7  A    between atoms: C_12  and  C_13 
ROOT
HETATM    1  C   UNL     1      48.448 -30.246   1.447  1.00  0.00     0.089 C 
HETATM    2  C   UNL     1      47.601 -29.469   2.501  1.00  0.00     0.068 C 
HETATM    3  C   UNL     1      48.130 -29.624   3.945  1.00  0.00     0.013 C 
HETATM    4  C   UNL     1      49.625 -29.389   4.071  1.00  0.00     0.001 C 
HETATM    5  C   UNL     1      50.373 -30.334   3.150  1.00  0.00     0.001 C 
HETATM    6  C   UNL     1      49.963 -30.099   1.705  1.00  0.00     0.015 C 
ENDROOT
BRANCH   1   7
HETATM    7  C   UNL     1      48.053 -29.807   0.012  1.00  0.00     0.222 C 
HETATM    8  N   UNL     1      47.552 -28.541  -0.166  1.00  0.00    -0.358 N 
HETATM    9  H   UNL     1      47.559 -27.883   0.600  1.00  0.00     0.162 HD
HETATM   10  O   UNL     1      48.195 -30.552  -0.957  1.00  0.00    -0.273 OA
BRANCH   8  11
HETATM   11  C   UNL     1      47.301 -27.972  -1.485  1.00  0.00     0.159 C 
BRANCH  11  12
HETATM   12  C   UNL     1      45.829 -27.759  -1.906  1.00  0.00     0.169 C 
BRANCH  12  13
HETATM   13  C   UNL     1      45.228 -28.919  -2.675  1.00  0.00    -0.025 A 
HETATM   14  C   UNL     1      44.848 -30.103  -2.018  1.00  0.00     0.046 A 
HETATM   15  C   UNL     1      44.273 -31.159  -2.726  1.00  0.00     0.068 A 
HETATM   16  C   UNL     1      44.090 -31.038  -4.106  1.00  0.00     0.037 A 
HETATM   17  C   UNL     1      44.465 -29.872  -4.773  1.00  0.00     0.003 A 
HETATM   18  C   UNL     1      45.029 -28.816  -4.059  1.00  0.00     0.010 A 
BRANCH  15  19
HETATM   19  O   UNL     1      43.853 -32.347  -2.196  1.00  0.00    -0.356 OA
HETATM   20  C   UNL     1      43.538 -32.354  -0.809  1.00  0.00     0.210 C 
ENDBRANCH  15  19
ENDBRANCH  12  13
BRANCH  12  21
HETATM   21  O   UNL     1      45.044 -27.545  -0.723  1.00  0.00    -0.389 OA
HETATM   22  H   UNL     1      45.446 -28.092  -0.025  1.00  0.00     0.210 HD
ENDBRANCH  12  21
ENDBRANCH  11  12
ENDBRANCH   8  11
ENDBRANCH   1   7
BRANCH   2  23
HETATM   23  C   UNL     1      46.140 -29.868   2.499  1.00  0.00     0.110 A 
HETATM   24  N   UNL     1      45.600 -30.936   3.054  1.00  0.00    -0.233 NA
HETATM   25  C   UNL     1      44.249 -30.842   2.815  1.00  0.00     0.087 A 
HETATM   26  C   UNL     1      43.951 -29.689   2.101  1.00  0.00     0.062 A 
HETATM   27  C   UNL     1      43.212 -31.715   3.172  1.00  0.00     0.057 A 
HETATM   28  N   UNL     1      45.167 -29.091   1.914  1.00  0.00    -0.342 N 
HETATM   29  C   UNL     1      42.661 -29.337   1.698  1.00  0.00     0.034 A 
HETATM   30  H   UNL     1      45.352 -28.291   1.324  1.00  0.00     0.167 HD
HETATM   31  C   UNL     1      41.637 -30.216   2.063  1.00  0.00     0.026 A 
HETATM   32  C   UNL     1      41.910 -31.381   2.785  1.00  0.00     0.036 A 
HETATM   33 CL   UNL     1      40.612 -32.435   3.204  1.00  0.00    -0.084 Cl
ENDBRANCH   2  23
TORSDOF 7
ENDMDL
