MODEL 1
REMARK VINA RESULT:      -8.7      0.000      0.000
REMARK  7 active torsions:
REMARK  status: ('A' for Active; 'I' for Inactive)
REMARK    1  A    between atoms: C_11  and  N_12 
REMARK       I    between atoms: N_12  and  C_13 
REMARK    2  A    between atoms: C_13  and  C_14 
REMARK    3  A    between atoms: C_14  and  S_15 
REMARK    4  A    between atoms: S_15  and  C_16 
REMARK    5  A    between atoms: N_17  and  C_18 
REMARK    6  A    between atoms: C_18  and  C_19 
REMARK    7  A    between atoms: C_25  and  C_26 
ROOT
HETATM    1  N   UNL     1      42.251 -12.888   3.635  1.00  0.00    -0.326 N 
HETATM    2  C   UNL     1      41.215 -13.095   2.736  1.00  0.00     0.231 C 
HETATM    3  O   UNL     1      40.164 -12.461   2.695  1.00  0.00    -0.272 OA
HETATM    4  H   UNL     1      42.978 -13.595   3.639  1.00  0.00     0.169 HD
ENDROOT
BRANCH   2   5
HETATM    5  C   UNL     1      41.509 -14.163   1.694  1.00  0.00     0.185 C 
BRANCH   5   6
HETATM    6  S   UNL     1      40.614 -15.711   2.035  1.00  0.00    -0.081 SA
BRANCH   6   7
HETATM    7  C   UNL     1      40.943 -15.861   3.731  1.00  0.00     0.192 A 
HETATM    8  N   UNL     1      42.106 -16.352   4.276  1.00  0.00    -0.307 N 
HETATM    9  C   UNL     1      41.923 -16.266   5.642  1.00  0.00     0.135 A 
HETATM   10  N   UNL     1      40.726 -15.756   5.874  1.00  0.00    -0.134 NA
HETATM   11  N   UNL     1      40.109 -15.517   4.681  1.00  0.00    -0.123 NA
BRANCH   8  12
HETATM   12  C   UNL     1      43.298 -16.727   3.538  1.00  0.00     0.171 C 
BRANCH  12  13
HETATM   13  C   UNL     1      43.535 -18.215   3.436  1.00  0.00    -0.040 A 
HETATM   14  C   UNL     1      44.047 -18.982   4.494  1.00  0.00     0.009 A 
HETATM   15  C   UNL     1      44.232 -20.360   4.351  1.00  0.00     0.001 A 
HETATM   16  C   UNL     1      43.891 -20.993   3.160  1.00  0.00     0.000 A 
HETATM   17  C   UNL     1      43.356 -20.253   2.109  1.00  0.00     0.001 A 
HETATM   18  C   UNL     1      43.173 -18.875   2.248  1.00  0.00     0.009 A 
ENDBRANCH  12  13
ENDBRANCH   8  12
BRANCH   9  19
HETATM   19  C   UNL     1      42.783 -16.630   6.847  1.00  0.00     0.057 A 
HETATM   20  C   UNL     1      44.174 -16.061   7.002  1.00  0.00     0.013 A 
HETATM   21  C   UNL     1      43.107 -15.682   7.974  1.00  0.00     0.013 A 
ENDBRANCH   9  19
ENDBRANCH   6   7
ENDBRANCH   5   6
ENDBRANCH   2   5
BRANCH   1  22
HETATM   22  C   UNL     1      42.346 -11.870   4.607  1.00  0.00     0.037 A 
HETATM   23  C   UNL     1      41.866 -10.571   4.415  1.00  0.00     0.032 A 
HETATM   24  C   UNL     1      42.015  -9.601   5.412  1.00  0.00     0.041 A 
HETATM   25  C   UNL     1      42.629  -9.925   6.617  1.00  0.00     0.096 A 
HETATM   26  O   UNL     1      42.756  -8.915   7.526  1.00  0.00    -0.335 OA
HETATM   27  C   UNL     1      43.114 -11.217   6.817  1.00  0.00     0.070 A 
HETATM   28  C   UNL     1      43.093  -9.328   8.848  1.00  0.00     0.217 C 
HETATM   29  C   UNL     1      41.809  -9.363   9.673  1.00  0.00     0.050 C 
HETATM   30  C   UNL     1      43.852 -10.648   9.042  1.00  0.00     0.251 C 
HETATM   31  N   UNL     1      43.754 -11.543   8.012  1.00  0.00    -0.323 N 
HETATM   32  O   UNL     1      44.454 -10.937  10.075  1.00  0.00    -0.270 OA
HETATM   33  H   UNL     1      44.187 -12.446   8.150  1.00  0.00     0.169 HD
HETATM   34  C   UNL     1      42.985 -12.185   5.814  1.00  0.00     0.062 A 
ENDBRANCH   1  22
TORSDOF 7
ENDMDL
MODEL 2
REMARK VINA RESULT:      -8.7      3.801      9.911
REMARK  7 active torsions:
REMARK  status: ('A' for Active; 'I' for Inactive)
REMARK    1  A    between atoms: C_11  and  N_12 
REMARK       I    between atoms: N_12  and  C_13 
REMARK    2  A    between atoms: C_13  and  C_14 
REMARK    3  A    between atoms: C_14  and  S_15 
REMARK    4  A    between atoms: S_15  and  C_16 
REMARK    5  A    between atoms: N_17  and  C_18 
REMARK    6  A    between atoms: C_18  and  C_19 
REMARK    7  A    between atoms: C_25  and  C_26 
ROOT
HETATM    1  N   UNL     1      43.815 -11.818   7.402  1.00  0.00    -0.326 N 
HETATM    2  C   UNL     1      44.960 -11.053   7.238  1.00  0.00     0.231 C 
HETATM    3  O   UNL     1      45.779 -11.174   6.330  1.00  0.00    -0.272 OA
HETATM    4  H   UNL     1      43.330 -11.700   8.284  1.00  0.00     0.169 HD
ENDROOT
BRANCH   2   5
HETATM    5  C   UNL     1      45.108  -9.939   8.262  1.00  0.00     0.185 C 
BRANCH   5   6
HETATM    6  S   UNL     1      44.520 -10.448   9.909  1.00  0.00    -0.081 SA
BRANCH   6   7
HETATM    7  C   UNL     1      42.929  -9.759   9.866  1.00  0.00     0.192 A 
HETATM    8  N   UNL     1      42.045  -9.731  10.920  1.00  0.00    -0.307 N 
HETATM    9  C   UNL     1      40.931  -9.077  10.432  1.00  0.00     0.135 A 
HETATM   10  N   UNL     1      41.156  -8.748   9.173  1.00  0.00    -0.134 NA
HETATM   11  N   UNL     1      42.397  -9.186   8.816  1.00  0.00    -0.123 NA
BRANCH   8  12
HETATM   12  C   UNL     1      42.324 -10.170  12.275  1.00  0.00     0.171 C 
BRANCH  12  13
HETATM   13  C   UNL     1      42.379  -9.061  13.299  1.00  0.00    -0.040 A 
HETATM   14  C   UNL     1      43.258  -7.972  13.200  1.00  0.00     0.009 A 
HETATM   15  C   UNL     1      43.256  -6.965  14.168  1.00  0.00     0.001 A 
HETATM   16  C   UNL     1      42.365  -7.020  15.236  1.00  0.00     0.000 A 
HETATM   17  C   UNL     1      41.467  -8.078  15.335  1.00  0.00     0.001 A 
HETATM   18  C   UNL     1      41.469  -9.089  14.371  1.00  0.00     0.009 A 
ENDBRANCH  12  13
ENDBRANCH   8  12
BRANCH   9  19
HETATM   19  C   UNL     1      39.582  -8.698  11.033  1.00  0.00     0.057 A 
HETATM   20  C   UNL     1      39.416  -7.407  11.801  1.00  0.00     0.013 A 
HETATM   21  C   UNL     1      38.699  -7.596  10.506  1.00  0.00     0.013 A 
ENDBRANCH   9  19
ENDBRANCH   6   7
ENDBRANCH   5   6
ENDBRANCH   2   5
BRANCH   1  22
HETATM   22  C   UNL     1      43.320 -12.810   6.530  1.00  0.00     0.037 A 
HETATM   23  C   UNL     1      42.352 -12.567   5.552  1.00  0.00     0.032 A 
HETATM   24  C   UNL     1      41.885 -13.603   4.736  1.00  0.00     0.041 A 
HETATM   25  C   UNL     1      42.395 -14.889   4.877  1.00  0.00     0.096 A 
HETATM   26  O   UNL     1      41.869 -15.846   4.059  1.00  0.00    -0.335 OA
HETATM   27  C   UNL     1      43.359 -15.143   5.852  1.00  0.00     0.070 A 
HETATM   28  C   UNL     1      42.608 -17.063   3.997  1.00  0.00     0.217 C 
HETATM   29  C   UNL     1      43.465 -17.031   2.734  1.00  0.00     0.050 C 
HETATM   30  C   UNL     1      43.486 -17.460   5.192  1.00  0.00     0.251 C 
HETATM   31  N   UNL     1      43.857 -16.435   6.018  1.00  0.00    -0.323 N 
HETATM   32  O   UNL     1      43.903 -18.602   5.375  1.00  0.00    -0.270 OA
HETATM   33  H   UNL     1      44.494 -16.663   6.769  1.00  0.00     0.169 HD
HETATM   34  C   UNL     1      43.814 -14.113   6.684  1.00  0.00     0.062 A 
ENDBRANCH   1  22
TORSDOF 7
ENDMDL
MODEL 3
REMARK VINA RESULT:      -8.7      4.082      8.702
REMARK  7 active torsions:
REMARK  status: ('A' for Active; 'I' for Inactive)
REMARK    1  A    between atoms: C_11  and  N_12 
REMARK       I    between atoms: N_12  and  C_13 
REMARK    2  A    between atoms: C_13  and  C_14 
REMARK    3  A    between atoms: C_14  and  S_15 
REMARK    4  A    between atoms: S_15  and  C_16 
REMARK    5  A    between atoms: N_17  and  C_18 
REMARK    6  A    between atoms: C_18  and  C_19 
REMARK    7  A    between atoms: C_25  and  C_26 
ROOT
HETATM    1  N   UNL     1      41.983 -14.238   4.105  1.00  0.00    -0.326 N 
HETATM    2  C   UNL     1      42.372 -13.142   3.350  1.00  0.00     0.231 C 
HETATM    3  O   UNL     1      43.446 -13.018   2.766  1.00  0.00    -0.272 OA
HETATM    4  H   UNL     1      41.136 -14.120   4.650  1.00  0.00     0.169 HD
ENDROOT
BRANCH   2   5
HETATM    5  C   UNL     1      41.296 -12.077   3.213  1.00  0.00     0.185 C 
BRANCH   5   6
HETATM    6  S   UNL     1      39.633 -12.805   3.069  1.00  0.00    -0.081 SA
BRANCH   6   7
HETATM    7  C   UNL     1      39.787 -13.555   1.513  1.00  0.00     0.192 A 
HETATM    8  N   UNL     1      39.404 -12.994   0.317  1.00  0.00    -0.307 N 
HETATM    9  C   UNL     1      39.729 -13.935  -0.638  1.00  0.00     0.135 A 
HETATM   10  N   UNL     1      40.267 -14.979  -0.032  1.00  0.00    -0.134 NA
HETATM   11  N   UNL     1      40.289 -14.747   1.311  1.00  0.00    -0.123 NA
BRANCH   8  12
HETATM   12  C   UNL     1      38.910 -11.642   0.133  1.00  0.00     0.171 C 
BRANCH  12  13
HETATM   13  C   UNL     1      39.838 -10.729  -0.633  1.00  0.00    -0.040 A 
HETATM   14  C   UNL     1      41.148 -10.446  -0.215  1.00  0.00     0.009 A 
HETATM   15  C   UNL     1      41.971  -9.606  -0.971  1.00  0.00     0.001 A 
HETATM   16  C   UNL     1      41.506  -9.055  -2.161  1.00  0.00     0.000 A 
HETATM   17  C   UNL     1      40.219  -9.346  -2.604  1.00  0.00     0.001 A 
HETATM   18  C   UNL     1      39.393 -10.182  -1.850  1.00  0.00     0.009 A 
ENDBRANCH  12  13
ENDBRANCH   8  12
BRANCH   9  19
HETATM   19  C   UNL     1      39.587 -13.993  -2.155  1.00  0.00     0.057 A 
HETATM   20  C   UNL     1      38.718 -15.042  -2.809  1.00  0.00     0.013 A 
HETATM   21  C   UNL     1      38.339 -13.602  -2.904  1.00  0.00     0.013 A 
ENDBRANCH   9  19
ENDBRANCH   6   7
ENDBRANCH   5   6
ENDBRANCH   2   5
BRANCH   1  22
HETATM   22  C   UNL     1      42.689 -15.447   4.280  1.00  0.00     0.037 A 
HETATM   23  C   UNL     1      43.556 -15.689   5.350  1.00  0.00     0.032 A 
HETATM   24  C   UNL     1      44.245 -16.902   5.450  1.00  0.00     0.041 A 
HETATM   25  C   UNL     1      44.060 -17.893   4.492  1.00  0.00     0.096 A 
HETATM   26  O   UNL     1      44.788 -19.037   4.651  1.00  0.00    -0.335 OA
HETATM   27  C   UNL     1      43.200 -17.661   3.420  1.00  0.00     0.070 A 
HETATM   28  C   UNL     1      44.361 -20.141   3.858  1.00  0.00     0.217 C 
HETATM   29  C   UNL     1      43.502 -21.049   4.736  1.00  0.00     0.050 C 
HETATM   30  C   UNL     1      43.622 -19.867   2.541  1.00  0.00     0.251 C 
HETATM   31  N   UNL     1      43.028 -18.639   2.441  1.00  0.00    -0.323 N 
HETATM   32  O   UNL     1      43.493 -20.706   1.651  1.00  0.00    -0.270 OA
HETATM   33  H   UNL     1      42.476 -18.466   1.612  1.00  0.00     0.169 HD
HETATM   34  C   UNL     1      42.524 -16.441   3.305  1.00  0.00     0.062 A 
ENDBRANCH   1  22
TORSDOF 7
ENDMDL
MODEL 4
REMARK VINA RESULT:      -8.6      3.861      8.334
REMARK  7 active torsions:
REMARK  status: ('A' for Active; 'I' for Inactive)
REMARK    1  A    between atoms: C_11  and  N_12 
REMARK       I    between atoms: N_12  and  C_13 
REMARK    2  A    between atoms: C_13  and  C_14 
REMARK    3  A    between atoms: C_14  and  S_15 
REMARK    4  A    between atoms: S_15  and  C_16 
REMARK    5  A    between atoms: N_17  and  C_18 
REMARK    6  A    between atoms: C_18  and  C_19 
REMARK    7  A    between atoms: C_25  and  C_26 
ROOT
HETATM    1  N   UNL     1      41.849 -14.197   4.245  1.00  0.00    -0.326 N 
HETATM    2  C   UNL     1      40.815 -13.762   5.060  1.00  0.00     0.231 C 
HETATM    3  O   UNL     1      40.323 -14.393   5.993  1.00  0.00    -0.272 OA
HETATM    4  H   UNL     1      42.032 -13.629   3.425  1.00  0.00     0.169 HD
ENDROOT
BRANCH   2   5
HETATM    5  C   UNL     1      40.352 -12.345   4.763  1.00  0.00     0.185 C 
BRANCH   5   6
HETATM    6  S   UNL     1      39.238 -12.280   3.324  1.00  0.00    -0.081 SA
BRANCH   6   7
HETATM    7  C   UNL     1      40.325 -11.602   2.155  1.00  0.00     0.192 A 
HETATM    8  N   UNL     1      40.035 -11.388   0.828  1.00  0.00    -0.307 N 
HETATM    9  C   UNL     1      41.179 -10.825   0.299  1.00  0.00     0.135 A 
HETATM   10  N   UNL     1      42.078 -10.719   1.262  1.00  0.00    -0.134 NA
HETATM   11  N   UNL     1      41.550 -11.218   2.417  1.00  0.00    -0.123 NA
BRANCH   8  12
HETATM   12  C   UNL     1      38.743 -11.587   0.198  1.00  0.00     0.171 C 
BRANCH  12  13
HETATM   13  C   UNL     1      38.690 -12.730  -0.788  1.00  0.00    -0.040 A 
HETATM   14  C   UNL     1      37.962 -12.673  -1.987  1.00  0.00     0.009 A 
HETATM   15  C   UNL     1      37.960 -13.754  -2.872  1.00  0.00     0.001 A 
HETATM   16  C   UNL     1      38.700 -14.897  -2.584  1.00  0.00     0.000 A 
HETATM   17  C   UNL     1      39.450 -14.960  -1.414  1.00  0.00     0.001 A 
HETATM   18  C   UNL     1      39.451 -13.883  -0.525  1.00  0.00     0.009 A 
ENDBRANCH  12  13
ENDBRANCH   8  12
BRANCH   9  19
HETATM   19  C   UNL     1      41.572 -10.342  -1.092  1.00  0.00     0.057 A 
HETATM   20  C   UNL     1      41.448 -11.256  -2.289  1.00  0.00     0.013 A 
HETATM   21  C   UNL     1      40.588 -10.040  -2.193  1.00  0.00     0.013 A 
ENDBRANCH   9  19
ENDBRANCH   6   7
ENDBRANCH   5   6
ENDBRANCH   2   5
BRANCH   1  22
HETATM   22  C   UNL     1      42.594 -15.388   4.374  1.00  0.00     0.037 A 
HETATM   23  C   UNL     1      43.507 -15.621   5.406  1.00  0.00     0.032 A 
HETATM   24  C   UNL     1      44.232 -16.817   5.461  1.00  0.00     0.041 A 
HETATM   25  C   UNL     1      44.039 -17.797   4.494  1.00  0.00     0.096 A 
HETATM   26  O   UNL     1      44.803 -18.922   4.607  1.00  0.00    -0.335 OA
HETATM   27  C   UNL     1      43.133 -17.573   3.458  1.00  0.00     0.070 A 
HETATM   28  C   UNL     1      44.378 -20.026   3.811  1.00  0.00     0.217 C 
HETATM   29  C   UNL     1      43.577 -20.971   4.705  1.00  0.00     0.050 C 
HETATM   30  C   UNL     1      43.582 -19.753   2.527  1.00  0.00     0.251 C 
HETATM   31  N   UNL     1      42.951 -18.540   2.470  1.00  0.00    -0.323 N 
HETATM   32  O   UNL     1      43.443 -20.580   1.629  1.00  0.00    -0.270 OA
HETATM   33  H   UNL     1      42.364 -18.370   1.665  1.00  0.00     0.169 HD
HETATM   34  C   UNL     1      42.420 -16.370   3.389  1.00  0.00     0.062 A 
ENDBRANCH   1  22
TORSDOF 7
ENDMDL
MODEL 5
REMARK VINA RESULT:      -8.6      3.468      7.958
REMARK  7 active torsions:
REMARK  status: ('A' for Active; 'I' for Inactive)
REMARK    1  A    between atoms: C_11  and  N_12 
REMARK       I    between atoms: N_12  and  C_13 
REMARK    2  A    between atoms: C_13  and  C_14 
REMARK    3  A    between atoms: C_14  and  S_15 
REMARK    4  A    between atoms: S_15  and  C_16 
REMARK    5  A    between atoms: N_17  and  C_18 
REMARK    6  A    between atoms: C_18  and  C_19 
REMARK    7  A    between atoms: C_25  and  C_26 
ROOT
HETATM    1  N   UNL     1      40.235 -15.171   3.387  1.00  0.00    -0.326 N 
HETATM    2  C   UNL     1      41.377 -15.757   3.914  1.00  0.00     0.231 C 
HETATM    3  O   UNL     1      42.506 -15.686   3.435  1.00  0.00    -0.272 OA
HETATM    4  H   UNL     1      39.359 -15.454   3.812  1.00  0.00     0.169 HD
ENDROOT
BRANCH   2   5
HETATM    5  C   UNL     1      41.149 -16.466   5.240  1.00  0.00     0.185 C 
BRANCH   5   6
HETATM    6  S   UNL     1      41.884 -15.553   6.634  1.00  0.00    -0.081 SA
BRANCH   6   7
HETATM    7  C   UNL     1      41.255 -13.972   6.299  1.00  0.00     0.192 A 
HETATM    8  N   UNL     1      42.007 -12.871   5.958  1.00  0.00    -0.307 N 
HETATM    9  C   UNL     1      41.090 -11.857   5.773  1.00  0.00     0.135 A 
HETATM   10  N   UNL     1      39.880 -12.340   5.994  1.00  0.00    -0.134 NA
HETATM   11  N   UNL     1      39.985 -13.656   6.337  1.00  0.00    -0.123 NA
BRANCH   8  12
HETATM   12  C   UNL     1      43.437 -12.863   5.711  1.00  0.00     0.171 C 
BRANCH  12  13
HETATM   13  C   UNL     1      44.237 -12.004   6.662  1.00  0.00    -0.040 A 
HETATM   14  C   UNL     1      45.519 -11.519   6.359  1.00  0.00     0.009 A 
HETATM   15  C   UNL     1      46.209 -10.715   7.269  1.00  0.00     0.001 A 
HETATM   16  C   UNL     1      45.623 -10.366   8.482  1.00  0.00     0.000 A 
HETATM   17  C   UNL     1      44.342 -10.815   8.787  1.00  0.00     0.001 A 
HETATM   18  C   UNL     1      43.651 -11.623   7.881  1.00  0.00     0.009 A 
ENDBRANCH  12  13
ENDBRANCH   8  12
BRANCH   9  19
HETATM   19  C   UNL     1      41.206 -10.385   5.393  1.00  0.00     0.057 A 
HETATM   20  C   UNL     1      42.071  -9.954   4.232  1.00  0.00     0.013 A 
HETATM   21  C   UNL     1      40.592  -9.778   4.158  1.00  0.00     0.013 A 
ENDBRANCH   9  19
ENDBRANCH   6   7
ENDBRANCH   5   6
ENDBRANCH   2   5
BRANCH   1  22
HETATM   22  C   UNL     1      40.154 -14.318   2.267  1.00  0.00     0.037 A 
HETATM   23  C   UNL     1      40.338 -12.934   2.335  1.00  0.00     0.032 A 
HETATM   24  C   UNL     1      40.218 -12.141   1.188  1.00  0.00     0.041 A 
HETATM   25  C   UNL     1      39.931 -12.727  -0.040  1.00  0.00     0.096 A 
HETATM   26  O   UNL     1      39.808 -11.880  -1.104  1.00  0.00    -0.335 OA
HETATM   27  C   UNL     1      39.743 -14.106  -0.118  1.00  0.00     0.070 A 
HETATM   28  C   UNL     1      39.828 -12.509  -2.384  1.00  0.00     0.217 C 
HETATM   29  C   UNL     1      41.237 -12.369  -2.955  1.00  0.00     0.050 C 
HETATM   30  C   UNL     1      39.380 -13.972  -2.499  1.00  0.00     0.251 C 
HETATM   31  N   UNL     1      39.430 -14.698  -1.341  1.00  0.00    -0.323 N 
HETATM   32  O   UNL     1      39.064 -14.501  -3.563  1.00  0.00    -0.270 OA
HETATM   33  H   UNL     1      39.208 -15.682  -1.410  1.00  0.00     0.169 HD
HETATM   34  C   UNL     1      39.842 -14.900   1.031  1.00  0.00     0.062 A 
ENDBRANCH   1  22
TORSDOF 7
ENDMDL
MODEL 6
REMARK VINA RESULT:      -8.6      3.230      5.575
REMARK  7 active torsions:
REMARK  status: ('A' for Active; 'I' for Inactive)
REMARK    1  A    between atoms: C_11  and  N_12 
REMARK       I    between atoms: N_12  and  C_13 
REMARK    2  A    between atoms: C_13  and  C_14 
REMARK    3  A    between atoms: C_14  and  S_15 
REMARK    4  A    between atoms: S_15  and  C_16 
REMARK    5  A    between atoms: N_17  and  C_18 
REMARK    6  A    between atoms: C_18  and  C_19 
REMARK    7  A    between atoms: C_25  and  C_26 
ROOT
HETATM    1  N   UNL     1      41.086 -11.399   3.859  1.00  0.00    -0.326 N 
HETATM    2  C   UNL     1      40.139 -12.411   3.824  1.00  0.00     0.231 C 
HETATM    3  O   UNL     1      40.198 -13.471   4.443  1.00  0.00    -0.272 OA
HETATM    4  H   UNL     1      40.968 -10.662   3.173  1.00  0.00     0.169 HD
ENDROOT
BRANCH   2   5
HETATM    5  C   UNL     1      38.912 -12.078   2.990  1.00  0.00     0.185 C 
BRANCH   5   6
HETATM    6  S   UNL     1      39.255 -10.768   1.772  1.00  0.00    -0.081 SA
BRANCH   6   7
HETATM    7  C   UNL     1      38.806 -11.605   0.322  1.00  0.00     0.192 A 
HETATM    8  N   UNL     1      39.635 -12.415  -0.420  1.00  0.00    -0.307 N 
HETATM    9  C   UNL     1      38.850 -12.871  -1.460  1.00  0.00     0.135 A 
HETATM   10  N   UNL     1      37.641 -12.356  -1.330  1.00  0.00    -0.134 NA
HETATM   11  N   UNL     1      37.618 -11.555  -0.226  1.00  0.00    -0.123 NA
BRANCH   8  12
HETATM   12  C   UNL     1      40.989 -12.798  -0.064  1.00  0.00     0.171 C 
BRANCH  12  13
HETATM   13  C   UNL     1      41.088 -14.016   0.824  1.00  0.00    -0.040 A 
HETATM   14  C   UNL     1      40.058 -14.962   0.941  1.00  0.00     0.009 A 
HETATM   15  C   UNL     1      40.209 -16.080   1.766  1.00  0.00     0.001 A 
HETATM   16  C   UNL     1      41.394 -16.280   2.467  1.00  0.00     0.000 A 
HETATM   17  C   UNL     1      42.436 -15.366   2.342  1.00  0.00     0.001 A 
HETATM   18  C   UNL     1      42.287 -14.245   1.521  1.00  0.00     0.009 A 
ENDBRANCH  12  13
ENDBRANCH   8  12
BRANCH   9  19
HETATM   19  C   UNL     1      39.105 -13.788  -2.651  1.00  0.00     0.057 A 
HETATM   20  C   UNL     1      39.026 -15.289  -2.498  1.00  0.00     0.013 A 
HETATM   21  C   UNL     1      38.032 -14.580  -3.355  1.00  0.00     0.013 A 
ENDBRANCH   9  19
ENDBRANCH   6   7
ENDBRANCH   5   6
ENDBRANCH   2   5
BRANCH   1  22
HETATM   22  C   UNL     1      42.243 -11.341   4.664  1.00  0.00     0.037 A 
HETATM   23  C   UNL     1      43.527 -11.632   4.193  1.00  0.00     0.032 A 
HETATM   24  C   UNL     1      44.630 -11.580   5.052  1.00  0.00     0.041 A 
HETATM   25  C   UNL     1      44.463 -11.219   6.385  1.00  0.00     0.096 A 
HETATM   26  O   UNL     1      45.587 -11.216   7.160  1.00  0.00    -0.335 OA
HETATM   27  C   UNL     1      43.187 -10.930   6.864  1.00  0.00     0.070 A 
HETATM   28  C   UNL     1      45.455 -10.553   8.415  1.00  0.00     0.217 C 
HETATM   29  C   UNL     1      46.042  -9.150   8.271  1.00  0.00     0.050 C 
HETATM   30  C   UNL     1      44.066 -10.454   9.060  1.00  0.00     0.251 C 
HETATM   31  N   UNL     1      43.007 -10.592   8.205  1.00  0.00    -0.323 N 
HETATM   32  O   UNL     1      43.889 -10.194  10.248  1.00  0.00    -0.270 OA
HETATM   33  H   UNL     1      42.085 -10.459   8.598  1.00  0.00     0.169 HD
HETATM   34  C   UNL     1      42.078 -11.001   6.013  1.00  0.00     0.062 A 
ENDBRANCH   1  22
TORSDOF 7
ENDMDL
MODEL 7
REMARK VINA RESULT:      -8.5      3.632     10.033
REMARK  7 active torsions:
REMARK  status: ('A' for Active; 'I' for Inactive)
REMARK    1  A    between atoms: C_11  and  N_12 
REMARK       I    between atoms: N_12  and  C_13 
REMARK    2  A    between atoms: C_13  and  C_14 
REMARK    3  A    between atoms: C_14  and  S_15 
REMARK    4  A    between atoms: S_15  and  C_16 
REMARK    5  A    between atoms: N_17  and  C_18 
REMARK    6  A    between atoms: C_18  and  C_19 
REMARK    7  A    between atoms: C_25  and  C_26 
ROOT
HETATM    1  N   UNL     1      43.902 -11.847   7.626  1.00  0.00    -0.326 N 
HETATM    2  C   UNL     1      45.060 -11.085   7.593  1.00  0.00     0.231 C 
HETATM    3  O   UNL     1      46.008 -11.253   6.830  1.00  0.00    -0.272 OA
HETATM    4  H   UNL     1      43.288 -11.680   8.415  1.00  0.00     0.169 HD
ENDROOT
BRANCH   2   5
HETATM    5  C   UNL     1      45.052  -9.911   8.559  1.00  0.00     0.185 C 
BRANCH   5   6
HETATM    6  S   UNL     1      44.403 -10.382  10.195  1.00  0.00    -0.081 SA
BRANCH   6   7
HETATM    7  C   UNL     1      42.808  -9.712  10.069  1.00  0.00     0.192 A 
HETATM    8  N   UNL     1      41.872  -9.688  11.077  1.00  0.00    -0.307 N 
HETATM    9  C   UNL     1      40.776  -9.051  10.531  1.00  0.00     0.135 A 
HETATM   10  N   UNL     1      41.059  -8.727   9.282  1.00  0.00    -0.134 NA
HETATM   11  N   UNL     1      42.322  -9.152   8.990  1.00  0.00    -0.123 NA
BRANCH   8  12
HETATM   12  C   UNL     1      42.089 -10.116  12.447  1.00  0.00     0.171 C 
BRANCH  12  13
HETATM   13  C   UNL     1      42.273  -8.991  13.438  1.00  0.00    -0.040 A 
HETATM   14  C   UNL     1      43.220  -7.969  13.268  1.00  0.00     0.009 A 
HETATM   15  C   UNL     1      43.337  -6.943  14.208  1.00  0.00     0.001 A 
HETATM   16  C   UNL     1      42.500  -6.911  15.319  1.00  0.00     0.000 A 
HETATM   17  C   UNL     1      41.537  -7.901  15.491  1.00  0.00     0.001 A 
HETATM   18  C   UNL     1      41.419  -8.930  14.554  1.00  0.00     0.009 A 
ENDBRANCH  12  13
ENDBRANCH   8  12
BRANCH   9  19
HETATM   19  C   UNL     1      39.395  -8.685  11.062  1.00  0.00     0.057 A 
HETATM   20  C   UNL     1      39.214  -7.504  11.987  1.00  0.00     0.013 A 
HETATM   21  C   UNL     1      38.612  -7.474  10.621  1.00  0.00     0.013 A 
ENDBRANCH   9  19
ENDBRANCH   6   7
ENDBRANCH   5   6
ENDBRANCH   2   5
BRANCH   1  22
HETATM   22  C   UNL     1      43.544 -12.893   6.749  1.00  0.00     0.037 A 
HETATM   23  C   UNL     1      43.569 -14.244   7.106  1.00  0.00     0.032 A 
HETATM   24  C   UNL     1      43.225 -15.233   6.179  1.00  0.00     0.041 A 
HETATM   25  C   UNL     1      42.835 -14.881   4.892  1.00  0.00     0.096 A 
HETATM   26  O   UNL     1      42.539 -15.908   4.043  1.00  0.00    -0.335 OA
HETATM   27  C   UNL     1      42.810 -13.536   4.525  1.00  0.00     0.070 A 
HETATM   28  C   UNL     1      41.852 -15.531   2.852  1.00  0.00     0.217 C 
HETATM   29  C   UNL     1      40.364 -15.810   3.058  1.00  0.00     0.050 C 
HETATM   30  C   UNL     1      42.027 -14.103   2.315  1.00  0.00     0.251 C 
HETATM   31  N   UNL     1      42.444 -13.175   3.229  1.00  0.00    -0.323 N 
HETATM   32  O   UNL     1      41.745 -13.775   1.163  1.00  0.00    -0.270 OA
HETATM   33  H   UNL     1      42.496 -12.216   2.912  1.00  0.00     0.169 HD
HETATM   34  C   UNL     1      43.172 -12.544   5.443  1.00  0.00     0.062 A 
ENDBRANCH   1  22
TORSDOF 7
ENDMDL
MODEL 8
REMARK VINA RESULT:      -8.5      2.875      5.388
REMARK  7 active torsions:
REMARK  status: ('A' for Active; 'I' for Inactive)
REMARK    1  A    between atoms: C_11  and  N_12 
REMARK       I    between atoms: N_12  and  C_13 
REMARK    2  A    between atoms: C_13  and  C_14 
REMARK    3  A    between atoms: C_14  and  S_15 
REMARK    4  A    between atoms: S_15  and  C_16 
REMARK    5  A    between atoms: N_17  and  C_18 
REMARK    6  A    between atoms: C_18  and  C_19 
REMARK    7  A    between atoms: C_25  and  C_26 
ROOT
HETATM    1  N   UNL     1      43.860  -9.769   8.066  1.00  0.00    -0.326 N 
HETATM    2  C   UNL     1      44.977 -10.590   8.021  1.00  0.00     0.231 C 
HETATM    3  O   UNL     1      45.683 -10.894   8.980  1.00  0.00    -0.272 OA
HETATM    4  H   UNL     1      43.483  -9.490   7.167  1.00  0.00     0.169 HD
ENDROOT
BRANCH   2   5
HETATM    5  C   UNL     1      45.244 -11.192   6.650  1.00  0.00     0.185 C 
BRANCH   5   6
HETATM    6  S   UNL     1      44.258 -12.697   6.365  1.00  0.00    -0.081 SA
BRANCH   6   7
HETATM    7  C   UNL     1      43.606 -12.315   4.804  1.00  0.00     0.192 A 
HETATM    8  N   UNL     1      42.714 -13.093   4.102  1.00  0.00    -0.307 N 
HETATM    9  C   UNL     1      42.469 -12.391   2.939  1.00  0.00     0.135 A 
HETATM   10  N   UNL     1      43.176 -11.275   2.965  1.00  0.00    -0.134 NA
HETATM   11  N   UNL     1      43.897 -11.236   4.122  1.00  0.00    -0.123 NA
BRANCH   8  12
HETATM   12  C   UNL     1      42.080 -14.305   4.586  1.00  0.00     0.171 C 
BRANCH  12  13
HETATM   13  C   UNL     1      42.721 -15.587   4.106  1.00  0.00    -0.040 A 
HETATM   14  C   UNL     1      43.352 -16.496   4.970  1.00  0.00     0.009 A 
HETATM   15  C   UNL     1      43.915 -17.675   4.475  1.00  0.00     0.001 A 
HETATM   16  C   UNL     1      43.837 -17.974   3.118  1.00  0.00     0.000 A 
HETATM   17  C   UNL     1      43.190 -17.098   2.252  1.00  0.00     0.001 A 
HETATM   18  C   UNL     1      42.630 -15.916   2.742  1.00  0.00     0.009 A 
ENDBRANCH  12  13
ENDBRANCH   8  12
BRANCH   9  19
HETATM   19  C   UNL     1      41.599 -12.650   1.714  1.00  0.00     0.057 A 
HETATM   20  C   UNL     1      40.103 -12.804   1.849  1.00  0.00     0.013 A 
HETATM   21  C   UNL     1      40.662 -11.635   1.111  1.00  0.00     0.013 A 
ENDBRANCH   9  19
ENDBRANCH   6   7
ENDBRANCH   5   6
ENDBRANCH   2   5
BRANCH   1  22
HETATM   22  C   UNL     1      43.266  -9.199   9.211  1.00  0.00     0.037 A 
HETATM   23  C   UNL     1      43.499  -7.886   9.630  1.00  0.00     0.032 A 
HETATM   24  C   UNL     1      42.896  -7.390  10.791  1.00  0.00     0.041 A 
HETATM   25  C   UNL     1      42.041  -8.196  11.535  1.00  0.00     0.096 A 
HETATM   26  O   UNL     1      41.514  -7.644  12.666  1.00  0.00    -0.335 OA
HETATM   27  C   UNL     1      41.805  -9.508  11.127  1.00  0.00     0.070 A 
HETATM   28  C   UNL     1      40.417  -8.355  13.233  1.00  0.00     0.217 C 
HETATM   29  C   UNL     1      39.128  -7.669  12.786  1.00  0.00     0.050 C 
HETATM   30  C   UNL     1      40.300  -9.864  12.978  1.00  0.00     0.251 C 
HETATM   31  N   UNL     1      40.969 -10.331  11.880  1.00  0.00    -0.323 N 
HETATM   32  O   UNL     1      39.597 -10.612  13.655  1.00  0.00    -0.270 OA
HETATM   33  H   UNL     1      40.846 -11.309  11.654  1.00  0.00     0.169 HD
HETATM   34  C   UNL     1      42.422 -10.014   9.977  1.00  0.00     0.062 A 
ENDBRANCH   1  22
TORSDOF 7
ENDMDL
MODEL 9
REMARK VINA RESULT:      -8.4      3.261      8.443
REMARK  7 active torsions:
REMARK  status: ('A' for Active; 'I' for Inactive)
REMARK    1  A    between atoms: C_11  and  N_12 
REMARK       I    between atoms: N_12  and  C_13 
REMARK    2  A    between atoms: C_13  and  C_14 
REMARK    3  A    between atoms: C_14  and  S_15 
REMARK    4  A    between atoms: S_15  and  C_16 
REMARK    5  A    between atoms: N_17  and  C_18 
REMARK    6  A    between atoms: C_18  and  C_19 
REMARK    7  A    between atoms: C_25  and  C_26 
ROOT
HETATM    1  N   UNL     1      39.438 -12.194   5.928  1.00  0.00    -0.326 N 
HETATM    2  C   UNL     1      40.006 -10.981   6.285  1.00  0.00     0.231 C 
HETATM    3  O   UNL     1      41.021 -10.492   5.795  1.00  0.00    -0.272 OA
HETATM    4  H   UNL     1      38.696 -12.528   6.533  1.00  0.00     0.169 HD
ENDROOT
BRANCH   2   5
HETATM    5  C   UNL     1      39.206 -10.209   7.323  1.00  0.00     0.185 C 
BRANCH   5   6
HETATM    6  S   UNL     1      40.029  -8.655   7.797  1.00  0.00    -0.081 SA
BRANCH   6   7
HETATM    7  C   UNL     1      40.526  -9.077   9.404  1.00  0.00     0.192 A 
HETATM    8  N   UNL     1      41.768  -8.835   9.943  1.00  0.00    -0.307 N 
HETATM    9  C   UNL     1      41.698  -9.322  11.233  1.00  0.00     0.135 A 
HETATM   10  N   UNL     1      40.489  -9.816  11.429  1.00  0.00    -0.134 NA
HETATM   11  N   UNL     1      39.763  -9.677  10.283  1.00  0.00    -0.123 NA
BRANCH   8  12
HETATM   12  C   UNL     1      42.840  -8.091   9.307  1.00  0.00     0.171 C 
BRANCH  12  13
HETATM   13  C   UNL     1      43.942  -8.945   8.725  1.00  0.00    -0.040 A 
HETATM   14  C   UNL     1      45.273  -8.510   8.623  1.00  0.00     0.009 A 
HETATM   15  C   UNL     1      46.257  -9.347   8.091  1.00  0.00     0.001 A 
HETATM   16  C   UNL     1      45.932 -10.634   7.672  1.00  0.00     0.000 A 
HETATM   17  C   UNL     1      44.623 -11.091   7.791  1.00  0.00     0.001 A 
HETATM   18  C   UNL     1      43.636 -10.256   8.319  1.00  0.00     0.009 A 
ENDBRANCH  12  13
ENDBRANCH   8  12
BRANCH   9  19
HETATM   19  C   UNL     1      42.689  -9.395  12.389  1.00  0.00     0.057 A 
HETATM   20  C   UNL     1      43.287  -8.136  12.972  1.00  0.00     0.013 A 
HETATM   21  C   UNL     1      42.374  -8.975  13.802  1.00  0.00     0.013 A 
ENDBRANCH   9  19
ENDBRANCH   6   7
ENDBRANCH   5   6
ENDBRANCH   2   5
BRANCH   1  22
HETATM   22  C   UNL     1      39.849 -13.055   4.889  1.00  0.00     0.037 A 
HETATM   23  C   UNL     1      39.424 -12.926   3.564  1.00  0.00     0.032 A 
HETATM   24  C   UNL     1      39.851 -13.831   2.586  1.00  0.00     0.041 A 
HETATM   25  C   UNL     1      40.721 -14.863   2.920  1.00  0.00     0.096 A 
HETATM   26  O   UNL     1      41.070 -15.715   1.912  1.00  0.00    -0.335 OA
HETATM   27  C   UNL     1      41.149 -15.003   4.239  1.00  0.00     0.070 A 
HETATM   28  C   UNL     1      42.185 -16.559   2.190  1.00  0.00     0.217 C 
HETATM   29  C   UNL     1      43.420 -15.936   1.543  1.00  0.00     0.050 C 
HETATM   30  C   UNL     1      42.504 -16.910   3.650  1.00  0.00     0.251 C 
HETATM   31  N   UNL     1      42.001 -16.049   4.588  1.00  0.00    -0.323 N 
HETATM   32  O   UNL     1      43.223 -17.852   3.978  1.00  0.00    -0.270 OA
HETATM   33  H   UNL     1      42.261 -16.222   5.549  1.00  0.00     0.169 HD
HETATM   34  C   UNL     1      40.708 -14.111   5.225  1.00  0.00     0.062 A 
ENDBRANCH   1  22
TORSDOF 7
ENDMDL
MODEL 10
REMARK VINA RESULT:      -8.4      3.045      8.948
REMARK  7 active torsions:
REMARK  status: ('A' for Active; 'I' for Inactive)
REMARK    1  A    between atoms: C_11  and  N_12 
REMARK       I    between atoms: N_12  and  C_13 
REMARK    2  A    between atoms: C_13  and  C_14 
REMARK    3  A    between atoms: C_14  and  S_15 
REMARK    4  A    between atoms: S_15  and  C_16 
REMARK    5  A    between atoms: N_17  and  C_18 
REMARK    6  A    between atoms: C_18  and  C_19 
REMARK    7  A    between atoms: C_25  and  C_26 
ROOT
HETATM    1  N   UNL     1      41.497 -13.012   5.038  1.00  0.00    -0.326 N 
HETATM    2  C   UNL     1      40.320 -12.743   5.720  1.00  0.00     0.231 C 
HETATM    3  O   UNL     1      39.758 -13.502   6.506  1.00  0.00    -0.272 OA
HETATM    4  H   UNL     1      41.745 -12.350   4.310  1.00  0.00     0.169 HD
ENDROOT
BRANCH   2   5
HETATM    5  C   UNL     1      39.779 -11.342   5.486  1.00  0.00     0.185 C 
BRANCH   5   6
HETATM    6  S   UNL     1      39.739 -10.363   7.021  1.00  0.00    -0.081 SA
BRANCH   6   7
HETATM    7  C   UNL     1      41.438 -10.075   7.217  1.00  0.00     0.192 A 
HETATM    8  N   UNL     1      41.999  -9.193   8.112  1.00  0.00    -0.307 N 
HETATM    9  C   UNL     1      43.361  -9.313   7.924  1.00  0.00     0.135 A 
HETATM   10  N   UNL     1      43.577 -10.209   6.978  1.00  0.00    -0.134 NA
HETATM   11  N   UNL     1      42.376 -10.673   6.526  1.00  0.00    -0.123 NA
BRANCH   8  12
HETATM   12  C   UNL     1      41.281  -8.434   9.119  1.00  0.00     0.171 C 
BRANCH  12  13
HETATM   13  C   UNL     1      41.808  -8.594  10.525  1.00  0.00    -0.040 A 
HETATM   14  C   UNL     1      41.865  -9.832  11.184  1.00  0.00     0.009 A 
HETATM   15  C   UNL     1      42.378  -9.926  12.480  1.00  0.00     0.001 A 
HETATM   16  C   UNL     1      42.859  -8.793  13.128  1.00  0.00     0.000 A 
HETATM   17  C   UNL     1      42.836  -7.561  12.480  1.00  0.00     0.001 A 
HETATM   18  C   UNL     1      42.321  -7.463  11.185  1.00  0.00     0.009 A 
ENDBRANCH  12  13
ENDBRANCH   8  12
BRANCH   9  19
HETATM   19  C   UNL     1      44.577  -8.645   8.557  1.00  0.00     0.057 A 
HETATM   20  C   UNL     1      45.329  -9.320   9.680  1.00  0.00     0.013 A 
HETATM   21  C   UNL     1      45.997  -9.112   8.362  1.00  0.00     0.013 A 
ENDBRANCH   9  19
ENDBRANCH   6   7
ENDBRANCH   5   6
ENDBRANCH   2   5
BRANCH   1  22
HETATM   22  C   UNL     1      42.320 -14.150   5.171  1.00  0.00     0.037 A 
HETATM   23  C   UNL     1      43.219 -14.335   6.225  1.00  0.00     0.032 A 
HETATM   24  C   UNL     1      44.025 -15.477   6.283  1.00  0.00     0.041 A 
HETATM   25  C   UNL     1      43.926 -16.454   5.298  1.00  0.00     0.096 A 
HETATM   26  O   UNL     1      44.764 -17.524   5.417  1.00  0.00    -0.335 OA
HETATM   27  C   UNL     1      43.034 -16.277   4.241  1.00  0.00     0.070 A 
HETATM   28  C   UNL     1      44.439 -18.643   4.596  1.00  0.00     0.217 C 
HETATM   29  C   UNL     1      43.683 -19.655   5.455  1.00  0.00     0.050 C 
HETATM   30  C   UNL     1      43.660 -18.406   3.295  1.00  0.00     0.251 C 
HETATM   31  N   UNL     1      42.947 -17.240   3.236  1.00  0.00    -0.323 N 
HETATM   32  O   UNL     1      43.603 -19.228   2.382  1.00  0.00    -0.270 OA
HETATM   33  H   UNL     1      42.371 -17.099   2.418  1.00  0.00     0.169 HD
HETATM   34  C   UNL     1      42.241 -15.127   4.168  1.00  0.00     0.062 A 
ENDBRANCH   1  22
TORSDOF 7
ENDMDL
