MODEL 1
REMARK VINA RESULT:      -8.0      0.000      0.000
REMARK  5 active torsions:
REMARK  status: ('A' for Active; 'I' for Inactive)
REMARK    1  A    between atoms: C_2  and  C_3 
REMARK    2  A    between atoms: C_8  and  N_9 
REMARK       I    between atoms: N_9  and  C_10 
REMARK       I    between atoms: C_10  and  N_11 
REMARK    3  A    between atoms: N_11  and  C_12 
REMARK    4  A    between atoms: C_12  and  C_13 
REMARK    5  A    between atoms: C_13  and  C_14 
ROOT
HETATM    1  N   UNL     1      43.615 -11.007   8.342  1.00  0.00    -0.305 N 
HETATM    2  C   UNL     1      43.831 -11.764   7.215  1.00  0.00     0.320 C 
HETATM    3  N   UNL     1      43.594 -13.099   7.458  1.00  0.00    -0.342 N 
HETATM    4  O   UNL     1      44.159 -11.341   6.115  1.00  0.00    -0.247 OA
HETATM    5  H   UNL     1      42.982 -11.406   9.019  1.00  0.00     0.171 HD
HETATM    6  H   UNL     1      43.664 -13.416   8.414  1.00  0.00     0.164 HD
ENDROOT
BRANCH   3   7
HETATM    7  C   UNL     1      43.792 -14.109   6.428  1.00  0.00     0.138 C 
BRANCH   7   8
HETATM    8  C   UNL     1      42.482 -14.700   5.838  1.00  0.00     0.003 C 
HETATM    9  C   UNL     1      41.915 -15.767   6.814  1.00  0.00     0.016 C 
HETATM   10  C   UNL     1      40.445 -15.921   6.428  1.00  0.00     0.001 C 
HETATM   11  C   UNL     1      40.043 -14.582   5.815  1.00  0.00     0.001 C 
HETATM   12  C   UNL     1      41.293 -13.707   5.896  1.00  0.00     0.016 C 
BRANCH   8  13
HETATM   13  C   UNL     1      42.762 -15.249   4.422  1.00  0.00    -0.048 A 
HETATM   14  C   UNL     1      42.990 -16.619   4.193  1.00  0.00     0.008 A 
HETATM   15  C   UNL     1      43.255 -17.109   2.911  1.00  0.00     0.001 A 
HETATM   16  C   UNL     1      43.322 -16.241   1.828  1.00  0.00     0.000 A 
HETATM   17  C   UNL     1      43.131 -14.879   2.030  1.00  0.00     0.001 A 
HETATM   18  C   UNL     1      42.857 -14.390   3.310  1.00  0.00     0.008 A 
ENDBRANCH   8  13
ENDBRANCH   7   8
ENDBRANCH   3   7
BRANCH   1  19
HETATM   19  C   UNL     1      43.897  -9.653   8.465  1.00  0.00     0.095 A 
HETATM   20  C   UNL     1      42.958  -8.707   8.826  1.00  0.00     0.107 A 
HETATM   21  O   UNL     1      43.540  -7.481   8.859  1.00  0.00    -0.215 OA
HETATM   22  N   UNL     1      44.876  -7.593   8.549  1.00  0.00    -0.131 NA
HETATM   23  C   UNL     1      45.097  -8.895   8.320  1.00  0.00     0.087 A 
HETATM   24  C   UNL     1      46.484  -9.327   8.021  1.00  0.00     0.075 C 
BRANCH  20  25
HETATM   25  C   UNL     1      41.511  -8.731   9.145  1.00  0.00     0.065 C 
HETATM   26  C   UNL     1      41.253  -9.269  10.543  1.00  0.00     0.012 C 
ENDBRANCH  20  25
ENDBRANCH   1  19
TORSDOF 5
ENDMDL
MODEL 2
REMARK VINA RESULT:      -8.0      0.801      1.412
REMARK  5 active torsions:
REMARK  status: ('A' for Active; 'I' for Inactive)
REMARK    1  A    between atoms: C_2  and  C_3 
REMARK    2  A    between atoms: C_8  and  N_9 
REMARK       I    between atoms: N_9  and  C_10 
REMARK       I    between atoms: C_10  and  N_11 
REMARK    3  A    between atoms: N_11  and  C_12 
REMARK    4  A    between atoms: C_12  and  C_13 
REMARK    5  A    between atoms: C_13  and  C_14 
ROOT
HETATM    1  N   UNL     1      43.630 -11.221   8.097  1.00  0.00    -0.305 N 
HETATM    2  C   UNL     1      43.980 -12.056   7.063  1.00  0.00     0.320 C 
HETATM    3  N   UNL     1      43.611 -13.358   7.327  1.00  0.00    -0.342 N 
HETATM    4  O   UNL     1      44.520 -11.722   6.018  1.00  0.00    -0.247 OA
HETATM    5  H   UNL     1      42.864 -11.539   8.673  1.00  0.00     0.171 HD
HETATM    6  H   UNL     1      43.494 -13.620   8.294  1.00  0.00     0.164 HD
ENDROOT
BRANCH   3   7
HETATM    7  C   UNL     1      43.909 -14.438   6.397  1.00  0.00     0.138 C 
BRANCH   7   8
HETATM    8  C   UNL     1      42.663 -15.184   5.846  1.00  0.00     0.003 C 
HETATM    9  C   UNL     1      41.812 -15.709   7.036  1.00  0.00     0.016 C 
HETATM   10  C   UNL     1      40.425 -15.968   6.452  1.00  0.00     0.001 C 
HETATM   11  C   UNL     1      40.296 -15.011   5.270  1.00  0.00     0.001 C 
HETATM   12  C   UNL     1      41.607 -14.225   5.239  1.00  0.00     0.016 C 
BRANCH   8  13
HETATM   13  C   UNL     1      43.119 -16.296   4.878  1.00  0.00    -0.048 A 
HETATM   14  C   UNL     1      42.928 -16.188   3.488  1.00  0.00     0.008 A 
HETATM   15  C   UNL     1      43.333 -17.204   2.616  1.00  0.00     0.001 A 
HETATM   16  C   UNL     1      43.916 -18.364   3.112  1.00  0.00     0.000 A 
HETATM   17  C   UNL     1      44.089 -18.510   4.483  1.00  0.00     0.001 A 
HETATM   18  C   UNL     1      43.693 -17.491   5.354  1.00  0.00     0.008 A 
ENDBRANCH   8  13
ENDBRANCH   7   8
ENDBRANCH   3   7
BRANCH   1  19
HETATM   19  C   UNL     1      43.982  -9.882   8.201  1.00  0.00     0.095 A 
HETATM   20  C   UNL     1      43.067  -8.863   8.372  1.00  0.00     0.107 A 
HETATM   21  O   UNL     1      43.720  -7.674   8.439  1.00  0.00    -0.215 OA
HETATM   22  N   UNL     1      45.076  -7.884   8.342  1.00  0.00    -0.131 NA
HETATM   23  C   UNL     1      45.240  -9.208   8.208  1.00  0.00     0.087 A 
HETATM   24  C   UNL     1      46.622  -9.739   8.144  1.00  0.00     0.075 C 
BRANCH  20  25
HETATM   25  C   UNL     1      41.590  -8.781   8.467  1.00  0.00     0.065 C 
HETATM   26  C   UNL     1      41.107  -8.985   9.894  1.00  0.00     0.012 C 
ENDBRANCH  20  25
ENDBRANCH   1  19
TORSDOF 5
ENDMDL
MODEL 3
REMARK VINA RESULT:      -8.0      5.756      7.902
REMARK  5 active torsions:
REMARK  status: ('A' for Active; 'I' for Inactive)
REMARK    1  A    between atoms: C_2  and  C_3 
REMARK    2  A    between atoms: C_8  and  N_9 
REMARK       I    between atoms: N_9  and  C_10 
REMARK       I    between atoms: C_10  and  N_11 
REMARK    3  A    between atoms: N_11  and  C_12 
REMARK    4  A    between atoms: C_12  and  C_13 
REMARK    5  A    between atoms: C_13  and  C_14 
ROOT
HETATM    1  N   UNL     1      40.574 -14.208   0.035  1.00  0.00    -0.305 N 
HETATM    2  C   UNL     1      41.604 -14.194   0.946  1.00  0.00     0.320 C 
HETATM    3  N   UNL     1      42.135 -15.454   1.117  1.00  0.00    -0.342 N 
HETATM    4  O   UNL     1      42.041 -13.210   1.523  1.00  0.00    -0.247 OA
HETATM    5  H   UNL     1      40.595 -14.963  -0.634  1.00  0.00     0.171 HD
HETATM    6  H   UNL     1      41.543 -16.241   0.895  1.00  0.00     0.164 HD
ENDROOT
BRANCH   3   7
HETATM    7  C   UNL     1      43.214 -15.705   2.061  1.00  0.00     0.138 C 
BRANCH   7   8
HETATM    8  C   UNL     1      42.780 -16.422   3.369  1.00  0.00     0.003 C 
HETATM    9  C   UNL     1      43.376 -15.670   4.590  1.00  0.00     0.016 C 
HETATM   10  C   UNL     1      42.530 -16.111   5.783  1.00  0.00     0.001 C 
HETATM   11  C   UNL     1      41.168 -16.479   5.202  1.00  0.00     0.001 C 
HETATM   12  C   UNL     1      41.280 -16.212   3.702  1.00  0.00     0.016 C 
BRANCH   8  13
HETATM   13  C   UNL     1      43.196 -17.908   3.299  1.00  0.00    -0.048 A 
HETATM   14  C   UNL     1      42.831 -18.726   2.213  1.00  0.00     0.008 A 
HETATM   15  C   UNL     1      43.200 -20.074   2.160  1.00  0.00     0.001 A 
HETATM   16  C   UNL     1      43.921 -20.645   3.201  1.00  0.00     0.000 A 
HETATM   17  C   UNL     1      44.269 -19.868   4.300  1.00  0.00     0.001 A 
HETATM   18  C   UNL     1      43.908 -18.518   4.349  1.00  0.00     0.008 A 
ENDBRANCH   8  13
ENDBRANCH   7   8
ENDBRANCH   3   7
BRANCH   1  19
HETATM   19  C   UNL     1      39.745 -13.132  -0.254  1.00  0.00     0.095 A 
HETATM   20  C   UNL     1      39.373 -12.779  -1.536  1.00  0.00     0.107 A 
HETATM   21  O   UNL     1      38.562 -11.691  -1.489  1.00  0.00    -0.215 OA
HETATM   22  N   UNL     1      38.359 -11.320  -0.179  1.00  0.00    -0.131 NA
HETATM   23  C   UNL     1      39.060 -12.187   0.566  1.00  0.00     0.087 A 
HETATM   24  C   UNL     1      38.976 -12.068   2.041  1.00  0.00     0.075 C 
BRANCH  20  25
HETATM   25  C   UNL     1      39.673 -13.287  -2.896  1.00  0.00     0.065 C 
HETATM   26  C   UNL     1      38.693 -14.369  -3.320  1.00  0.00     0.012 C 
ENDBRANCH  20  25
ENDBRANCH   1  19
TORSDOF 5
ENDMDL
MODEL 4
REMARK VINA RESULT:      -7.9      0.950      2.086
REMARK  5 active torsions:
REMARK  status: ('A' for Active; 'I' for Inactive)
REMARK    1  A    between atoms: C_2  and  C_3 
REMARK    2  A    between atoms: C_8  and  N_9 
REMARK       I    between atoms: N_9  and  C_10 
REMARK       I    between atoms: C_10  and  N_11 
REMARK    3  A    between atoms: N_11  and  C_12 
REMARK    4  A    between atoms: C_12  and  C_13 
REMARK    5  A    between atoms: C_13  and  C_14 
ROOT
HETATM    1  N   UNL     1      43.202 -10.701   8.095  1.00  0.00    -0.305 N 
HETATM    2  C   UNL     1      43.508 -11.501   7.019  1.00  0.00     0.320 C 
HETATM    3  N   UNL     1      43.442 -12.835   7.356  1.00  0.00    -0.342 N 
HETATM    4  O   UNL     1      43.775 -11.117   5.890  1.00  0.00    -0.247 OA
HETATM    5  H   UNL     1      42.628 -11.129   8.805  1.00  0.00     0.171 HD
HETATM    6  H   UNL     1      43.555 -13.074   8.330  1.00  0.00     0.164 HD
ENDROOT
BRANCH   3   7
HETATM    7  C   UNL     1      43.762 -13.881   6.394  1.00  0.00     0.138 C 
BRANCH   7   8
HETATM    8  C   UNL     1      42.538 -14.693   5.886  1.00  0.00     0.003 C 
HETATM    9  C   UNL     1      42.222 -15.830   6.897  1.00  0.00     0.016 C 
HETATM   10  C   UNL     1      40.779 -16.236   6.603  1.00  0.00     0.001 C 
HETATM   11  C   UNL     1      40.118 -14.992   6.015  1.00  0.00     0.001 C 
HETATM   12  C   UNL     1      41.203 -13.916   6.018  1.00  0.00     0.016 C 
BRANCH   8  13
HETATM   13  C   UNL     1      42.820 -15.201   4.456  1.00  0.00    -0.048 A 
HETATM   14  C   UNL     1      43.124 -16.551   4.199  1.00  0.00     0.008 A 
HETATM   15  C   UNL     1      43.390 -17.005   2.903  1.00  0.00     0.001 A 
HETATM   16  C   UNL     1      43.384 -16.116   1.835  1.00  0.00     0.000 A 
HETATM   17  C   UNL     1      43.117 -14.772   2.064  1.00  0.00     0.001 A 
HETATM   18  C   UNL     1      42.842 -14.320   3.357  1.00  0.00     0.008 A 
ENDBRANCH   8  13
ENDBRANCH   7   8
ENDBRANCH   3   7
BRANCH   1  19
HETATM   19  C   UNL     1      43.312  -9.317   8.122  1.00  0.00     0.095 A 
HETATM   20  C   UNL     1      44.463  -8.650   8.490  1.00  0.00     0.107 A 
HETATM   21  O   UNL     1      44.255  -7.310   8.413  1.00  0.00    -0.215 OA
HETATM   22  N   UNL     1      42.976  -7.065   7.968  1.00  0.00    -0.131 NA
HETATM   23  C   UNL     1      42.409  -8.265   7.783  1.00  0.00     0.087 A 
HETATM   24  C   UNL     1      41.031  -8.312   7.238  1.00  0.00     0.075 C 
BRANCH  20  25
HETATM   25  C   UNL     1      45.810  -9.056   8.957  1.00  0.00     0.065 C 
HETATM   26  C   UNL     1      46.673  -9.561   7.812  1.00  0.00     0.012 C 
ENDBRANCH  20  25
ENDBRANCH   1  19
TORSDOF 5
ENDMDL
MODEL 5
REMARK VINA RESULT:      -7.9      1.310      2.341
REMARK  5 active torsions:
REMARK  status: ('A' for Active; 'I' for Inactive)
REMARK    1  A    between atoms: C_2  and  C_3 
REMARK    2  A    between atoms: C_8  and  N_9 
REMARK       I    between atoms: N_9  and  C_10 
REMARK       I    between atoms: C_10  and  N_11 
REMARK    3  A    between atoms: N_11  and  C_12 
REMARK    4  A    between atoms: C_12  and  C_13 
REMARK    5  A    between atoms: C_13  and  C_14 
ROOT
HETATM    1  N   UNL     1      43.146 -11.091   7.901  1.00  0.00    -0.305 N 
HETATM    2  C   UNL     1      43.503 -11.908   6.855  1.00  0.00     0.320 C 
HETATM    3  N   UNL     1      43.432 -13.237   7.215  1.00  0.00    -0.342 N 
HETATM    4  O   UNL     1      43.817 -11.545   5.731  1.00  0.00    -0.247 OA
HETATM    5  H   UNL     1      42.544 -11.509   8.594  1.00  0.00     0.171 HD
HETATM    6  H   UNL     1      43.505 -13.456   8.197  1.00  0.00     0.164 HD
ENDROOT
BRANCH   3   7
HETATM    7  C   UNL     1      43.801 -14.298   6.288  1.00  0.00     0.138 C 
BRANCH   7   8
HETATM    8  C   UNL     1      42.610 -15.154   5.775  1.00  0.00     0.003 C 
HETATM    9  C   UNL     1      41.760 -15.629   6.986  1.00  0.00     0.016 C 
HETATM   10  C   UNL     1      40.403 -16.011   6.396  1.00  0.00     0.001 C 
HETATM   11  C   UNL     1      40.253 -15.161   5.138  1.00  0.00     0.001 C 
HETATM   12  C   UNL     1      41.520 -14.308   5.070  1.00  0.00     0.016 C 
BRANCH   8  13
HETATM   13  C   UNL     1      43.150 -16.314   4.910  1.00  0.00    -0.048 A 
HETATM   14  C   UNL     1      43.002 -16.321   3.510  1.00  0.00     0.008 A 
HETATM   15  C   UNL     1      43.483 -17.379   2.732  1.00  0.00     0.001 A 
HETATM   16  C   UNL     1      44.101 -18.468   3.334  1.00  0.00     0.000 A 
HETATM   17  C   UNL     1      44.234 -18.501   4.717  1.00  0.00     0.001 A 
HETATM   18  C   UNL     1      43.762 -17.440   5.494  1.00  0.00     0.008 A 
ENDBRANCH   8  13
ENDBRANCH   7   8
ENDBRANCH   3   7
BRANCH   1  19
HETATM   19  C   UNL     1      43.245  -9.706   7.905  1.00  0.00     0.095 A 
HETATM   20  C   UNL     1      44.326  -9.019   8.421  1.00  0.00     0.107 A 
HETATM   21  O   UNL     1      44.126  -7.684   8.277  1.00  0.00    -0.215 OA
HETATM   22  N   UNL     1      42.926  -7.461   7.641  1.00  0.00    -0.131 NA
HETATM   23  C   UNL     1      42.397  -8.671   7.408  1.00  0.00     0.087 A 
HETATM   24  C   UNL     1      41.115  -8.743   6.667  1.00  0.00     0.075 C 
BRANCH  20  25
HETATM   25  C   UNL     1      45.590  -9.401   9.093  1.00  0.00     0.065 C 
HETATM   26  C   UNL     1      45.352  -9.848  10.526  1.00  0.00     0.012 C 
ENDBRANCH  20  25
ENDBRANCH   1  19
TORSDOF 5
ENDMDL
MODEL 6
REMARK VINA RESULT:      -7.7      5.373      8.304
REMARK  5 active torsions:
REMARK  status: ('A' for Active; 'I' for Inactive)
REMARK    1  A    between atoms: C_2  and  C_3 
REMARK    2  A    between atoms: C_8  and  N_9 
REMARK       I    between atoms: N_9  and  C_10 
REMARK       I    between atoms: C_10  and  N_11 
REMARK    3  A    between atoms: N_11  and  C_12 
REMARK    4  A    between atoms: C_12  and  C_13 
REMARK    5  A    between atoms: C_13  and  C_14 
ROOT
HETATM    1  N   UNL     1      39.597 -13.484   0.192  1.00  0.00    -0.305 N 
HETATM    2  C   UNL     1      40.118 -14.554   0.880  1.00  0.00     0.320 C 
HETATM    3  N   UNL     1      39.595 -14.630   2.152  1.00  0.00    -0.342 N 
HETATM    4  O   UNL     1      40.917 -15.370   0.444  1.00  0.00    -0.247 OA
HETATM    5  H   UNL     1      38.693 -13.163   0.505  1.00  0.00     0.171 HD
HETATM    6  H   UNL     1      39.229 -13.780   2.555  1.00  0.00     0.164 HD
ENDROOT
BRANCH   3   7
HETATM    7  C   UNL     1      40.021 -15.659   3.091  1.00  0.00     0.138 C 
BRANCH   7   8
HETATM    8  C   UNL     1      41.214 -15.254   4.001  1.00  0.00     0.003 C 
HETATM    9  C   UNL     1      41.793 -13.896   3.514  1.00  0.00     0.016 C 
HETATM   10  C   UNL     1      42.583 -13.350   4.702  1.00  0.00     0.001 C 
HETATM   11  C   UNL     1      41.924 -13.951   5.940  1.00  0.00     0.001 C 
HETATM   12  C   UNL     1      40.766 -14.798   5.414  1.00  0.00     0.016 C 
BRANCH   8  13
HETATM   13  C   UNL     1      42.253 -16.395   4.018  1.00  0.00    -0.048 A 
HETATM   14  C   UNL     1      42.786 -16.926   2.829  1.00  0.00     0.008 A 
HETATM   15  C   UNL     1      43.719 -17.968   2.850  1.00  0.00     0.001 A 
HETATM   16  C   UNL     1      44.124 -18.522   4.058  1.00  0.00     0.000 A 
HETATM   17  C   UNL     1      43.592 -18.037   5.247  1.00  0.00     0.001 A 
HETATM   18  C   UNL     1      42.667 -16.990   5.226  1.00  0.00     0.008 A 
ENDBRANCH   8  13
ENDBRANCH   7   8
ENDBRANCH   3   7
BRANCH   1  19
HETATM   19  C   UNL     1      40.019 -13.053  -1.059  1.00  0.00     0.095 A 
HETATM   20  C   UNL     1      39.729 -13.718  -2.234  1.00  0.00     0.107 A 
HETATM   21  O   UNL     1      40.278 -13.049  -3.280  1.00  0.00    -0.215 OA
HETATM   22  N   UNL     1      40.916 -11.918  -2.825  1.00  0.00    -0.131 NA
HETATM   23  C   UNL     1      40.756 -11.911  -1.494  1.00  0.00     0.087 A 
HETATM   24  C   UNL     1      41.294 -10.759  -0.731  1.00  0.00     0.075 C 
BRANCH  20  25
HETATM   25  C   UNL     1      39.005 -14.962  -2.586  1.00  0.00     0.065 C 
HETATM   26  C   UNL     1      38.061 -14.749  -3.758  1.00  0.00     0.012 C 
ENDBRANCH  20  25
ENDBRANCH   1  19
TORSDOF 5
ENDMDL
MODEL 7
REMARK VINA RESULT:      -7.6      5.381      8.092
REMARK  5 active torsions:
REMARK  status: ('A' for Active; 'I' for Inactive)
REMARK    1  A    between atoms: C_2  and  C_3 
REMARK    2  A    between atoms: C_8  and  N_9 
REMARK       I    between atoms: N_9  and  C_10 
REMARK       I    between atoms: C_10  and  N_11 
REMARK    3  A    between atoms: N_11  and  C_12 
REMARK    4  A    between atoms: C_12  and  C_13 
REMARK    5  A    between atoms: C_13  and  C_14 
ROOT
HETATM    1  N   UNL     1      39.434 -13.590   0.304  1.00  0.00    -0.305 N 
HETATM    2  C   UNL     1      39.953 -14.664   0.988  1.00  0.00     0.320 C 
HETATM    3  N   UNL     1      39.521 -14.677   2.297  1.00  0.00    -0.342 N 
HETATM    4  O   UNL     1      40.678 -15.532   0.524  1.00  0.00    -0.247 OA
HETATM    5  H   UNL     1      38.572 -13.216   0.670  1.00  0.00     0.171 HD
HETATM    6  H   UNL     1      39.227 -13.798   2.696  1.00  0.00     0.164 HD
ENDROOT
BRANCH   3   7
HETATM    7  C   UNL     1      39.966 -15.697   3.236  1.00  0.00     0.138 C 
BRANCH   7   8
HETATM    8  C   UNL     1      41.197 -15.296   4.095  1.00  0.00     0.003 C 
HETATM    9  C   UNL     1      41.736 -13.922   3.610  1.00  0.00     0.016 C 
HETATM   10  C   UNL     1      42.578 -13.392   4.769  1.00  0.00     0.001 C 
HETATM   11  C   UNL     1      41.987 -14.026   6.025  1.00  0.00     0.001 C 
HETATM   12  C   UNL     1      40.815 -14.876   5.537  1.00  0.00     0.016 C 
BRANCH   8  13
HETATM   13  C   UNL     1      42.249 -16.425   4.037  1.00  0.00    -0.048 A 
HETATM   14  C   UNL     1      42.735 -16.918   2.812  1.00  0.00     0.008 A 
HETATM   15  C   UNL     1      43.679 -17.949   2.765  1.00  0.00     0.001 A 
HETATM   16  C   UNL     1      44.143 -18.530   3.939  1.00  0.00     0.000 A 
HETATM   17  C   UNL     1      43.657 -18.083   5.162  1.00  0.00     0.001 A 
HETATM   18  C   UNL     1      42.720 -17.047   5.210  1.00  0.00     0.008 A 
ENDBRANCH   8  13
ENDBRANCH   7   8
ENDBRANCH   3   7
BRANCH   1  19
HETATM   19  C   UNL     1      39.784 -13.218  -0.987  1.00  0.00     0.095 A 
HETATM   20  C   UNL     1      40.568 -12.120  -1.279  1.00  0.00     0.107 A 
HETATM   21  O   UNL     1      40.731 -12.023  -2.623  1.00  0.00    -0.215 OA
HETATM   22  N   UNL     1      40.085 -13.066  -3.245  1.00  0.00    -0.131 NA
HETATM   23  C   UNL     1      39.522 -13.791  -2.267  1.00  0.00     0.087 A 
HETATM   24  C   UNL     1      38.801 -15.031  -2.642  1.00  0.00     0.075 C 
BRANCH  20  25
HETATM   25  C   UNL     1      41.220 -11.053  -0.483  1.00  0.00     0.065 C 
HETATM   26  C   UNL     1      41.440  -9.793  -1.307  1.00  0.00     0.012 C 
ENDBRANCH  20  25
ENDBRANCH   1  19
TORSDOF 5
ENDMDL
MODEL 8
REMARK VINA RESULT:      -7.6      5.479      8.227
REMARK  5 active torsions:
REMARK  status: ('A' for Active; 'I' for Inactive)
REMARK    1  A    between atoms: C_2  and  C_3 
REMARK    2  A    between atoms: C_8  and  N_9 
REMARK       I    between atoms: N_9  and  C_10 
REMARK       I    between atoms: C_10  and  N_11 
REMARK    3  A    between atoms: N_11  and  C_12 
REMARK    4  A    between atoms: C_12  and  C_13 
REMARK    5  A    between atoms: C_13  and  C_14 
ROOT
HETATM    1  N   UNL     1      40.123 -15.380   3.110  1.00  0.00    -0.305 N 
HETATM    2  C   UNL     1      39.981 -14.016   3.013  1.00  0.00     0.320 C 
HETATM    3  N   UNL     1      39.123 -13.676   1.990  1.00  0.00    -0.342 N 
HETATM    4  O   UNL     1      40.503 -13.184   3.741  1.00  0.00    -0.247 OA
HETATM    5  H   UNL     1      39.357 -15.924   2.743  1.00  0.00     0.171 HD
HETATM    6  H   UNL     1      39.004 -14.344   1.243  1.00  0.00     0.164 HD
ENDROOT
BRANCH   3   7
HETATM    7  C   UNL     1      38.841 -12.285   1.662  1.00  0.00     0.138 C 
BRANCH   7   8
HETATM    8  C   UNL     1      39.477 -11.788   0.335  1.00  0.00     0.003 C 
HETATM    9  C   UNL     1      39.130 -10.288   0.129  1.00  0.00     0.016 C 
HETATM   10  C   UNL     1      40.159  -9.774  -0.876  1.00  0.00     0.001 C 
HETATM   11  C   UNL     1      41.385 -10.664  -0.695  1.00  0.00     0.001 C 
HETATM   12  C   UNL     1      41.017 -11.639   0.424  1.00  0.00     0.016 C 
BRANCH   8  13
HETATM   13  C   UNL     1      39.009 -12.693  -0.826  1.00  0.00    -0.048 A 
HETATM   14  C   UNL     1      39.808 -13.745  -1.309  1.00  0.00     0.008 A 
HETATM   15  C   UNL     1      39.384 -14.554  -2.369  1.00  0.00     0.001 A 
HETATM   16  C   UNL     1      38.163 -14.317  -2.988  1.00  0.00     0.000 A 
HETATM   17  C   UNL     1      37.367 -13.265  -2.550  1.00  0.00     0.001 A 
HETATM   18  C   UNL     1      37.786 -12.462  -1.486  1.00  0.00     0.008 A 
ENDBRANCH   8  13
ENDBRANCH   7   8
ENDBRANCH   3   7
BRANCH   1  19
HETATM   19  C   UNL     1      41.018 -16.035   3.945  1.00  0.00     0.095 A 
HETATM   20  C   UNL     1      42.168 -16.654   3.495  1.00  0.00     0.107 A 
HETATM   21  O   UNL     1      42.830 -17.200   4.548  1.00  0.00    -0.215 OA
HETATM   22  N   UNL     1      42.149 -16.932   5.713  1.00  0.00    -0.131 NA
HETATM   23  C   UNL     1      41.066 -16.226   5.358  1.00  0.00     0.087 A 
HETATM   24  C   UNL     1      40.167 -15.737   6.430  1.00  0.00     0.075 C 
BRANCH  20  25
HETATM   25  C   UNL     1      42.798 -16.867   2.171  1.00  0.00     0.065 C 
HETATM   26  C   UNL     1      43.401 -15.583   1.623  1.00  0.00     0.012 C 
ENDBRANCH  20  25
ENDBRANCH   1  19
TORSDOF 5
ENDMDL
MODEL 9
REMARK VINA RESULT:      -7.5      5.278      6.423
REMARK  5 active torsions:
REMARK  status: ('A' for Active; 'I' for Inactive)
REMARK    1  A    between atoms: C_2  and  C_3 
REMARK    2  A    between atoms: C_8  and  N_9 
REMARK       I    between atoms: N_9  and  C_10 
REMARK       I    between atoms: C_10  and  N_11 
REMARK    3  A    between atoms: N_11  and  C_12 
REMARK    4  A    between atoms: C_12  and  C_13 
REMARK    5  A    between atoms: C_13  and  C_14 
ROOT
HETATM    1  N   UNL     1      41.156 -13.096   0.481  1.00  0.00    -0.305 N 
HETATM    2  C   UNL     1      42.116 -13.541   1.358  1.00  0.00     0.320 C 
HETATM    3  N   UNL     1      42.375 -14.882   1.175  1.00  0.00    -0.342 N 
HETATM    4  O   UNL     1      42.709 -12.861   2.183  1.00  0.00    -0.247 OA
HETATM    5  H   UNL     1      41.063 -13.629  -0.370  1.00  0.00     0.171 HD
HETATM    6  H   UNL     1      41.651 -15.440   0.746  1.00  0.00     0.164 HD
ENDROOT
BRANCH   3   7
HETATM    7  C   UNL     1      43.329 -15.596   2.012  1.00  0.00     0.138 C 
BRANCH   7   8
HETATM    8  C   UNL     1      42.704 -16.324   3.233  1.00  0.00     0.003 C 
HETATM    9  C   UNL     1      43.088 -15.567   4.535  1.00  0.00     0.016 C 
HETATM   10  C   UNL     1      42.071 -16.024   5.579  1.00  0.00     0.001 C 
HETATM   11  C   UNL     1      40.823 -16.410   4.789  1.00  0.00     0.001 C 
HETATM   12  C   UNL     1      41.168 -16.136   3.325  1.00  0.00     0.016 C 
BRANCH   8  13
HETATM   13  C   UNL     1      43.147 -17.803   3.228  1.00  0.00    -0.048 A 
HETATM   14  C   UNL     1      42.836 -18.663   2.159  1.00  0.00     0.008 A 
HETATM   15  C   UNL     1      43.230 -20.005   2.164  1.00  0.00     0.001 A 
HETATM   16  C   UNL     1      43.923 -20.528   3.249  1.00  0.00     0.000 A 
HETATM   17  C   UNL     1      44.217 -19.709   4.333  1.00  0.00     0.001 A 
HETATM   18  C   UNL     1      43.832 -18.365   4.323  1.00  0.00     0.008 A 
ENDBRANCH   8  13
ENDBRANCH   7   8
ENDBRANCH   3   7
BRANCH   1  19
HETATM   19  C   UNL     1      40.576 -11.834   0.500  1.00  0.00     0.095 A 
HETATM   20  C   UNL     1      39.695 -11.414   1.477  1.00  0.00     0.107 A 
HETATM   21  O   UNL     1      39.307 -10.139   1.218  1.00  0.00    -0.215 OA
HETATM   22  N   UNL     1      39.941  -9.681   0.086  1.00  0.00    -0.131 NA
HETATM   23  C   UNL     1      40.710 -10.692  -0.344  1.00  0.00     0.087 A 
HETATM   24  C   UNL     1      41.570 -10.461  -1.530  1.00  0.00     0.075 C 
BRANCH  20  25
HETATM   25  C   UNL     1      39.085 -12.031   2.678  1.00  0.00     0.065 C 
HETATM   26  C   UNL     1      39.023 -11.054   3.841  1.00  0.00     0.012 C 
ENDBRANCH  20  25
ENDBRANCH   1  19
TORSDOF 5
ENDMDL
MODEL 10
REMARK VINA RESULT:      -7.3      5.591      7.897
REMARK  5 active torsions:
REMARK  status: ('A' for Active; 'I' for Inactive)
REMARK    1  A    between atoms: C_2  and  C_3 
REMARK    2  A    between atoms: C_8  and  N_9 
REMARK       I    between atoms: N_9  and  C_10 
REMARK       I    between atoms: C_10  and  N_11 
REMARK    3  A    between atoms: N_11  and  C_12 
REMARK    4  A    between atoms: C_12  and  C_13 
REMARK    5  A    between atoms: C_13  and  C_14 
ROOT
HETATM    1  N   UNL     1      39.176 -13.527   0.307  1.00  0.00    -0.305 N 
HETATM    2  C   UNL     1      40.498 -13.768   0.601  1.00  0.00     0.320 C 
HETATM    3  N   UNL     1      40.625 -14.494   1.765  1.00  0.00    -0.342 N 
HETATM    4  O   UNL     1      41.459 -13.428  -0.074  1.00  0.00    -0.247 OA
HETATM    5  H   UNL     1      38.517 -14.183   0.698  1.00  0.00     0.171 HD
HETATM    6  H   UNL     1      39.864 -14.447   2.426  1.00  0.00     0.164 HD
ENDROOT
BRANCH   3   7
HETATM    7  C   UNL     1      41.931 -14.843   2.307  1.00  0.00     0.138 C 
BRANCH   7   8
HETATM    8  C   UNL     1      41.888 -15.671   3.621  1.00  0.00     0.003 C 
HETATM    9  C   UNL     1      42.430 -14.806   4.792  1.00  0.00     0.016 C 
HETATM   10  C   UNL     1      41.906 -15.476   6.060  1.00  0.00     0.001 C 
HETATM   11  C   UNL     1      40.621 -16.188   5.644  1.00  0.00     0.001 C 
HETATM   12  C   UNL     1      40.448 -15.876   4.157  1.00  0.00     0.016 C 
BRANCH   8  13
HETATM   13  C   UNL     1      42.667 -16.989   3.419  1.00  0.00    -0.048 A 
HETATM   14  C   UNL     1      43.753 -17.338   4.243  1.00  0.00     0.008 A 
HETATM   15  C   UNL     1      44.463 -18.527   4.048  1.00  0.00     0.001 A 
HETATM   16  C   UNL     1      44.121 -19.386   3.011  1.00  0.00     0.000 A 
HETATM   17  C   UNL     1      43.071 -19.052   2.163  1.00  0.00     0.001 A 
HETATM   18  C   UNL     1      42.356 -17.868   2.363  1.00  0.00     0.008 A 
ENDBRANCH   8  13
ENDBRANCH   7   8
ENDBRANCH   3   7
BRANCH   1  19
HETATM   19  C   UNL     1      38.719 -12.709  -0.718  1.00  0.00     0.095 A 
HETATM   20  C   UNL     1      38.133 -11.477  -0.507  1.00  0.00     0.107 A 
HETATM   21  O   UNL     1      37.796 -10.925  -1.702  1.00  0.00    -0.215 OA
HETATM   22  N   UNL     1      38.177 -11.764  -2.724  1.00  0.00    -0.131 NA
HETATM   23  C   UNL     1      38.739 -12.832  -2.139  1.00  0.00     0.087 A 
HETATM   24  C   UNL     1      39.306 -13.889  -3.010  1.00  0.00     0.075 C 
BRANCH  20  25
HETATM   25  C   UNL     1      37.780 -10.671   0.685  1.00  0.00     0.065 C 
HETATM   26  C   UNL     1      36.299 -10.325   0.710  1.00  0.00     0.012 C 
ENDBRANCH  20  25
ENDBRANCH   1  19
TORSDOF 5
ENDMDL
