MODEL 1
REMARK VINA RESULT:      -7.4      0.000      0.000
REMARK  6 active torsions:
REMARK  status: ('A' for Active; 'I' for Inactive)
REMARK    1  A    between atoms: C_2  and  C_3 
REMARK    2  A    between atoms: C_3  and  N_4 
REMARK    3  A    between atoms: C_3  and  C_15 
REMARK       I    between atoms: N_4  and  C_5 
REMARK    4  A    between atoms: C_5  and  C_6 
REMARK    5  A    between atoms: C_6  and  C_7 
REMARK    6  A    between atoms: C_16  and  O_17 
ROOT
HETATM    1  C   UNL     1      42.100 -13.853   5.024  1.00  0.00     0.128 C 
ENDROOT
BRANCH   1   2
HETATM    2  C   UNL     1      40.793 -13.031   4.700  1.00  0.00    -0.026 C 
HETATM    3  C   UNL     1      39.966 -13.632   3.548  1.00  0.00     0.016 C 
HETATM    4  C   UNL     1      41.170 -11.585   4.299  1.00  0.00     0.016 C 
HETATM    5  C   UNL     1      39.889 -12.933   5.948  1.00  0.00     0.016 C 
ENDBRANCH   1   2
BRANCH   1   6
HETATM    6  N   UNL     1      43.235 -12.990   5.376  1.00  0.00    -0.351 N 
HETATM    7  C   UNL     1      43.881 -13.048   6.596  1.00  0.00     0.222 C 
HETATM    8  O   UNL     1      43.520 -13.767   7.520  1.00  0.00    -0.273 OA
HETATM    9  H   UNL     1      43.573 -12.345   4.678  1.00  0.00     0.163 HD
BRANCH   7  10
HETATM   10  C   UNL     1      45.062 -12.093   6.683  1.00  0.00     0.142 C 
BRANCH  10  11
HETATM   11  C   UNL     1      44.785 -10.737   7.285  1.00  0.00    -0.032 A 
HETATM   12  C   UNL     1      43.503 -10.196   7.364  1.00  0.00     0.126 A 
HETATM   13  N   UNL     1      43.209  -9.019   7.965  1.00  0.00    -0.248 NA
HETATM   14  C   UNL     1      44.242  -8.349   8.509  1.00  0.00     0.125 A 
HETATM   15 CL   UNL     1      43.822  -6.864   9.258  1.00  0.00    -0.063 Cl
HETATM   16  C   UNL     1      45.551  -8.794   8.502  1.00  0.00     0.045 A 
HETATM   17  C   UNL     1      45.822 -10.011   7.886  1.00  0.00     0.012 A 
ENDBRANCH  10  11
ENDBRANCH   7  10
ENDBRANCH   1   6
BRANCH   1  18
HETATM   18  C   UNL     1      42.534 -14.841   3.932  1.00  0.00    -0.001 A 
HETATM   19  C   UNL     1      42.434 -16.236   4.138  1.00  0.00     0.076 A 
HETATM   20  C   UNL     1      42.839 -17.122   3.131  1.00  0.00     0.037 A 
HETATM   21  C   UNL     1      43.344 -16.643   1.921  1.00  0.00     0.003 A 
HETATM   22  C   UNL     1      43.446 -15.275   1.705  1.00  0.00     0.001 A 
HETATM   23  C   UNL     1      43.044 -14.383   2.700  1.00  0.00     0.012 A 
BRANCH  19  24
HETATM   24  O   UNL     1      41.910 -16.636   5.339  1.00  0.00    -0.355 OA
HETATM   25  C   UNL     1      42.788 -17.241   6.279  1.00  0.00     0.210 C 
ENDBRANCH  19  24
ENDBRANCH   1  18
TORSDOF 6
ENDMDL
MODEL 2
REMARK VINA RESULT:      -7.3      3.892      6.833
REMARK  6 active torsions:
REMARK  status: ('A' for Active; 'I' for Inactive)
REMARK    1  A    between atoms: C_2  and  C_3 
REMARK    2  A    between atoms: C_3  and  N_4 
REMARK    3  A    between atoms: C_3  and  C_15 
REMARK       I    between atoms: N_4  and  C_5 
REMARK    4  A    between atoms: C_5  and  C_6 
REMARK    5  A    between atoms: C_6  and  C_7 
REMARK    6  A    between atoms: C_16  and  O_17 
ROOT
HETATM    1  C   UNL     1      42.575 -13.328   5.756  1.00  0.00     0.128 C 
ENDROOT
BRANCH   1   2
HETATM    2  C   UNL     1      43.423 -12.005   5.898  1.00  0.00    -0.026 C 
HETATM    3  C   UNL     1      43.830 -11.394   4.544  1.00  0.00     0.016 C 
HETATM    4  C   UNL     1      44.720 -12.296   6.688  1.00  0.00     0.016 C 
HETATM    5  C   UNL     1      42.638 -10.940   6.696  1.00  0.00     0.016 C 
ENDBRANCH   1   2
BRANCH   1   6
HETATM    6  N   UNL     1      43.403 -14.538   5.834  1.00  0.00    -0.351 N 
HETATM    7  C   UNL     1      42.929 -15.752   6.290  1.00  0.00     0.222 C 
HETATM    8  O   UNL     1      41.800 -15.912   6.742  1.00  0.00    -0.273 OA
HETATM    9  H   UNL     1      44.356 -14.481   5.510  1.00  0.00     0.163 HD
BRANCH   7  10
HETATM   10  C   UNL     1      43.969 -16.859   6.211  1.00  0.00     0.142 C 
BRANCH  10  11
HETATM   11  C   UNL     1      43.911 -17.747   4.991  1.00  0.00    -0.032 A 
HETATM   12  C   UNL     1      44.184 -19.113   5.041  1.00  0.00     0.126 A 
HETATM   13  N   UNL     1      44.066 -19.952   3.984  1.00  0.00    -0.248 NA
HETATM   14  C   UNL     1      43.662 -19.401   2.824  1.00  0.00     0.125 A 
HETATM   15 CL   UNL     1      43.530 -20.501   1.515  1.00  0.00    -0.063 Cl
HETATM   16  C   UNL     1      43.352 -18.064   2.661  1.00  0.00     0.045 A 
HETATM   17  C   UNL     1      43.473 -17.228   3.766  1.00  0.00     0.012 A 
ENDBRANCH  10  11
ENDBRANCH   7  10
ENDBRANCH   1   6
BRANCH   1  18
HETATM   18  C   UNL     1      41.688 -13.399   4.505  1.00  0.00    -0.001 A 
HETATM   19  C   UNL     1      40.306 -13.115   4.581  1.00  0.00     0.076 A 
HETATM   20  C   UNL     1      39.512 -13.190   3.429  1.00  0.00     0.037 A 
HETATM   21  C   UNL     1      40.071 -13.545   2.201  1.00  0.00     0.003 A 
HETATM   22  C   UNL     1      41.427 -13.825   2.111  1.00  0.00     0.001 A 
HETATM   23  C   UNL     1      42.229 -13.752   3.251  1.00  0.00     0.012 A 
BRANCH  19  24
HETATM   24  O   UNL     1      39.828 -12.753   5.814  1.00  0.00    -0.355 OA
HETATM   25  C   UNL     1      39.144 -11.512   5.924  1.00  0.00     0.210 C 
ENDBRANCH  19  24
ENDBRANCH   1  18
TORSDOF 6
ENDMDL
MODEL 3
REMARK VINA RESULT:      -7.1      1.647      2.243
REMARK  6 active torsions:
REMARK  status: ('A' for Active; 'I' for Inactive)
REMARK    1  A    between atoms: C_2  and  C_3 
REMARK    2  A    between atoms: C_3  and  N_4 
REMARK    3  A    between atoms: C_3  and  C_15 
REMARK       I    between atoms: N_4  and  C_5 
REMARK    4  A    between atoms: C_5  and  C_6 
REMARK    5  A    between atoms: C_6  and  C_7 
REMARK    6  A    between atoms: C_16  and  O_17 
ROOT
HETATM    1  C   UNL     1      41.673 -14.743   3.679  1.00  0.00     0.128 C 
ENDROOT
BRANCH   1   2
HETATM    2  C   UNL     1      40.646 -14.522   2.502  1.00  0.00    -0.026 C 
HETATM    3  C   UNL     1      41.318 -14.110   1.178  1.00  0.00     0.016 C 
HETATM    4  C   UNL     1      39.643 -13.409   2.883  1.00  0.00     0.016 C 
HETATM    5  C   UNL     1      39.824 -15.806   2.251  1.00  0.00     0.016 C 
ENDBRANCH   1   2
BRANCH   1   6
HETATM    6  N   UNL     1      42.627 -13.633   3.810  1.00  0.00    -0.351 N 
HETATM    7  C   UNL     1      42.682 -12.808   4.915  1.00  0.00     0.222 C 
HETATM    8  O   UNL     1      41.895 -12.877   5.852  1.00  0.00    -0.273 OA
HETATM    9  H   UNL     1      43.290 -13.490   3.063  1.00  0.00     0.163 HD
BRANCH   7  10
HETATM   10  C   UNL     1      43.799 -11.779   4.827  1.00  0.00     0.142 C 
BRANCH  10  11
HETATM   11  C   UNL     1      44.257 -11.174   6.132  1.00  0.00    -0.032 A 
HETATM   12  C   UNL     1      43.390 -10.516   7.003  1.00  0.00     0.126 A 
HETATM   13  N   UNL     1      43.751 -10.031   8.214  1.00  0.00    -0.248 NA
HETATM   14  C   UNL     1      45.037 -10.206   8.571  1.00  0.00     0.125 A 
HETATM   15 CL   UNL     1      45.448  -9.574  10.112  1.00  0.00    -0.063 Cl
HETATM   16  C   UNL     1      45.982 -10.853   7.796  1.00  0.00     0.045 A 
HETATM   17  C   UNL     1      45.580 -11.350   6.560  1.00  0.00     0.012 A 
ENDBRANCH  10  11
ENDBRANCH   7  10
ENDBRANCH   1   6
BRANCH   1  18
HETATM   18  C   UNL     1      42.443 -16.070   3.630  1.00  0.00    -0.001 A 
HETATM   19  C   UNL     1      42.793 -16.748   4.820  1.00  0.00     0.076 A 
HETATM   20  C   UNL     1      43.499 -17.956   4.754  1.00  0.00     0.037 A 
HETATM   21  C   UNL     1      43.866 -18.501   3.522  1.00  0.00     0.003 A 
HETATM   22  C   UNL     1      43.527 -17.847   2.346  1.00  0.00     0.001 A 
HETATM   23  C   UNL     1      42.822 -16.644   2.398  1.00  0.00     0.012 A 
BRANCH  19  24
HETATM   24  O   UNL     1      42.383 -16.167   5.991  1.00  0.00    -0.355 OA
HETATM   25  C   UNL     1      43.334 -16.045   7.041  1.00  0.00     0.210 C 
ENDBRANCH  19  24
ENDBRANCH   1  18
TORSDOF 6
ENDMDL
MODEL 4
REMARK VINA RESULT:      -7.1      3.914      6.807
REMARK  6 active torsions:
REMARK  status: ('A' for Active; 'I' for Inactive)
REMARK    1  A    between atoms: C_2  and  C_3 
REMARK    2  A    between atoms: C_3  and  N_4 
REMARK    3  A    between atoms: C_3  and  C_15 
REMARK       I    between atoms: N_4  and  C_5 
REMARK    4  A    between atoms: C_5  and  C_6 
REMARK    5  A    between atoms: C_6  and  C_7 
REMARK    6  A    between atoms: C_16  and  O_17 
ROOT
HETATM    1  C   UNL     1      41.897 -12.787   3.200  1.00  0.00     0.128 C 
ENDROOT
BRANCH   1   2
HETATM    2  C   UNL     1      40.546 -11.976   3.257  1.00  0.00    -0.026 C 
HETATM    3  C   UNL     1      39.296 -12.865   3.117  1.00  0.00     0.016 C 
HETATM    4  C   UNL     1      40.510 -10.936   2.113  1.00  0.00     0.016 C 
HETATM    5  C   UNL     1      40.438 -11.192   4.584  1.00  0.00     0.016 C 
ENDBRANCH   1   2
BRANCH   1   6
HETATM    6  N   UNL     1      41.701 -14.180   2.776  1.00  0.00    -0.351 N 
HETATM    7  C   UNL     1      42.676 -14.923   2.142  1.00  0.00     0.222 C 
HETATM    8  O   UNL     1      43.765 -14.468   1.807  1.00  0.00    -0.273 OA
HETATM    9  H   UNL     1      40.817 -14.617   2.987  1.00  0.00     0.163 HD
BRANCH   7  10
HETATM   10  C   UNL     1      42.240 -16.354   1.866  1.00  0.00     0.142 C 
BRANCH  10  11
HETATM   11  C   UNL     1      42.922 -17.430   2.675  1.00  0.00    -0.032 A 
HETATM   12  C   UNL     1      43.318 -17.241   3.998  1.00  0.00     0.126 A 
HETATM   13  N   UNL     1      43.861 -18.206   4.776  1.00  0.00    -0.248 NA
HETATM   14  C   UNL     1      44.020 -19.416   4.208  1.00  0.00     0.125 A 
HETATM   15 CL   UNL     1      44.712 -20.606   5.230  1.00  0.00    -0.063 Cl
HETATM   16  C   UNL     1      43.653 -19.723   2.911  1.00  0.00     0.045 A 
HETATM   17  C   UNL     1      43.088 -18.713   2.137  1.00  0.00     0.012 A 
ENDBRANCH  10  11
ENDBRANCH   7  10
ENDBRANCH   1   6
BRANCH   1  18
HETATM   18  C   UNL     1      42.724 -12.763   4.494  1.00  0.00    -0.001 A 
HETATM   19  C   UNL     1      42.438 -13.656   5.552  1.00  0.00     0.076 A 
HETATM   20  C   UNL     1      43.201 -13.615   6.726  1.00  0.00     0.037 A 
HETATM   21  C   UNL     1      44.245 -12.700   6.866  1.00  0.00     0.003 A 
HETATM   22  C   UNL     1      44.538 -11.818   5.834  1.00  0.00     0.001 A 
HETATM   23  C   UNL     1      43.787 -11.850   4.660  1.00  0.00     0.012 A 
BRANCH  19  24
HETATM   24  O   UNL     1      41.414 -14.541   5.338  1.00  0.00    -0.355 OA
HETATM   25  C   UNL     1      41.047 -15.404   6.407  1.00  0.00     0.210 C 
ENDBRANCH  19  24
ENDBRANCH   1  18
TORSDOF 6
ENDMDL
MODEL 5
REMARK VINA RESULT:      -7.0      4.512      7.307
REMARK  6 active torsions:
REMARK  status: ('A' for Active; 'I' for Inactive)
REMARK    1  A    between atoms: C_2  and  C_3 
REMARK    2  A    between atoms: C_3  and  N_4 
REMARK    3  A    between atoms: C_3  and  C_15 
REMARK       I    between atoms: N_4  and  C_5 
REMARK    4  A    between atoms: C_5  and  C_6 
REMARK    5  A    between atoms: C_6  and  C_7 
REMARK    6  A    between atoms: C_16  and  O_17 
ROOT
HETATM    1  C   UNL     1      40.843 -14.107   3.971  1.00  0.00     0.128 C 
ENDROOT
BRANCH   1   2
HETATM    2  C   UNL     1      41.077 -13.840   5.509  1.00  0.00    -0.026 C 
HETATM    3  C   UNL     1      40.838 -12.373   5.914  1.00  0.00     0.016 C 
HETATM    4  C   UNL     1      42.533 -14.197   5.887  1.00  0.00     0.016 C 
HETATM    5  C   UNL     1      40.155 -14.738   6.362  1.00  0.00     0.016 C 
ENDBRANCH   1   2
BRANCH   1   6
HETATM    6  N   UNL     1      41.891 -14.950   3.380  1.00  0.00    -0.351 N 
HETATM    7  C   UNL     1      41.655 -15.844   2.355  1.00  0.00     0.222 C 
HETATM    8  O   UNL     1      40.541 -16.072   1.897  1.00  0.00    -0.273 OA
HETATM    9  H   UNL     1      42.833 -14.845   3.726  1.00  0.00     0.163 HD
BRANCH   7  10
HETATM   10  C   UNL     1      42.919 -16.547   1.883  1.00  0.00     0.142 C 
BRANCH  10  11
HETATM   11  C   UNL     1      43.386 -17.718   2.713  1.00  0.00    -0.032 A 
HETATM   12  C   UNL     1      43.817 -17.582   4.031  1.00  0.00     0.126 A 
HETATM   13  N   UNL     1      44.168 -18.619   4.828  1.00  0.00    -0.248 NA
HETATM   14  C   UNL     1      44.089 -19.847   4.283  1.00  0.00     0.125 A 
HETATM   15 CL   UNL     1      44.545 -21.128   5.329  1.00  0.00    -0.063 Cl
HETATM   16  C   UNL     1      43.664 -20.103   2.993  1.00  0.00     0.045 A 
HETATM   17  C   UNL     1      43.300 -19.018   2.200  1.00  0.00     0.012 A 
ENDBRANCH  10  11
ENDBRANCH   7  10
ENDBRANCH   1   6
BRANCH   1  18
HETATM   18  C   UNL     1      40.661 -12.847   3.113  1.00  0.00    -0.001 A 
HETATM   19  C   UNL     1      41.780 -12.101   2.679  1.00  0.00     0.076 A 
HETATM   20  C   UNL     1      41.593 -10.951   1.900  1.00  0.00     0.037 A 
HETATM   21  C   UNL     1      40.310 -10.531   1.546  1.00  0.00     0.003 A 
HETATM   22  C   UNL     1      39.202 -11.256   1.964  1.00  0.00     0.001 A 
HETATM   23  C   UNL     1      39.376 -12.403   2.739  1.00  0.00     0.012 A 
BRANCH  19  24
HETATM   24  O   UNL     1      43.009 -12.582   3.044  1.00  0.00    -0.355 OA
HETATM   25  C   UNL     1      43.939 -11.669   3.613  1.00  0.00     0.210 C 
ENDBRANCH  19  24
ENDBRANCH   1  18
TORSDOF 6
ENDMDL
MODEL 6
REMARK VINA RESULT:      -7.0      5.429      7.691
REMARK  6 active torsions:
REMARK  status: ('A' for Active; 'I' for Inactive)
REMARK    1  A    between atoms: C_2  and  C_3 
REMARK    2  A    between atoms: C_3  and  N_4 
REMARK    3  A    between atoms: C_3  and  C_15 
REMARK       I    between atoms: N_4  and  C_5 
REMARK    4  A    between atoms: C_5  and  C_6 
REMARK    5  A    between atoms: C_6  and  C_7 
REMARK    6  A    between atoms: C_16  and  O_17 
ROOT
HETATM    1  C   UNL     1      40.389 -13.474   0.767  1.00  0.00     0.128 C 
ENDROOT
BRANCH   1   2
HETATM    2  C   UNL     1      39.906 -12.535   1.940  1.00  0.00    -0.026 C 
HETATM    3  C   UNL     1      39.395 -13.311   3.169  1.00  0.00     0.016 C 
HETATM    4  C   UNL     1      38.753 -11.631   1.446  1.00  0.00     0.016 C 
HETATM    5  C   UNL     1      41.050 -11.603   2.394  1.00  0.00     0.016 C 
ENDBRANCH   1   2
BRANCH   1   6
HETATM    6  N   UNL     1      41.659 -14.146   1.071  1.00  0.00    -0.351 N 
HETATM    7  C   UNL     1      41.741 -15.467   1.466  1.00  0.00     0.222 C 
HETATM    8  O   UNL     1      40.762 -16.175   1.673  1.00  0.00    -0.273 OA
HETATM    9  H   UNL     1      42.512 -13.620   0.956  1.00  0.00     0.163 HD
BRANCH   7  10
HETATM   10  C   UNL     1      43.176 -15.937   1.658  1.00  0.00     0.142 C 
BRANCH  10  11
HETATM   11  C   UNL     1      43.385 -17.070   2.633  1.00  0.00    -0.032 A 
HETATM   12  C   UNL     1      43.450 -18.404   2.235  1.00  0.00     0.126 A 
HETATM   13  N   UNL     1      43.713 -19.436   3.070  1.00  0.00    -0.248 NA
HETATM   14  C   UNL     1      43.917 -19.123   4.364  1.00  0.00     0.125 A 
HETATM   15 CL   UNL     1      44.244 -20.462   5.384  1.00  0.00    -0.063 Cl
HETATM   16  C   UNL     1      43.889 -17.837   4.869  1.00  0.00     0.045 A 
HETATM   17  C   UNL     1      43.626 -16.795   3.985  1.00  0.00     0.012 A 
ENDBRANCH  10  11
ENDBRANCH   7  10
ENDBRANCH   1   6
BRANCH   1  18
HETATM   18  C   UNL     1      40.490 -12.797  -0.608  1.00  0.00    -0.001 A 
HETATM   19  C   UNL     1      39.846 -13.353  -1.736  1.00  0.00     0.076 A 
HETATM   20  C   UNL     1      39.954 -12.723  -2.983  1.00  0.00     0.037 A 
HETATM   21  C   UNL     1      40.693 -11.548  -3.126  1.00  0.00     0.003 A 
HETATM   22  C   UNL     1      41.330 -10.991  -2.026  1.00  0.00     0.001 A 
HETATM   23  C   UNL     1      41.228 -11.608  -0.779  1.00  0.00     0.012 A 
BRANCH  19  24
HETATM   24  O   UNL     1      39.120 -14.495  -1.519  1.00  0.00    -0.355 OA
HETATM   25  C   UNL     1      38.682 -15.230  -2.654  1.00  0.00     0.210 C 
ENDBRANCH  19  24
ENDBRANCH   1  18
TORSDOF 6
ENDMDL
MODEL 7
REMARK VINA RESULT:      -6.9      1.438      1.937
REMARK  6 active torsions:
REMARK  status: ('A' for Active; 'I' for Inactive)
REMARK    1  A    between atoms: C_2  and  C_3 
REMARK    2  A    between atoms: C_3  and  N_4 
REMARK    3  A    between atoms: C_3  and  C_15 
REMARK       I    between atoms: N_4  and  C_5 
REMARK    4  A    between atoms: C_5  and  C_6 
REMARK    5  A    between atoms: C_6  and  C_7 
REMARK    6  A    between atoms: C_16  and  O_17 
ROOT
HETATM    1  C   UNL     1      42.462 -15.576   5.495  1.00  0.00     0.128 C 
ENDROOT
BRANCH   1   2
HETATM    2  C   UNL     1      40.921 -15.271   5.351  1.00  0.00    -0.026 C 
HETATM    3  C   UNL     1      40.629 -13.871   4.779  1.00  0.00     0.016 C 
HETATM    4  C   UNL     1      40.237 -15.362   6.735  1.00  0.00     0.016 C 
HETATM    5  C   UNL     1      40.243 -16.319   4.442  1.00  0.00     0.016 C 
ENDBRANCH   1   2
BRANCH   1   6
HETATM    6  N   UNL     1      43.283 -14.359   5.459  1.00  0.00    -0.351 N 
HETATM    7  C   UNL     1      43.734 -13.715   6.594  1.00  0.00     0.222 C 
HETATM    8  O   UNL     1      43.430 -14.056   7.732  1.00  0.00    -0.273 OA
HETATM    9  H   UNL     1      43.550 -13.996   4.556  1.00  0.00     0.163 HD
BRANCH   7  10
HETATM   10  C   UNL     1      44.616 -12.515   6.281  1.00  0.00     0.142 C 
BRANCH  10  11
HETATM   11  C   UNL     1      44.405 -11.288   7.134  1.00  0.00    -0.032 A 
HETATM   12  C   UNL     1      43.192 -10.605   7.185  1.00  0.00     0.126 A 
HETATM   13  N   UNL     1      42.945  -9.550   7.996  1.00  0.00    -0.248 NA
HETATM   14  C   UNL     1      43.958  -9.155   8.790  1.00  0.00     0.125 A 
HETATM   15 CL   UNL     1      43.600  -7.814   9.798  1.00  0.00    -0.063 Cl
HETATM   16  C   UNL     1      45.199  -9.763   8.834  1.00  0.00     0.045 A 
HETATM   17  C   UNL     1      45.420 -10.852   7.996  1.00  0.00     0.012 A 
ENDBRANCH  10  11
ENDBRANCH   7  10
ENDBRANCH   1   6
BRANCH   1  18
HETATM   18  C   UNL     1      43.020 -16.594   4.489  1.00  0.00    -0.001 A 
HETATM   19  C   UNL     1      43.635 -17.786   4.933  1.00  0.00     0.076 A 
HETATM   20  C   UNL     1      44.141 -18.700   3.999  1.00  0.00     0.037 A 
HETATM   21  C   UNL     1      44.047 -18.447   2.631  1.00  0.00     0.003 A 
HETATM   22  C   UNL     1      43.444 -17.280   2.181  1.00  0.00     0.001 A 
HETATM   23  C   UNL     1      42.934 -16.363   3.100  1.00  0.00     0.012 A 
BRANCH  19  24
HETATM   24  O   UNL     1      43.674 -17.980   6.289  1.00  0.00    -0.355 OA
HETATM   25  C   UNL     1      43.318 -19.263   6.788  1.00  0.00     0.210 C 
ENDBRANCH  19  24
ENDBRANCH   1  18
TORSDOF 6
ENDMDL
MODEL 8
REMARK VINA RESULT:      -6.8      1.943      3.045
REMARK  6 active torsions:
REMARK  status: ('A' for Active; 'I' for Inactive)
REMARK    1  A    between atoms: C_2  and  C_3 
REMARK    2  A    between atoms: C_3  and  N_4 
REMARK    3  A    between atoms: C_3  and  C_15 
REMARK       I    between atoms: N_4  and  C_5 
REMARK    4  A    between atoms: C_5  and  C_6 
REMARK    5  A    between atoms: C_6  and  C_7 
REMARK    6  A    between atoms: C_16  and  O_17 
ROOT
HETATM    1  C   UNL     1      42.981 -14.776   4.729  1.00  0.00     0.128 C 
ENDROOT
BRANCH   1   2
HETATM    2  C   UNL     1      43.018 -15.764   5.960  1.00  0.00    -0.026 C 
HETATM    3  C   UNL     1      41.843 -16.760   5.975  1.00  0.00     0.016 C 
HETATM    4  C   UNL     1      42.966 -14.959   7.279  1.00  0.00     0.016 C 
HETATM    5  C   UNL     1      44.337 -16.567   5.971  1.00  0.00     0.016 C 
ENDBRANCH   1   2
BRANCH   1   6
HETATM    6  N   UNL     1      42.860 -13.371   5.138  1.00  0.00    -0.351 N 
HETATM    7  C   UNL     1      43.314 -12.317   4.371  1.00  0.00     0.222 C 
HETATM    8  O   UNL     1      43.924 -12.460   3.317  1.00  0.00    -0.273 OA
HETATM    9  H   UNL     1      42.397 -13.171   6.012  1.00  0.00     0.163 HD
BRANCH   7  10
HETATM   10  C   UNL     1      43.011 -10.961   4.992  1.00  0.00     0.142 C 
BRANCH  10  11
HETATM   11  C   UNL     1      43.644 -10.683   6.334  1.00  0.00    -0.032 A 
HETATM   12  C   UNL     1      42.938 -10.122   7.397  1.00  0.00     0.126 A 
HETATM   13  N   UNL     1      43.451  -9.931   8.635  1.00  0.00    -0.248 NA
HETATM   14  C   UNL     1      44.729 -10.313   8.820  1.00  0.00     0.125 A 
HETATM   15 CL   UNL     1      45.336 -10.049  10.402  1.00  0.00    -0.063 Cl
HETATM   16  C   UNL     1      45.520 -10.890   7.844  1.00  0.00     0.045 A 
HETATM   17  C   UNL     1      44.962 -11.084   6.584  1.00  0.00     0.012 A 
ENDBRANCH  10  11
ENDBRANCH   7  10
ENDBRANCH   1   6
BRANCH   1  18
HETATM   18  C   UNL     1      41.910 -15.091   3.675  1.00  0.00    -0.001 A 
HETATM   19  C   UNL     1      42.160 -16.030   2.648  1.00  0.00     0.076 A 
HETATM   20  C   UNL     1      41.171 -16.300   1.693  1.00  0.00     0.037 A 
HETATM   21  C   UNL     1      39.937 -15.651   1.741  1.00  0.00     0.003 A 
HETATM   22  C   UNL     1      39.677 -14.728   2.746  1.00  0.00     0.001 A 
HETATM   23  C   UNL     1      40.653 -14.452   3.704  1.00  0.00     0.012 A 
BRANCH  19  24
HETATM   24  O   UNL     1      43.384 -16.644   2.673  1.00  0.00    -0.355 OA
HETATM   25  C   UNL     1      43.416 -18.065   2.643  1.00  0.00     0.210 C 
ENDBRANCH  19  24
ENDBRANCH   1  18
TORSDOF 6
ENDMDL
MODEL 9
REMARK VINA RESULT:      -6.8      1.512      2.401
REMARK  6 active torsions:
REMARK  status: ('A' for Active; 'I' for Inactive)
REMARK    1  A    between atoms: C_2  and  C_3 
REMARK    2  A    between atoms: C_3  and  N_4 
REMARK    3  A    between atoms: C_3  and  C_15 
REMARK       I    between atoms: N_4  and  C_5 
REMARK    4  A    between atoms: C_5  and  C_6 
REMARK    5  A    between atoms: C_6  and  C_7 
REMARK    6  A    between atoms: C_16  and  O_17 
ROOT
HETATM    1  C   UNL     1      42.373 -14.570   5.306  1.00  0.00     0.128 C 
ENDROOT
BRANCH   1   2
HETATM    2  C   UNL     1      40.828 -14.314   5.503  1.00  0.00    -0.026 C 
HETATM    3  C   UNL     1      40.506 -12.895   6.007  1.00  0.00     0.016 C 
HETATM    4  C   UNL     1      40.259 -15.316   6.533  1.00  0.00     0.016 C 
HETATM    5  C   UNL     1      40.068 -14.545   4.179  1.00  0.00     0.016 C 
ENDBRANCH   1   2
BRANCH   1   6
HETATM    6  N   UNL     1      43.179 -13.368   5.557  1.00  0.00    -0.351 N 
HETATM    7  C   UNL     1      43.805 -13.113   6.761  1.00  0.00     0.222 C 
HETATM    8  O   UNL     1      43.685 -13.826   7.751  1.00  0.00    -0.273 OA
HETATM    9  H   UNL     1      43.300 -12.713   4.799  1.00  0.00     0.163 HD
BRANCH   7  10
HETATM   10  C   UNL     1      44.627 -11.833   6.739  1.00  0.00     0.142 C 
BRANCH  10  11
HETATM   11  C   UNL     1      44.408 -10.876   7.886  1.00  0.00    -0.032 A 
HETATM   12  C   UNL     1      43.177 -10.273   8.140  1.00  0.00     0.126 A 
HETATM   13  N   UNL     1      42.926  -9.473   9.202  1.00  0.00    -0.248 NA
HETATM   14  C   UNL     1      43.951  -9.261  10.049  1.00  0.00     0.125 A 
HETATM   15 CL   UNL     1      43.586  -8.239  11.377  1.00  0.00    -0.063 Cl
HETATM   16  C   UNL     1      45.209  -9.815   9.905  1.00  0.00     0.045 A 
HETATM   17  C   UNL     1      45.435 -10.642   8.809  1.00  0.00     0.012 A 
ENDBRANCH  10  11
ENDBRANCH   7  10
ENDBRANCH   1   6
BRANCH   1  18
HETATM   18  C   UNL     1      42.765 -15.168   3.948  1.00  0.00    -0.001 A 
HETATM   19  C   UNL     1      43.080 -14.332   2.853  1.00  0.00     0.076 A 
HETATM   20  C   UNL     1      43.431 -14.898   1.620  1.00  0.00     0.037 A 
HETATM   21  C   UNL     1      43.473 -16.283   1.458  1.00  0.00     0.003 A 
HETATM   22  C   UNL     1      43.168 -17.116   2.525  1.00  0.00     0.001 A 
HETATM   23  C   UNL     1      42.818 -16.565   3.759  1.00  0.00     0.012 A 
BRANCH  19  24
HETATM   24  O   UNL     1      43.039 -12.983   3.089  1.00  0.00    -0.355 OA
HETATM   25  C   UNL     1      42.142 -12.199   2.313  1.00  0.00     0.210 C 
ENDBRANCH  19  24
ENDBRANCH   1  18
TORSDOF 6
ENDMDL
MODEL 10
REMARK VINA RESULT:      -6.6      2.219      3.740
REMARK  6 active torsions:
REMARK  status: ('A' for Active; 'I' for Inactive)
REMARK    1  A    between atoms: C_2  and  C_3 
REMARK    2  A    between atoms: C_3  and  N_4 
REMARK    3  A    between atoms: C_3  and  C_15 
REMARK       I    between atoms: N_4  and  C_5 
REMARK    4  A    between atoms: C_5  and  C_6 
REMARK    5  A    between atoms: C_6  and  C_7 
REMARK    6  A    between atoms: C_16  and  O_17 
ROOT
HETATM    1  C   UNL     1      41.980 -15.884   3.008  1.00  0.00     0.128 C 
ENDROOT
BRANCH   1   2
HETATM    2  C   UNL     1      42.538 -14.925   1.886  1.00  0.00    -0.026 C 
HETATM    3  C   UNL     1      41.470 -14.508   0.856  1.00  0.00     0.016 C 
HETATM    4  C   UNL     1      43.680 -15.626   1.117  1.00  0.00     0.016 C 
HETATM    5  C   UNL     1      43.133 -13.645   2.513  1.00  0.00     0.016 C 
ENDBRANCH   1   2
BRANCH   1   6
HETATM    6  N   UNL     1      41.912 -15.233   4.322  1.00  0.00    -0.351 N 
HETATM    7  C   UNL     1      40.855 -14.438   4.720  1.00  0.00     0.222 C 
HETATM    8  O   UNL     1      39.917 -14.143   3.988  1.00  0.00    -0.273 OA
HETATM    9  H   UNL     1      42.664 -15.401   4.973  1.00  0.00     0.163 HD
BRANCH   7  10
HETATM   10  C   UNL     1      41.000 -13.936   6.149  1.00  0.00     0.142 C 
BRANCH  10  11
HETATM   11  C   UNL     1      42.183 -13.042   6.428  1.00  0.00    -0.032 A 
HETATM   12  C   UNL     1      43.301 -13.474   7.140  1.00  0.00     0.126 A 
HETATM   13  N   UNL     1      44.411 -12.725   7.342  1.00  0.00    -0.248 NA
HETATM   14  C   UNL     1      44.403 -11.487   6.814  1.00  0.00     0.125 A 
HETATM   15 CL   UNL     1      45.827 -10.575   7.097  1.00  0.00    -0.063 Cl
HETATM   16  C   UNL     1      43.357 -10.958   6.081  1.00  0.00     0.045 A 
HETATM   17  C   UNL     1      42.234 -11.754   5.880  1.00  0.00     0.012 A 
ENDBRANCH  10  11
ENDBRANCH   7  10
ENDBRANCH   1   6
BRANCH   1  18
HETATM   18  C   UNL     1      42.719 -17.224   3.143  1.00  0.00    -0.001 A 
HETATM   19  C   UNL     1      43.663 -17.427   4.175  1.00  0.00     0.076 A 
HETATM   20  C   UNL     1      44.330 -18.655   4.279  1.00  0.00     0.037 A 
HETATM   21  C   UNL     1      44.074 -19.684   3.372  1.00  0.00     0.003 A 
HETATM   22  C   UNL     1      43.147 -19.498   2.355  1.00  0.00     0.001 A 
HETATM   23  C   UNL     1      42.476 -18.281   2.242  1.00  0.00     0.012 A 
BRANCH  19  24
HETATM   24  O   UNL     1      43.850 -16.383   5.041  1.00  0.00    -0.355 OA
HETATM   25  C   UNL     1      44.670 -16.602   6.181  1.00  0.00     0.210 C 
ENDBRANCH  19  24
ENDBRANCH   1  18
TORSDOF 6
ENDMDL
