MODEL 1
REMARK VINA RESULT:      -8.7      0.000      0.000
REMARK  5 active torsions:
REMARK  status: ('A' for Active; 'I' for Inactive)
REMARK    1  A    between atoms: N_2  and  C_4 
REMARK    2  A    between atoms: C_4  and  C_5 
REMARK    3  A    between atoms: C_5  and  N_6 
REMARK    4  A    between atoms: C_11  and  C_12 
REMARK    5  A    between atoms: C_15  and  O_16 
ROOT
HETATM    1  N   UNL     1      42.161 -13.102   3.715  1.00  0.00    -0.332 N 
HETATM    2  C   UNL     1      42.306 -12.232   2.637  1.00  0.00     0.279 C 
HETATM    3  O   UNL     1      42.992 -11.226   2.621  1.00  0.00    -0.265 OA
HETATM    4  C   UNL     1      41.482 -12.765   1.540  1.00  0.00     0.156 C 
HETATM    5  C   UNL     1      40.972 -13.912   1.982  1.00  0.00     0.060 C 
HETATM    6  C   UNL     1      41.429 -14.309   3.334  1.00  0.00     0.161 C 
HETATM    7  O   UNL     1      41.324 -12.204   0.305  1.00  0.00    -0.303 OA
HETATM    8  C   UNL     1      40.635 -12.971  -0.614  1.00  0.00     0.090 A 
HETATM    9  C   UNL     1      40.007 -14.184  -0.278  1.00  0.00     0.051 A 
HETATM   10  C   UNL     1      40.089 -14.677   1.113  1.00  0.00     0.196 C 
HETATM   11  O   UNL     1      39.473 -15.649   1.520  1.00  0.00    -0.287 OA
HETATM   12  C   UNL     1      40.592 -12.506  -1.927  1.00  0.00     0.041 A 
HETATM   13  C   UNL     1      39.929 -13.258  -2.901  1.00  0.00     0.045 A 
HETATM   14  C   UNL     1      39.311 -14.458  -2.552  1.00  0.00     0.117 A 
HETATM   15  F   UNL     1      38.687 -15.172  -3.497  1.00  0.00    -0.206 F 
HETATM   16  C   UNL     1      39.336 -14.930  -1.246  1.00  0.00     0.060 A 
ENDROOT
BRANCH   6  17
HETATM   17  C   UNL     1      42.292 -15.558   3.301  1.00  0.00    -0.030 A 
HETATM   18  C   UNL     1      42.894 -16.022   2.114  1.00  0.00     0.012 A 
HETATM   19  C   UNL     1      43.596 -17.230   2.091  1.00  0.00     0.037 A 
HETATM   20  C   UNL     1      43.701 -17.980   3.255  1.00  0.00     0.065 A 
HETATM   21  C   UNL     1      43.127 -17.538   4.440  1.00  0.00     0.037 A 
HETATM   22  C   UNL     1      42.419 -16.335   4.463  1.00  0.00     0.012 A 
BRANCH  20  23
HETATM   23  O   UNL     1      44.354 -19.175   3.274  1.00  0.00    -0.361 OA
HETATM   24  H   UNL     1      44.083 -19.700   2.503  1.00  0.00     0.217 HD
ENDBRANCH  20  23
ENDBRANCH   6  17
BRANCH   1  25
HETATM   25  C   UNL     1      42.963 -13.003   4.924  1.00  0.00     0.155 C 
BRANCH  25  26
HETATM   26  C   UNL     1      42.257 -12.247   6.070  1.00  0.00     0.254 C 
BRANCH  26  27
HETATM   27  N   UNL     1      43.238 -11.770   7.132  1.00  0.00    -0.077 N 
HETATM   28  C   UNL     1      43.164 -10.296   7.412  1.00  0.00     0.269 C 
HETATM   29  H   UNL     1      43.004 -12.268   8.002  1.00  0.00     0.279 HD
HETATM   30  C   UNL     1      44.646 -12.188   6.789  1.00  0.00     0.269 C 
ENDBRANCH  26  27
ENDBRANCH  25  26
ENDBRANCH   1  25
TORSDOF 5
ENDMDL
MODEL 2
REMARK VINA RESULT:      -8.5      3.893      6.080
REMARK  5 active torsions:
REMARK  status: ('A' for Active; 'I' for Inactive)
REMARK    1  A    between atoms: N_2  and  C_4 
REMARK    2  A    between atoms: C_4  and  C_5 
REMARK    3  A    between atoms: C_5  and  N_6 
REMARK    4  A    between atoms: C_11  and  C_12 
REMARK    5  A    between atoms: C_15  and  O_16 
ROOT
HETATM    1  N   UNL     1      41.157 -12.132   5.119  1.00  0.00    -0.332 N 
HETATM    2  C   UNL     1      41.052 -12.842   3.926  1.00  0.00     0.279 C 
HETATM    3  O   UNL     1      40.531 -12.440   2.901  1.00  0.00    -0.265 OA
HETATM    4  C   UNL     1      41.688 -14.150   4.146  1.00  0.00     0.156 C 
HETATM    5  C   UNL     1      42.179 -14.121   5.382  1.00  0.00     0.060 C 
HETATM    6  C   UNL     1      42.010 -12.826   6.082  1.00  0.00     0.161 C 
HETATM    7  O   UNL     1      41.787 -15.163   3.234  1.00  0.00    -0.303 OA
HETATM    8  C   UNL     1      42.572 -16.233   3.615  1.00  0.00     0.090 A 
HETATM    9  C   UNL     1      43.121 -16.357   4.904  1.00  0.00     0.051 A 
HETATM   10  C   UNL     1      42.865 -15.296   5.902  1.00  0.00     0.196 C 
HETATM   11  O   UNL     1      43.195 -15.380   7.073  1.00  0.00    -0.287 OA
HETATM   12  C   UNL     1      42.828 -17.209   2.654  1.00  0.00     0.041 A 
HETATM   13  C   UNL     1      43.638 -18.300   2.981  1.00  0.00     0.045 A 
HETATM   14  C   UNL     1      44.175 -18.408   4.263  1.00  0.00     0.117 A 
HETATM   15  F   UNL     1      44.956 -19.454   4.559  1.00  0.00    -0.206 F 
HETATM   16  C   UNL     1      43.921 -17.450   5.235  1.00  0.00     0.060 A 
ENDROOT
BRANCH   6  17
HETATM   17  C   UNL     1      43.338 -12.133   6.329  1.00  0.00    -0.030 A 
HETATM   18  C   UNL     1      44.261 -11.889   5.291  1.00  0.00     0.012 A 
HETATM   19  C   UNL     1      45.518 -11.344   5.564  1.00  0.00     0.037 A 
HETATM   20  C   UNL     1      45.859 -11.037   6.875  1.00  0.00     0.065 A 
HETATM   21  C   UNL     1      44.963 -11.257   7.912  1.00  0.00     0.037 A 
HETATM   22  C   UNL     1      43.709 -11.808   7.643  1.00  0.00     0.012 A 
BRANCH  20  23
HETATM   23  O   UNL     1      47.082 -10.527   7.191  1.00  0.00    -0.361 OA
HETATM   24  H   UNL     1      47.755 -10.935   6.621  1.00  0.00     0.217 HD
ENDBRANCH  20  23
ENDBRANCH   6  17
BRANCH   1  25
HETATM   25  C   UNL     1      40.798 -10.727   5.237  1.00  0.00     0.155 C 
BRANCH  25  26
HETATM   26  C   UNL     1      39.727 -10.455   6.314  1.00  0.00     0.254 C 
BRANCH  26  27
HETATM   27  N   UNL     1      40.344 -10.100   7.659  1.00  0.00    -0.077 N 
HETATM   28  C   UNL     1      39.336  -9.815   8.736  1.00  0.00     0.269 C 
HETATM   29  H   UNL     1      40.902 -10.912   7.958  1.00  0.00     0.279 HD
HETATM   30  C   UNL     1      41.324  -8.962   7.518  1.00  0.00     0.269 C 
ENDBRANCH  26  27
ENDBRANCH  25  26
ENDBRANCH   1  25
TORSDOF 5
ENDMDL
MODEL 3
REMARK VINA RESULT:      -8.3      3.563      7.109
REMARK  5 active torsions:
REMARK  status: ('A' for Active; 'I' for Inactive)
REMARK    1  A    between atoms: N_2  and  C_4 
REMARK    2  A    between atoms: C_4  and  C_5 
REMARK    3  A    between atoms: C_5  and  N_6 
REMARK    4  A    between atoms: C_11  and  C_12 
REMARK    5  A    between atoms: C_15  and  O_16 
ROOT
HETATM    1  N   UNL     1      40.368 -12.368   3.655  1.00  0.00    -0.332 N 
HETATM    2  C   UNL     1      40.287 -11.941   4.978  1.00  0.00     0.279 C 
HETATM    3  O   UNL     1      39.272 -11.881   5.647  1.00  0.00    -0.265 OA
HETATM    4  C   UNL     1      41.652 -11.585   5.399  1.00  0.00     0.156 C 
HETATM    5  C   UNL     1      42.446 -11.876   4.371  1.00  0.00     0.060 C 
HETATM    6  C   UNL     1      41.757 -12.504   3.220  1.00  0.00     0.161 C 
HETATM    7  O   UNL     1      42.017 -11.099   6.622  1.00  0.00    -0.303 OA
HETATM    8  C   UNL     1      43.377 -10.995   6.840  1.00  0.00     0.090 A 
HETATM    9  C   UNL     1      44.332 -11.230   5.834  1.00  0.00     0.051 A 
HETATM   10  C   UNL     1      43.875 -11.618   4.483  1.00  0.00     0.196 C 
HETATM   11  O   UNL     1      44.621 -11.719   3.523  1.00  0.00    -0.287 OA
HETATM   12  C   UNL     1      43.792 -10.657   8.127  1.00  0.00     0.041 A 
HETATM   13  C   UNL     1      45.158 -10.564   8.406  1.00  0.00     0.045 A 
HETATM   14  C   UNL     1      46.092 -10.800   7.398  1.00  0.00     0.117 A 
HETATM   15  F   UNL     1      47.397 -10.715   7.682  1.00  0.00    -0.206 F 
HETATM   16  C   UNL     1      45.695 -11.127   6.109  1.00  0.00     0.060 A 
ENDROOT
BRANCH   6  17
HETATM   17  C   UNL     1      42.191 -13.945   3.012  1.00  0.00    -0.030 A 
HETATM   18  C   UNL     1      42.085 -14.914   4.030  1.00  0.00     0.012 A 
HETATM   19  C   UNL     1      42.588 -16.205   3.845  1.00  0.00     0.037 A 
HETATM   20  C   UNL     1      43.197 -16.534   2.641  1.00  0.00     0.065 A 
HETATM   21  C   UNL     1      43.302 -15.600   1.619  1.00  0.00     0.037 A 
HETATM   22  C   UNL     1      42.808 -14.308   1.804  1.00  0.00     0.012 A 
BRANCH  20  23
HETATM   23  O   UNL     1      43.723 -17.772   2.426  1.00  0.00    -0.361 OA
HETATM   24  H   UNL     1      43.312 -18.161   1.637  1.00  0.00     0.217 HD
ENDBRANCH  20  23
ENDBRANCH   6  17
BRANCH   1  25
HETATM   25  C   UNL     1      39.247 -12.970   2.949  1.00  0.00     0.155 C 
BRANCH  25  26
HETATM   26  C   UNL     1      38.515 -11.989   2.009  1.00  0.00     0.254 C 
BRANCH  26  27
HETATM   27  N   UNL     1      38.448 -12.508   0.580  1.00  0.00    -0.077 N 
HETATM   28  C   UNL     1      39.740 -13.089   0.081  1.00  0.00     0.269 C 
HETATM   29  H   UNL     1      37.740 -13.256   0.565  1.00  0.00     0.279 HD
HETATM   30  C   UNL     1      37.934 -11.442  -0.356  1.00  0.00     0.269 C 
ENDBRANCH  26  27
ENDBRANCH  25  26
ENDBRANCH   1  25
TORSDOF 5
ENDMDL
MODEL 4
REMARK VINA RESULT:      -8.2      3.819      6.255
REMARK  5 active torsions:
REMARK  status: ('A' for Active; 'I' for Inactive)
REMARK    1  A    between atoms: N_2  and  C_4 
REMARK    2  A    between atoms: C_4  and  C_5 
REMARK    3  A    between atoms: C_5  and  N_6 
REMARK    4  A    between atoms: C_11  and  C_12 
REMARK    5  A    between atoms: C_15  and  O_16 
ROOT
HETATM    1  N   UNL     1      41.132 -12.226   4.917  1.00  0.00    -0.332 N 
HETATM    2  C   UNL     1      41.075 -12.947   3.728  1.00  0.00     0.279 C 
HETATM    3  O   UNL     1      40.588 -12.559   2.681  1.00  0.00    -0.265 OA
HETATM    4  C   UNL     1      41.715 -14.248   3.982  1.00  0.00     0.156 C 
HETATM    5  C   UNL     1      42.162 -14.204   5.235  1.00  0.00     0.060 C 
HETATM    6  C   UNL     1      41.956 -12.904   5.917  1.00  0.00     0.161 C 
HETATM    7  O   UNL     1      41.855 -15.267   3.084  1.00  0.00    -0.303 OA
HETATM    8  C   UNL     1      42.636 -16.327   3.502  1.00  0.00     0.090 A 
HETATM    9  C   UNL     1      43.140 -16.435   4.810  1.00  0.00     0.051 A 
HETATM   10  C   UNL     1      42.839 -15.368   5.789  1.00  0.00     0.196 C 
HETATM   11  O   UNL     1      43.128 -15.439   6.972  1.00  0.00    -0.287 OA
HETATM   12  C   UNL     1      42.934 -17.309   2.559  1.00  0.00     0.041 A 
HETATM   13  C   UNL     1      43.741 -18.389   2.924  1.00  0.00     0.045 A 
HETATM   14  C   UNL     1      44.234 -18.482   4.225  1.00  0.00     0.117 A 
HETATM   15  F   UNL     1      45.013 -19.518   4.559  1.00  0.00    -0.206 F 
HETATM   16  C   UNL     1      43.937 -17.518   5.179  1.00  0.00     0.060 A 
ENDROOT
BRANCH   6  17
HETATM   17  C   UNL     1      43.268 -12.197   6.204  1.00  0.00    -0.030 A 
HETATM   18  C   UNL     1      44.212 -11.927   5.192  1.00  0.00     0.012 A 
HETATM   19  C   UNL     1      45.455 -11.369   5.503  1.00  0.00     0.037 A 
HETATM   20  C   UNL     1      45.760 -11.075   6.825  1.00  0.00     0.065 A 
HETATM   21  C   UNL     1      44.843 -11.320   7.838  1.00  0.00     0.037 A 
HETATM   22  C   UNL     1      43.603 -11.884   7.531  1.00  0.00     0.012 A 
BRANCH  20  23
HETATM   23  O   UNL     1      46.969 -10.554   7.177  1.00  0.00    -0.361 OA
HETATM   24  H   UNL     1      47.256  -9.926   6.494  1.00  0.00     0.217 HD
ENDBRANCH  20  23
ENDBRANCH   6  17
BRANCH   1  25
HETATM   25  C   UNL     1      40.757 -10.823   5.011  1.00  0.00     0.155 C 
BRANCH  25  26
HETATM   26  C   UNL     1      39.302 -10.606   5.479  1.00  0.00     0.254 C 
BRANCH  26  27
HETATM   27  N   UNL     1      38.592  -9.537   4.661  1.00  0.00    -0.077 N 
HETATM   28  C   UNL     1      38.463  -9.872   3.202  1.00  0.00     0.269 C 
HETATM   29  H   UNL     1      37.641  -9.446   5.047  1.00  0.00     0.279 HD
HETATM   30  C   UNL     1      39.241  -8.190   4.855  1.00  0.00     0.269 C 
ENDBRANCH  26  27
ENDBRANCH  25  26
ENDBRANCH   1  25
TORSDOF 5
ENDMDL
MODEL 5
REMARK VINA RESULT:      -8.0      4.080      7.822
REMARK  5 active torsions:
REMARK  status: ('A' for Active; 'I' for Inactive)
REMARK    1  A    between atoms: N_2  and  C_4 
REMARK    2  A    between atoms: C_4  and  C_5 
REMARK    3  A    between atoms: C_5  and  N_6 
REMARK    4  A    between atoms: C_11  and  C_12 
REMARK    5  A    between atoms: C_15  and  O_16 
ROOT
HETATM    1  N   UNL     1      41.108 -12.691   4.564  1.00  0.00    -0.332 N 
HETATM    2  C   UNL     1      40.587 -11.689   5.377  1.00  0.00     0.279 C 
HETATM    3  O   UNL     1      39.430 -11.310   5.389  1.00  0.00    -0.265 OA
HETATM    4  C   UNL     1      41.694 -11.191   6.209  1.00  0.00     0.156 C 
HETATM    5  C   UNL     1      42.752 -11.941   5.909  1.00  0.00     0.060 C 
HETATM    6  C   UNL     1      42.479 -13.031   4.943  1.00  0.00     0.161 C 
HETATM    7  O   UNL     1      41.620 -10.189   7.135  1.00  0.00    -0.303 OA
HETATM    8  C   UNL     1      42.749 -10.009   7.910  1.00  0.00     0.090 A 
HETATM    9  C   UNL     1      43.952 -10.700   7.679  1.00  0.00     0.051 A 
HETATM   10  C   UNL     1      44.021 -11.676   6.570  1.00  0.00     0.196 C 
HETATM   11  O   UNL     1      45.053 -12.225   6.222  1.00  0.00    -0.287 OA
HETATM   12  C   UNL     1      42.657  -9.107   8.969  1.00  0.00     0.041 A 
HETATM   13  C   UNL     1      43.763  -8.908   9.798  1.00  0.00     0.045 A 
HETATM   14  C   UNL     1      44.949  -9.601   9.558  1.00  0.00     0.117 A 
HETATM   15  F   UNL     1      45.997  -9.406  10.366  1.00  0.00    -0.206 F 
HETATM   16  C   UNL     1      45.060 -10.494   8.500  1.00  0.00     0.060 A 
ENDROOT
BRANCH   6  17
HETATM   17  C   UNL     1      42.611 -14.404   5.580  1.00  0.00    -0.030 A 
HETATM   18  C   UNL     1      42.183 -14.663   6.898  1.00  0.00     0.012 A 
HETATM   19  C   UNL     1      42.412 -15.906   7.494  1.00  0.00     0.037 A 
HETATM   20  C   UNL     1      43.067 -16.897   6.774  1.00  0.00     0.065 A 
HETATM   21  C   UNL     1      43.486 -16.670   5.470  1.00  0.00     0.037 A 
HETATM   22  C   UNL     1      43.266 -15.427   4.876  1.00  0.00     0.012 A 
BRANCH  20  23
HETATM   23  O   UNL     1      43.333 -18.116   7.323  1.00  0.00    -0.361 OA
HETATM   24  H   UNL     1      42.980 -18.811   6.744  1.00  0.00     0.217 HD
ENDBRANCH  20  23
ENDBRANCH   6  17
BRANCH   1  25
HETATM   25  C   UNL     1      40.277 -13.544   3.728  1.00  0.00     0.155 C 
BRANCH  25  26
HETATM   26  C   UNL     1      40.418 -13.250   2.219  1.00  0.00     0.254 C 
BRANCH  26  27
HETATM   27  N   UNL     1      39.712 -14.293   1.364  1.00  0.00    -0.077 N 
HETATM   28  C   UNL     1      39.893 -15.703   1.851  1.00  0.00     0.269 C 
HETATM   29  H   UNL     1      38.706 -14.077   1.396  1.00  0.00     0.279 HD
HETATM   30  C   UNL     1      40.112 -14.163  -0.084  1.00  0.00     0.269 C 
ENDBRANCH  26  27
ENDBRANCH  25  26
ENDBRANCH   1  25
TORSDOF 5
ENDMDL
MODEL 6
REMARK VINA RESULT:      -7.9      3.587      7.181
REMARK  5 active torsions:
REMARK  status: ('A' for Active; 'I' for Inactive)
REMARK    1  A    between atoms: N_2  and  C_4 
REMARK    2  A    between atoms: C_4  and  C_5 
REMARK    3  A    between atoms: C_5  and  N_6 
REMARK    4  A    between atoms: C_11  and  C_12 
REMARK    5  A    between atoms: C_15  and  O_16 
ROOT
HETATM    1  N   UNL     1      42.862 -16.573   5.622  1.00  0.00    -0.332 N 
HETATM    2  C   UNL     1      43.943 -15.940   6.229  1.00  0.00     0.279 C 
HETATM    3  O   UNL     1      45.015 -16.455   6.490  1.00  0.00    -0.265 OA
HETATM    4  C   UNL     1      43.540 -14.548   6.482  1.00  0.00     0.156 C 
HETATM    5  C   UNL     1      42.319 -14.415   5.969  1.00  0.00     0.060 C 
HETATM    6  C   UNL     1      41.809 -15.620   5.274  1.00  0.00     0.161 C 
HETATM    7  O   UNL     1      44.300 -13.585   7.083  1.00  0.00    -0.303 OA
HETATM    8  C   UNL     1      43.771 -12.309   7.062  1.00  0.00     0.090 A 
HETATM    9  C   UNL     1      42.477 -12.026   6.589  1.00  0.00     0.051 A 
HETATM   10  C   UNL     1      41.639 -13.132   6.078  1.00  0.00     0.196 C 
HETATM   11  O   UNL     1      40.467 -12.999   5.767  1.00  0.00    -0.287 OA
HETATM   12  C   UNL     1      44.585 -11.274   7.520  1.00  0.00     0.041 A 
HETATM   13  C   UNL     1      44.107  -9.962   7.496  1.00  0.00     0.045 A 
HETATM   14  C   UNL     1      42.822  -9.698   7.024  1.00  0.00     0.117 A 
HETATM   15  F   UNL     1      42.380  -8.435   6.999  1.00  0.00    -0.206 F 
HETATM   16  C   UNL     1      41.994 -10.718   6.575  1.00  0.00     0.060 A 
ENDROOT
BRANCH   6  17
HETATM   17  C   UNL     1      41.661 -15.397   3.779  1.00  0.00    -0.030 A 
HETATM   18  C   UNL     1      42.625 -14.696   3.026  1.00  0.00     0.012 A 
HETATM   19  C   UNL     1      42.413 -14.416   1.674  1.00  0.00     0.037 A 
HETATM   20  C   UNL     1      41.236 -14.835   1.067  1.00  0.00     0.065 A 
HETATM   21  C   UNL     1      40.277 -15.537   1.784  1.00  0.00     0.037 A 
HETATM   22  C   UNL     1      40.484 -15.812   3.137  1.00  0.00     0.012 A 
BRANCH  20  23
HETATM   23  O   UNL     1      40.976 -14.562  -0.242  1.00  0.00    -0.361 OA
HETATM   24  H   UNL     1      40.651 -13.650  -0.320  1.00  0.00     0.217 HD
ENDBRANCH  20  23
ENDBRANCH   6  17
BRANCH   1  25
HETATM   25  C   UNL     1      42.943 -17.913   5.061  1.00  0.00     0.155 C 
BRANCH  25  26
HETATM   26  C   UNL     1      43.896 -18.016   3.851  1.00  0.00     0.254 C 
BRANCH  26  27
HETATM   27  N   UNL     1      44.276 -19.457   3.543  1.00  0.00    -0.077 N 
HETATM   28  C   UNL     1      43.498 -20.062   2.408  1.00  0.00     0.269 C 
HETATM   29  H   UNL     1      45.270 -19.456   3.276  1.00  0.00     0.279 HD
HETATM   30  C   UNL     1      44.187 -20.314   4.780  1.00  0.00     0.269 C 
ENDBRANCH  26  27
ENDBRANCH  25  26
ENDBRANCH   1  25
TORSDOF 5
ENDMDL
MODEL 7
REMARK VINA RESULT:      -7.9      3.102      5.714
REMARK  5 active torsions:
REMARK  status: ('A' for Active; 'I' for Inactive)
REMARK    1  A    between atoms: N_2  and  C_4 
REMARK    2  A    between atoms: C_4  and  C_5 
REMARK    3  A    between atoms: C_5  and  N_6 
REMARK    4  A    between atoms: C_11  and  C_12 
REMARK    5  A    between atoms: C_15  and  O_16 
ROOT
HETATM    1  N   UNL     1      42.897 -12.710   5.447  1.00  0.00    -0.332 N 
HETATM    2  C   UNL     1      43.075 -13.867   6.201  1.00  0.00     0.279 C 
HETATM    3  O   UNL     1      43.053 -13.935   7.417  1.00  0.00    -0.265 OA
HETATM    4  C   UNL     1      43.288 -14.971   5.253  1.00  0.00     0.156 C 
HETATM    5  C   UNL     1      43.159 -14.447   4.036  1.00  0.00     0.060 C 
HETATM    6  C   UNL     1      42.785 -13.013   4.021  1.00  0.00     0.161 C 
HETATM    7  O   UNL     1      43.522 -16.278   5.575  1.00  0.00    -0.303 OA
HETATM    8  C   UNL     1      43.525 -17.162   4.514  1.00  0.00     0.090 A 
HETATM    9  C   UNL     1      43.441 -16.747   3.173  1.00  0.00     0.051 A 
HETATM   10  C   UNL     1      43.330 -15.303   2.872  1.00  0.00     0.196 C 
HETATM   11  O   UNL     1      43.378 -14.847   1.741  1.00  0.00    -0.287 OA
HETATM   12  C   UNL     1      43.601 -18.521   4.818  1.00  0.00     0.041 A 
HETATM   13  C   UNL     1      43.582 -19.458   3.782  1.00  0.00     0.045 A 
HETATM   14  C   UNL     1      43.498 -19.030   2.457  1.00  0.00     0.117 A 
HETATM   15  F   UNL     1      43.472 -19.939   1.476  1.00  0.00    -0.206 F 
HETATM   16  C   UNL     1      43.433 -17.680   2.138  1.00  0.00     0.060 A 
ENDROOT
BRANCH   6  17
HETATM   17  C   UNL     1      41.391 -12.792   3.460  1.00  0.00    -0.030 A 
HETATM   18  C   UNL     1      40.328 -13.680   3.723  1.00  0.00     0.012 A 
HETATM   19  C   UNL     1      39.084 -13.509   3.110  1.00  0.00     0.037 A 
HETATM   20  C   UNL     1      38.895 -12.449   2.233  1.00  0.00     0.065 A 
HETATM   21  C   UNL     1      39.923 -11.554   1.968  1.00  0.00     0.037 A 
HETATM   22  C   UNL     1      41.169 -11.727   2.573  1.00  0.00     0.012 A 
BRANCH  20  23
HETATM   23  O   UNL     1      37.708 -12.258   1.594  1.00  0.00    -0.361 OA
HETATM   24  H   UNL     1      37.541 -11.306   1.508  1.00  0.00     0.217 HD
ENDBRANCH  20  23
ENDBRANCH   6  17
BRANCH   1  25
HETATM   25  C   UNL     1      42.486 -11.442   6.029  1.00  0.00     0.155 C 
BRANCH  25  26
HETATM   26  C   UNL     1      43.591 -10.762   6.865  1.00  0.00     0.254 C 
BRANCH  26  27
HETATM   27  N   UNL     1      43.079 -10.297   8.220  1.00  0.00    -0.077 N 
HETATM   28  C   UNL     1      42.635  -8.862   8.245  1.00  0.00     0.269 C 
HETATM   29  H   UNL     1      42.263 -10.882   8.450  1.00  0.00     0.279 HD
HETATM   30  C   UNL     1      44.094 -10.571   9.302  1.00  0.00     0.269 C 
ENDBRANCH  26  27
ENDBRANCH  25  26
ENDBRANCH   1  25
TORSDOF 5
ENDMDL
MODEL 8
REMARK VINA RESULT:      -7.7      3.823      6.366
REMARK  5 active torsions:
REMARK  status: ('A' for Active; 'I' for Inactive)
REMARK    1  A    between atoms: N_2  and  C_4 
REMARK    2  A    between atoms: C_4  and  C_5 
REMARK    3  A    between atoms: C_5  and  N_6 
REMARK    4  A    between atoms: C_11  and  C_12 
REMARK    5  A    between atoms: C_15  and  O_16 
ROOT
HETATM    1  N   UNL     1      39.990 -11.879   1.060  1.00  0.00    -0.332 N 
HETATM    2  C   UNL     1      41.258 -11.305   1.089  1.00  0.00     0.279 C 
HETATM    3  O   UNL     1      42.177 -11.643   1.813  1.00  0.00    -0.265 OA
HETATM    4  C   UNL     1      41.268 -10.231   0.083  1.00  0.00     0.156 C 
HETATM    5  C   UNL     1      40.079 -10.270  -0.514  1.00  0.00     0.060 C 
HETATM    6  C   UNL     1      39.197 -11.370  -0.059  1.00  0.00     0.161 C 
HETATM    7  O   UNL     1      42.315  -9.401  -0.200  1.00  0.00    -0.303 OA
HETATM    8  C   UNL     1      42.145  -8.579  -1.297  1.00  0.00     0.090 A 
HETATM    9  C   UNL     1      40.930  -8.484  -1.999  1.00  0.00     0.051 A 
HETATM   10  C   UNL     1      39.779  -9.304  -1.562  1.00  0.00     0.196 C 
HETATM   11  O   UNL     1      38.658  -9.194  -2.031  1.00  0.00    -0.287 OA
HETATM   12  C   UNL     1      43.248  -7.835  -1.714  1.00  0.00     0.041 A 
HETATM   13  C   UNL     1      43.135  -7.008  -2.834  1.00  0.00     0.045 A 
HETATM   14  C   UNL     1      41.923  -6.925  -3.519  1.00  0.00     0.117 A 
HETATM   15  F   UNL     1      41.832  -6.135  -4.595  1.00  0.00    -0.206 F 
HETATM   16  C   UNL     1      40.813  -7.651  -3.110  1.00  0.00     0.060 A 
ENDROOT
BRANCH   6  17
HETATM   17  C   UNL     1      38.957 -12.397  -1.151  1.00  0.00    -0.030 A 
HETATM   18  C   UNL     1      40.011 -13.118  -1.747  1.00  0.00     0.012 A 
HETATM   19  C   UNL     1      39.772 -13.980  -2.821  1.00  0.00     0.037 A 
HETATM   20  C   UNL     1      38.478 -14.128  -3.302  1.00  0.00     0.065 A 
HETATM   21  C   UNL     1      37.421 -13.438  -2.724  1.00  0.00     0.037 A 
HETATM   22  C   UNL     1      37.659 -12.571  -1.656  1.00  0.00     0.012 A 
BRANCH  20  23
HETATM   23  O   UNL     1      38.202 -14.938  -4.362  1.00  0.00    -0.361 OA
HETATM   24  H   UNL     1      37.427 -14.593  -4.835  1.00  0.00     0.217 HD
ENDBRANCH  20  23
ENDBRANCH   6  17
BRANCH   1  25
HETATM   25  C   UNL     1      39.653 -13.090   1.791  1.00  0.00     0.155 C 
BRANCH  25  26
HETATM   26  C   UNL     1      39.118 -12.821   3.213  1.00  0.00     0.254 C 
BRANCH  26  27
HETATM   27  N   UNL     1      39.740 -13.751   4.245  1.00  0.00    -0.077 N 
HETATM   28  C   UNL     1      40.074 -13.080   5.547  1.00  0.00     0.269 C 
HETATM   29  H   UNL     1      39.050 -14.489   4.440  1.00  0.00     0.279 HD
HETATM   30  C   UNL     1      40.943 -14.459   3.674  1.00  0.00     0.269 C 
ENDBRANCH  26  27
ENDBRANCH  25  26
ENDBRANCH   1  25
TORSDOF 5
ENDMDL
MODEL 9
REMARK VINA RESULT:      -7.7      3.132      6.025
REMARK  5 active torsions:
REMARK  status: ('A' for Active; 'I' for Inactive)
REMARK    1  A    between atoms: N_2  and  C_4 
REMARK    2  A    between atoms: C_4  and  C_5 
REMARK    3  A    between atoms: C_5  and  N_6 
REMARK    4  A    between atoms: C_11  and  C_12 
REMARK    5  A    between atoms: C_15  and  O_16 
ROOT
HETATM    1  N   UNL     1      41.287 -12.219   3.131  1.00  0.00    -0.332 N 
HETATM    2  C   UNL     1      41.175 -12.794   4.394  1.00  0.00     0.279 C 
HETATM    3  O   UNL     1      40.544 -12.339   5.331  1.00  0.00    -0.265 OA
HETATM    4  C   UNL     1      41.956 -14.041   4.369  1.00  0.00     0.156 C 
HETATM    5  C   UNL     1      42.411 -14.170   3.125  1.00  0.00     0.060 C 
HETATM    6  C   UNL     1      41.950 -13.119   2.188  1.00  0.00     0.161 C 
HETATM    7  O   UNL     1      42.129 -14.905   5.413  1.00  0.00    -0.303 OA
HETATM    8  C   UNL     1      42.765 -16.091   5.105  1.00  0.00     0.090 A 
HETATM    9  C   UNL     1      43.333 -16.349   3.845  1.00  0.00     0.051 A 
HETATM   10  C   UNL     1      43.241 -15.318   2.788  1.00  0.00     0.196 C 
HETATM   11  O   UNL     1      43.810 -15.405   1.713  1.00  0.00    -0.287 OA
HETATM   12  C   UNL     1      42.817 -17.063   6.103  1.00  0.00     0.041 A 
HETATM   13  C   UNL     1      43.428 -18.291   5.834  1.00  0.00     0.045 A 
HETATM   14  C   UNL     1      43.986 -18.531   4.579  1.00  0.00     0.117 A 
HETATM   15  F   UNL     1      44.560 -19.715   4.334  1.00  0.00    -0.206 F 
HETATM   16  C   UNL     1      43.952 -17.570   3.579  1.00  0.00     0.060 A 
ENDROOT
BRANCH   6  17
HETATM   17  C   UNL     1      41.022 -13.673   1.121  1.00  0.00    -0.030 A 
HETATM   18  C   UNL     1      40.347 -14.900   1.278  1.00  0.00     0.012 A 
HETATM   19  C   UNL     1      39.582 -15.435   0.238  1.00  0.00     0.037 A 
HETATM   20  C   UNL     1      39.486 -14.745  -0.963  1.00  0.00     0.065 A 
HETATM   21  C   UNL     1      40.131 -13.528  -1.137  1.00  0.00     0.037 A 
HETATM   22  C   UNL     1      40.902 -12.995  -0.103  1.00  0.00     0.012 A 
BRANCH  20  23
HETATM   23  O   UNL     1      38.773 -15.240  -2.013  1.00  0.00    -0.361 OA
HETATM   24  H   UNL     1      39.311 -15.187  -2.819  1.00  0.00     0.217 HD
ENDBRANCH  20  23
ENDBRANCH   6  17
BRANCH   1  25
HETATM   25  C   UNL     1      40.505 -11.063   2.716  1.00  0.00     0.155 C 
BRANCH  25  26
HETATM   26  C   UNL     1      41.111  -9.718   3.168  1.00  0.00     0.254 C 
BRANCH  26  27
HETATM   27  N   UNL     1      40.155  -8.928   4.050  1.00  0.00    -0.077 N 
HETATM   28  C   UNL     1      40.646  -8.729   5.457  1.00  0.00     0.269 C 
HETATM   29  H   UNL     1      40.048  -7.998   3.621  1.00  0.00     0.279 HD
HETATM   30  C   UNL     1      38.778  -9.543   4.038  1.00  0.00     0.269 C 
ENDBRANCH  26  27
ENDBRANCH  25  26
ENDBRANCH   1  25
TORSDOF 5
ENDMDL
MODEL 10
REMARK VINA RESULT:      -7.4     15.626     17.787
REMARK  5 active torsions:
REMARK  status: ('A' for Active; 'I' for Inactive)
REMARK    1  A    between atoms: N_2  and  C_4 
REMARK    2  A    between atoms: C_4  and  C_5 
REMARK    3  A    between atoms: C_5  and  N_6 
REMARK    4  A    between atoms: C_11  and  C_12 
REMARK    5  A    between atoms: C_15  and  O_16 
ROOT
HETATM    1  N   UNL     1      48.490 -29.844   1.601  1.00  0.00    -0.332 N 
HETATM    2  C   UNL     1      47.736 -28.747   1.194  1.00  0.00     0.279 C 
HETATM    3  O   UNL     1      47.670 -27.675   1.767  1.00  0.00    -0.265 OA
HETATM    4  C   UNL     1      47.049 -29.134  -0.049  1.00  0.00     0.156 C 
HETATM    5  C   UNL     1      47.471 -30.362  -0.340  1.00  0.00     0.060 C 
HETATM    6  C   UNL     1      48.500 -30.895   0.584  1.00  0.00     0.161 C 
HETATM    7  O   UNL     1      46.190 -28.356  -0.772  1.00  0.00    -0.303 OA
HETATM    8  C   UNL     1      45.798 -28.874  -1.991  1.00  0.00     0.090 A 
HETATM    9  C   UNL     1      46.133 -30.174  -2.411  1.00  0.00     0.051 A 
HETATM   10  C   UNL     1      46.950 -31.030  -1.525  1.00  0.00     0.196 C 
HETATM   11  O   UNL     1      47.181 -32.206  -1.752  1.00  0.00    -0.287 OA
HETATM   12  C   UNL     1      45.053 -28.043  -2.826  1.00  0.00     0.041 A 
HETATM   13  C   UNL     1      44.654 -28.511  -4.080  1.00  0.00     0.045 A 
HETATM   14  C   UNL     1      44.994 -29.802  -4.483  1.00  0.00     0.117 A 
HETATM   15  F   UNL     1      44.611 -30.234  -5.691  1.00  0.00    -0.206 F 
HETATM   16  C   UNL     1      45.726 -30.645  -3.658  1.00  0.00     0.060 A 
ENDROOT
BRANCH   6  17
HETATM   17  C   UNL     1      49.845 -31.067  -0.100  1.00  0.00    -0.030 A 
HETATM   18  C   UNL     1      50.217 -30.305  -1.226  1.00  0.00     0.012 A 
HETATM   19  C   UNL     1      51.417 -30.557  -1.897  1.00  0.00     0.037 A 
HETATM   20  C   UNL     1      52.252 -31.570  -1.444  1.00  0.00     0.065 A 
HETATM   21  C   UNL     1      51.914 -32.325  -0.329  1.00  0.00     0.037 A 
HETATM   22  C   UNL     1      50.712 -32.081   0.338  1.00  0.00     0.012 A 
BRANCH  20  23
HETATM   23  O   UNL     1      53.419 -31.867  -2.081  1.00  0.00    -0.361 OA
HETATM   24  H   UNL     1      53.585 -31.203  -2.770  1.00  0.00     0.217 HD
ENDBRANCH  20  23
ENDBRANCH   6  17
BRANCH   1  25
HETATM   25  C   UNL     1      49.446 -29.784   2.696  1.00  0.00     0.155 C 
BRANCH  25  26
HETATM   26  C   UNL     1      48.842 -30.177   4.061  1.00  0.00     0.254 C 
BRANCH  26  27
HETATM   27  N   UNL     1      49.629 -31.293   4.734  1.00  0.00    -0.077 N 
HETATM   28  C   UNL     1      51.056 -30.934   5.038  1.00  0.00     0.269 C 
HETATM   29  H   UNL     1      49.159 -31.495   5.628  1.00  0.00     0.279 HD
HETATM   30  C   UNL     1      49.547 -32.568   3.933  1.00  0.00     0.269 C 
ENDBRANCH  26  27
ENDBRANCH  25  26
ENDBRANCH   1  25
TORSDOF 5
ENDMDL
