MODEL 1
REMARK VINA RESULT:      -9.6      0.000      0.000
REMARK  6 active torsions:
REMARK  status: ('A' for Active; 'I' for Inactive)
REMARK    1  A    between atoms: C_5  and  C_6 
REMARK    2  A    between atoms: C_11  and  C_12 
REMARK       I    between atoms: C_12  and  N_13 
REMARK    3  A    between atoms: N_13  and  C_14 
REMARK    4  A    between atoms: C_16  and  C_17 
REMARK    5  A    between atoms: C_17  and  O_18 
REMARK    6  A    between atoms: C_25  and  C_26 
ROOT
HETATM    1  C   UNL     1      39.795 -15.062   1.984  1.00  0.00     0.118 C 
HETATM    2  N   UNL     1      39.806 -14.299   3.228  1.00  0.00    -0.366 N 
HETATM    3  C   UNL     1      40.858 -14.331   4.072  1.00  0.00     0.123 A 
HETATM    4  N   UNL     1      41.876 -15.231   3.926  1.00  0.00    -0.240 N 
HETATM    5  N   UNL     1      42.807 -15.162   4.898  1.00  0.00    -0.165 NA
HETATM    6  C   UNL     1      42.417 -14.092   5.631  1.00  0.00     0.148 A 
HETATM    7  C   UNL     1      41.185 -13.566   5.159  1.00  0.00     0.089 A 
HETATM    8  C   UNL     1      41.965 -16.195   2.847  1.00  0.00     0.221 C 
HETATM    9  C   UNL     1      40.604 -16.362   2.144  1.00  0.00     0.066 C 
HETATM   10  H   UNL     1      39.148 -13.520   3.255  1.00  0.00     0.161 HD
ENDROOT
BRANCH   6  11
HETATM   11  C   UNL     1      43.213 -13.571   6.757  1.00  0.00     0.276 C 
HETATM   12  N   UNL     1      43.595 -12.258   6.562  1.00  0.00    -0.322 N 
HETATM   13  H   UNL     1      43.330 -11.886   5.653  1.00  0.00     0.169 HD
HETATM   14  O   UNL     1      43.478 -14.274   7.726  1.00  0.00    -0.266 OA
BRANCH  12  15
HETATM   15  C   UNL     1      44.280 -11.414   7.451  1.00  0.00     0.035 A 
HETATM   16  C   UNL     1      43.806 -11.086   8.724  1.00  0.00     0.039 A 
HETATM   17  C   UNL     1      44.517 -10.211   9.568  1.00  0.00    -0.028 A 
HETATM   18  C   UNL     1      45.735  -9.688   9.115  1.00  0.00     0.010 A 
HETATM   19  C   UNL     1      46.216 -10.008   7.846  1.00  0.00     0.003 A 
HETATM   20  C   UNL     1      45.488 -10.860   7.015  1.00  0.00     0.029 A 
BRANCH  17  21
HETATM   21  C   UNL     1      43.949  -9.873  10.929  1.00  0.00     0.147 C 
HETATM   22  C   UNL     1      43.508  -8.417  11.013  1.00  0.00     0.044 C 
BRANCH  21  23
HETATM   23  O   UNL     1      42.833 -10.710  11.233  1.00  0.00    -0.391 OA
HETATM   24  H   UNL     1      42.628 -10.574  12.173  1.00  0.00     0.210 HD
ENDBRANCH  21  23
ENDBRANCH  17  21
ENDBRANCH  12  15
ENDBRANCH   6  11
BRANCH   8  25
HETATM   25  C   UNL     1      43.096 -15.830   1.909  1.00  0.00     0.409 C 
HETATM   26  F   UNL     1      43.510 -14.556   2.021  1.00  0.00    -0.169 F 
HETATM   27  F   UNL     1      44.177 -16.623   2.093  1.00  0.00    -0.169 F 
HETATM   28  F   UNL     1      42.711 -16.017   0.620  1.00  0.00    -0.169 F 
ENDBRANCH   8  25
BRANCH   1  29
HETATM   29  C   UNL     1      40.147 -14.220   0.771  1.00  0.00    -0.035 A 
HETATM   30  C   UNL     1      40.767 -12.964   0.863  1.00  0.00     0.010 A 
HETATM   31  C   UNL     1      41.051 -12.212  -0.280  1.00  0.00     0.007 A 
HETATM   32  C   UNL     1      40.707 -12.689  -1.547  1.00  0.00    -0.062 A 
HETATM   33  C   UNL     1      41.012 -11.891  -2.779  1.00  0.00     0.048 C 
HETATM   34  C   UNL     1      40.088 -13.937  -1.653  1.00  0.00     0.007 A 
HETATM   35  C   UNL     1      39.812 -14.693  -0.508  1.00  0.00     0.010 A 
ENDBRANCH   1  29
TORSDOF 6
ENDMDL
MODEL 2
REMARK VINA RESULT:      -9.6      3.035      4.521
REMARK  6 active torsions:
REMARK  status: ('A' for Active; 'I' for Inactive)
REMARK    1  A    between atoms: C_5  and  C_6 
REMARK    2  A    between atoms: C_11  and  C_12 
REMARK       I    between atoms: C_12  and  N_13 
REMARK    3  A    between atoms: N_13  and  C_14 
REMARK    4  A    between atoms: C_16  and  C_17 
REMARK    5  A    between atoms: C_17  and  O_18 
REMARK    6  A    between atoms: C_25  and  C_26 
ROOT
HETATM    1  C   UNL     1      42.163 -15.025   2.786  1.00  0.00     0.118 C 
HETATM    2  N   UNL     1      43.119 -14.010   3.219  1.00  0.00    -0.366 N 
HETATM    3  C   UNL     1      43.004 -13.389   4.411  1.00  0.00     0.123 A 
HETATM    4  N   UNL     1      41.885 -13.511   5.186  1.00  0.00    -0.240 N 
HETATM    5  N   UNL     1      41.918 -12.767   6.310  1.00  0.00    -0.165 NA
HETATM    6  C   UNL     1      43.164 -12.238   6.299  1.00  0.00     0.148 A 
HETATM    7  C   UNL     1      43.861 -12.583   5.111  1.00  0.00     0.089 A 
HETATM    8  C   UNL     1      40.745 -14.341   4.850  1.00  0.00     0.221 C 
HETATM    9  C   UNL     1      40.765 -14.726   3.358  1.00  0.00     0.066 C 
HETATM   10  H   UNL     1      44.018 -14.041   2.739  1.00  0.00     0.161 HD
ENDROOT
BRANCH   6  11
HETATM   11  C   UNL     1      43.688 -11.426   7.412  1.00  0.00     0.276 C 
HETATM   12  N   UNL     1      42.780 -10.477   7.839  1.00  0.00    -0.322 N 
HETATM   13  H   UNL     1      41.931 -10.443   7.280  1.00  0.00     0.169 HD
HETATM   14  O   UNL     1      44.815 -11.614   7.859  1.00  0.00    -0.266 OA
BRANCH  12  15
HETATM   15  C   UNL     1      42.897  -9.591   8.923  1.00  0.00     0.035 A 
HETATM   16  C   UNL     1      42.738  -9.978  10.257  1.00  0.00     0.039 A 
HETATM   17  C   UNL     1      42.836  -9.046  11.307  1.00  0.00    -0.028 A 
HETATM   18  C   UNL     1      43.125  -7.712  10.993  1.00  0.00     0.010 A 
HETATM   19  C   UNL     1      43.285  -7.316   9.665  1.00  0.00     0.003 A 
HETATM   20  C   UNL     1      43.163  -8.249   8.636  1.00  0.00     0.029 A 
BRANCH  17  21
HETATM   21  C   UNL     1      42.635  -9.515  12.732  1.00  0.00     0.147 C 
HETATM   22  C   UNL     1      42.464  -8.345  13.694  1.00  0.00     0.044 C 
BRANCH  21  23
HETATM   23  O   UNL     1      41.490 -10.362  12.829  1.00  0.00    -0.391 OA
HETATM   24  H   UNL     1      41.753 -11.130  13.363  1.00  0.00     0.210 HD
ENDBRANCH  21  23
ENDBRANCH  17  21
ENDBRANCH  12  15
ENDBRANCH   6  11
BRANCH   8  25
HETATM   25  C   UNL     1      40.665 -15.528   5.785  1.00  0.00     0.409 C 
HETATM   26  F   UNL     1      41.824 -15.817   6.403  1.00  0.00    -0.169 F 
HETATM   27  F   UNL     1      39.729 -15.348   6.746  1.00  0.00    -0.169 F 
HETATM   28  F   UNL     1      40.288 -16.638   5.099  1.00  0.00    -0.169 F 
ENDBRANCH   8  25
BRANCH   1  29
HETATM   29  C   UNL     1      42.666 -16.441   3.002  1.00  0.00    -0.035 A 
HETATM   30  C   UNL     1      43.583 -16.784   4.008  1.00  0.00     0.010 A 
HETATM   31  C   UNL     1      44.038 -18.097   4.155  1.00  0.00     0.007 A 
HETATM   32  C   UNL     1      43.600 -19.101   3.289  1.00  0.00    -0.062 A 
HETATM   33  C   UNL     1      44.079 -20.514   3.443  1.00  0.00     0.048 C 
HETATM   34  C   UNL     1      42.687 -18.774   2.283  1.00  0.00     0.007 A 
HETATM   35  C   UNL     1      42.227 -17.460   2.142  1.00  0.00     0.010 A 
ENDBRANCH   1  29
TORSDOF 6
ENDMDL
MODEL 3
REMARK VINA RESULT:      -9.2      5.269      7.397
REMARK  6 active torsions:
REMARK  status: ('A' for Active; 'I' for Inactive)
REMARK    1  A    between atoms: C_5  and  C_6 
REMARK    2  A    between atoms: C_11  and  C_12 
REMARK       I    between atoms: C_12  and  N_13 
REMARK    3  A    between atoms: N_13  and  C_14 
REMARK    4  A    between atoms: C_16  and  C_17 
REMARK    5  A    between atoms: C_17  and  O_18 
REMARK    6  A    between atoms: C_25  and  C_26 
ROOT
HETATM    1  C   UNL     1      38.836 -10.458  -1.078  1.00  0.00     0.118 C 
HETATM    2  N   UNL     1      38.865 -11.053   0.255  1.00  0.00    -0.366 N 
HETATM    3  C   UNL     1      39.272 -12.324   0.456  1.00  0.00     0.123 A 
HETATM    4  N   UNL     1      39.476 -13.192  -0.579  1.00  0.00    -0.240 N 
HETATM    5  N   UNL     1      39.814 -14.437  -0.187  1.00  0.00    -0.165 NA
HETATM    6  C   UNL     1      39.938 -14.320   1.156  1.00  0.00     0.148 A 
HETATM    7  C   UNL     1      39.578 -13.018   1.596  1.00  0.00     0.089 A 
HETATM    8  C   UNL     1      39.333 -12.842  -1.978  1.00  0.00     0.221 C 
HETATM    9  C   UNL     1      38.537 -11.532  -2.140  1.00  0.00     0.066 C 
HETATM   10  H   UNL     1      38.880 -10.381   1.021  1.00  0.00     0.161 HD
ENDROOT
BRANCH   6  11
HETATM   11  C   UNL     1      40.406 -15.428   2.007  1.00  0.00     0.276 C 
HETATM   12  N   UNL     1      41.769 -15.624   1.906  1.00  0.00    -0.322 N 
HETATM   13  H   UNL     1      42.219 -15.026   1.216  1.00  0.00     0.169 HD
HETATM   14  O   UNL     1      39.624 -16.071   2.699  1.00  0.00    -0.266 OA
BRANCH  12  15
HETATM   15  C   UNL     1      42.572 -16.523   2.628  1.00  0.00     0.035 A 
HETATM   16  C   UNL     1      42.821 -17.836   2.218  1.00  0.00     0.039 A 
HETATM   17  C   UNL     1      43.609 -18.708   2.993  1.00  0.00    -0.028 A 
HETATM   18  C   UNL     1      44.168 -18.227   4.183  1.00  0.00     0.010 A 
HETATM   19  C   UNL     1      43.925 -16.918   4.601  1.00  0.00     0.003 A 
HETATM   20  C   UNL     1      43.124 -16.075   3.831  1.00  0.00     0.029 A 
BRANCH  17  21
HETATM   21  C   UNL     1      43.830 -20.127   2.512  1.00  0.00     0.147 C 
HETATM   22  C   UNL     1      43.913 -21.111   3.673  1.00  0.00     0.044 C 
BRANCH  21  23
HETATM   23  O   UNL     1      42.779 -20.534   1.636  1.00  0.00    -0.391 OA
HETATM   24  H   UNL     1      43.153 -21.206   1.043  1.00  0.00     0.210 HD
ENDBRANCH  21  23
ENDBRANCH  17  21
ENDBRANCH  12  15
ENDBRANCH   6  11
BRANCH   8  25
HETATM   25  C   UNL     1      40.687 -12.821  -2.656  1.00  0.00     0.409 C 
HETATM   26  F   UNL     1      41.686 -12.389  -1.867  1.00  0.00    -0.169 F 
HETATM   27  F   UNL     1      41.036 -14.045  -3.117  1.00  0.00    -0.169 F 
HETATM   28  F   UNL     1      40.652 -12.007  -3.743  1.00  0.00    -0.169 F 
ENDBRANCH   8  25
BRANCH   1  29
HETATM   29  C   UNL     1      40.044  -9.582  -1.360  1.00  0.00    -0.035 A 
HETATM   30  C   UNL     1      41.071  -9.368  -0.427  1.00  0.00     0.010 A 
HETATM   31  C   UNL     1      42.152  -8.533  -0.720  1.00  0.00     0.007 A 
HETATM   32  C   UNL     1      42.227  -7.875  -1.951  1.00  0.00    -0.062 A 
HETATM   33  C   UNL     1      43.386  -6.981  -2.276  1.00  0.00     0.048 C 
HETATM   34  C   UNL     1      41.212  -8.079  -2.888  1.00  0.00     0.007 A 
HETATM   35  C   UNL     1      40.134  -8.921  -2.596  1.00  0.00     0.010 A 
ENDBRANCH   1  29
TORSDOF 6
ENDMDL
MODEL 4
REMARK VINA RESULT:      -9.1      3.925      9.725
REMARK  6 active torsions:
REMARK  status: ('A' for Active; 'I' for Inactive)
REMARK    1  A    between atoms: C_5  and  C_6 
REMARK    2  A    between atoms: C_11  and  C_12 
REMARK       I    between atoms: C_12  and  N_13 
REMARK    3  A    between atoms: N_13  and  C_14 
REMARK    4  A    between atoms: C_16  and  C_17 
REMARK    5  A    between atoms: C_17  and  O_18 
REMARK    6  A    between atoms: C_25  and  C_26 
ROOT
HETATM    1  C   UNL     1      42.418  -7.808   8.893  1.00  0.00     0.118 C 
HETATM    2  N   UNL     1      41.496  -8.529   8.021  1.00  0.00    -0.366 N 
HETATM    3  C   UNL     1      41.871  -9.641   7.355  1.00  0.00     0.123 A 
HETATM    4  N   UNL     1      43.177 -10.037   7.285  1.00  0.00    -0.240 N 
HETATM    5  N   UNL     1      43.374 -11.131   6.522  1.00  0.00    -0.165 NA
HETATM    6  C   UNL     1      42.118 -11.509   6.186  1.00  0.00     0.148 A 
HETATM    7  C   UNL     1      41.155 -10.582   6.666  1.00  0.00     0.089 A 
HETATM    8  C   UNL     1      44.274  -9.355   7.944  1.00  0.00     0.221 C 
HETATM    9  C   UNL     1      43.861  -7.933   8.371  1.00  0.00     0.066 C 
HETATM   10  H   UNL     1      40.509  -8.345   8.200  1.00  0.00     0.161 HD
ENDROOT
BRANCH   6  11
HETATM   11  C   UNL     1      41.838 -12.742   5.430  1.00  0.00     0.276 C 
HETATM   12  N   UNL     1      42.869 -13.074   4.573  1.00  0.00    -0.322 N 
HETATM   13  H   UNL     1      43.618 -12.386   4.548  1.00  0.00     0.169 HD
HETATM   14  O   UNL     1      40.788 -13.356   5.583  1.00  0.00    -0.266 OA
BRANCH  12  15
HETATM   15  C   UNL     1      42.991 -14.217   3.765  1.00  0.00     0.035 A 
HETATM   16  C   UNL     1      43.145 -15.509   4.275  1.00  0.00     0.039 A 
HETATM   17  C   UNL     1      43.293 -16.620   3.423  1.00  0.00    -0.028 A 
HETATM   18  C   UNL     1      43.257 -16.412   2.039  1.00  0.00     0.010 A 
HETATM   19  C   UNL     1      43.104 -15.126   1.520  1.00  0.00     0.003 A 
HETATM   20  C   UNL     1      42.981 -14.034   2.379  1.00  0.00     0.029 A 
BRANCH  17  21
HETATM   21  C   UNL     1      43.477 -17.995   4.029  1.00  0.00     0.147 C 
HETATM   22  C   UNL     1      43.782 -19.045   2.967  1.00  0.00     0.044 C 
BRANCH  21  23
HETATM   23  O   UNL     1      44.535 -17.989   4.987  1.00  0.00    -0.391 OA
HETATM   24  H   UNL     1      44.832 -17.068   5.072  1.00  0.00     0.210 HD
ENDBRANCH  21  23
ENDBRANCH  17  21
ENDBRANCH  12  15
ENDBRANCH   6  11
BRANCH   8  25
HETATM   25  C   UNL     1      44.812 -10.201   9.078  1.00  0.00     0.409 C 
HETATM   26  F   UNL     1      43.873 -10.915   9.722  1.00  0.00    -0.169 F 
HETATM   27  F   UNL     1      45.759 -11.070   8.651  1.00  0.00    -0.169 F 
HETATM   28  F   UNL     1      45.420  -9.411  10.001  1.00  0.00    -0.169 F 
ENDBRANCH   8  25
BRANCH   1  29
HETATM   29  C   UNL     1      42.225  -8.141  10.362  1.00  0.00    -0.035 A 
HETATM   30  C   UNL     1      41.138  -8.887  10.843  1.00  0.00     0.010 A 
HETATM   31  C   UNL     1      40.987  -9.150  12.207  1.00  0.00     0.007 A 
HETATM   32  C   UNL     1      41.913  -8.658  13.130  1.00  0.00    -0.062 A 
HETATM   33  C   UNL     1      41.762  -8.939  14.595  1.00  0.00     0.048 C 
HETATM   34  C   UNL     1      42.999  -7.914  12.665  1.00  0.00     0.007 A 
HETATM   35  C   UNL     1      43.153  -7.658  11.299  1.00  0.00     0.010 A 
ENDBRANCH   1  29
TORSDOF 6
ENDMDL
MODEL 5
REMARK VINA RESULT:      -9.1      5.136      9.015
REMARK  6 active torsions:
REMARK  status: ('A' for Active; 'I' for Inactive)
REMARK    1  A    between atoms: C_5  and  C_6 
REMARK    2  A    between atoms: C_11  and  C_12 
REMARK       I    between atoms: C_12  and  N_13 
REMARK    3  A    between atoms: N_13  and  C_14 
REMARK    4  A    between atoms: C_16  and  C_17 
REMARK    5  A    between atoms: C_17  and  O_18 
REMARK    6  A    between atoms: C_25  and  C_26 
ROOT
HETATM    1  C   UNL     1      40.238 -15.135   3.057  1.00  0.00     0.118 C 
HETATM    2  N   UNL     1      39.819 -14.998   1.666  1.00  0.00    -0.366 N 
HETATM    3  C   UNL     1      40.222 -13.961   0.902  1.00  0.00     0.123 A 
HETATM    4  N   UNL     1      40.864 -12.878   1.432  1.00  0.00    -0.240 N 
HETATM    5  N   UNL     1      41.132 -11.910   0.533  1.00  0.00    -0.165 NA
HETATM    6  C   UNL     1      40.741 -12.457  -0.642  1.00  0.00     0.148 A 
HETATM    7  C   UNL     1      40.140 -13.728  -0.445  1.00  0.00     0.089 A 
HETATM    8  C   UNL     1      41.221 -12.744   2.831  1.00  0.00     0.221 C 
HETATM    9  C   UNL     1      40.440 -13.750   3.698  1.00  0.00     0.066 C 
HETATM   10  H   UNL     1      39.495 -15.862   1.231  1.00  0.00     0.161 HD
ENDROOT
BRANCH   6  11
HETATM   11  C   UNL     1      40.948 -11.783  -1.937  1.00  0.00     0.276 C 
HETATM   12  N   UNL     1      40.525 -10.469  -1.915  1.00  0.00    -0.322 N 
HETATM   13  H   UNL     1      40.078 -10.197  -1.042  1.00  0.00     0.169 HD
HETATM   14  O   UNL     1      41.439 -12.379  -2.890  1.00  0.00    -0.266 OA
BRANCH  12  15
HETATM   15  C   UNL     1      40.643  -9.504  -2.929  1.00  0.00     0.035 A 
HETATM   16  C   UNL     1      41.584  -8.471  -2.905  1.00  0.00     0.039 A 
HETATM   17  C   UNL     1      41.644  -7.510  -3.932  1.00  0.00    -0.028 A 
HETATM   18  C   UNL     1      40.750  -7.621  -5.005  1.00  0.00     0.010 A 
HETATM   19  C   UNL     1      39.807  -8.648  -5.038  1.00  0.00     0.003 A 
HETATM   20  C   UNL     1      39.749  -9.579  -4.001  1.00  0.00     0.029 A 
BRANCH  17  21
HETATM   21  C   UNL     1      42.669  -6.399  -3.846  1.00  0.00     0.147 C 
HETATM   22  C   UNL     1      43.419  -6.424  -2.520  1.00  0.00     0.044 C 
BRANCH  21  23
HETATM   23  O   UNL     1      43.613  -6.499  -4.911  1.00  0.00    -0.391 OA
HETATM   24  H   UNL     1      43.693  -5.612  -5.300  1.00  0.00     0.210 HD
ENDBRANCH  21  23
ENDBRANCH  17  21
ENDBRANCH  12  15
ENDBRANCH   6  11
BRANCH   8  25
HETATM   25  C   UNL     1      42.723 -12.830   3.000  1.00  0.00     0.409 C 
HETATM   26  F   UNL     1      43.320 -13.688   2.154  1.00  0.00    -0.169 F 
HETATM   27  F   UNL     1      43.317 -11.624   2.838  1.00  0.00    -0.169 F 
HETATM   28  F   UNL     1      43.028 -13.231   4.261  1.00  0.00    -0.169 F 
ENDBRANCH   8  25
BRANCH   1  29
HETATM   29  C   UNL     1      41.389 -16.109   3.235  1.00  0.00    -0.035 A 
HETATM   30  C   UNL     1      41.915 -16.874   2.182  1.00  0.00     0.010 A 
HETATM   31  C   UNL     1      42.960 -17.777   2.396  1.00  0.00     0.007 A 
HETATM   32  C   UNL     1      43.497 -17.951   3.674  1.00  0.00    -0.062 A 
HETATM   33  C   UNL     1      44.622 -18.913   3.911  1.00  0.00     0.048 C 
HETATM   34  C   UNL     1      42.982 -17.196   4.730  1.00  0.00     0.007 A 
HETATM   35  C   UNL     1      41.942 -16.287   4.513  1.00  0.00     0.010 A 
ENDBRANCH   1  29
TORSDOF 6
ENDMDL
MODEL 6
REMARK VINA RESULT:      -8.8      5.061      9.316
REMARK  6 active torsions:
REMARK  status: ('A' for Active; 'I' for Inactive)
REMARK    1  A    between atoms: C_5  and  C_6 
REMARK    2  A    between atoms: C_11  and  C_12 
REMARK       I    between atoms: C_12  and  N_13 
REMARK    3  A    between atoms: N_13  and  C_14 
REMARK    4  A    between atoms: C_16  and  C_17 
REMARK    5  A    between atoms: C_17  and  O_18 
REMARK    6  A    between atoms: C_25  and  C_26 
ROOT
HETATM    1  C   UNL     1      40.279 -15.062   3.163  1.00  0.00     0.118 C 
HETATM    2  N   UNL     1      39.869 -14.899   1.771  1.00  0.00    -0.366 N 
HETATM    3  C   UNL     1      40.296 -13.861   1.022  1.00  0.00     0.123 A 
HETATM    4  N   UNL     1      40.956 -12.797   1.569  1.00  0.00    -0.240 N 
HETATM    5  N   UNL     1      41.247 -11.823   0.683  1.00  0.00    -0.165 NA
HETATM    6  C   UNL     1      40.850 -12.347  -0.500  1.00  0.00     0.148 A 
HETATM    7  C   UNL     1      40.224 -13.609  -0.321  1.00  0.00     0.089 A 
HETATM    8  C   UNL     1      41.311 -12.688   2.970  1.00  0.00     0.221 C 
HETATM    9  C   UNL     1      40.506 -13.689   3.822  1.00  0.00     0.066 C 
HETATM   10  H   UNL     1      39.530 -15.750   1.325  1.00  0.00     0.161 HD
ENDROOT
BRANCH   6  11
HETATM   11  C   UNL     1      41.077 -11.662  -1.785  1.00  0.00     0.276 C 
HETATM   12  N   UNL     1      40.946 -10.292  -1.676  1.00  0.00    -0.322 N 
HETATM   13  H   UNL     1      40.649  -9.981  -0.754  1.00  0.00     0.169 HD
HETATM   14  O   UNL     1      41.341 -12.293  -2.803  1.00  0.00    -0.266 OA
BRANCH  12  15
HETATM   15  C   UNL     1      41.173  -9.318  -2.663  1.00  0.00     0.035 A 
HETATM   16  C   UNL     1      40.488  -9.280  -3.881  1.00  0.00     0.039 A 
HETATM   17  C   UNL     1      40.773  -8.299  -4.851  1.00  0.00    -0.028 A 
HETATM   18  C   UNL     1      41.747  -7.336  -4.562  1.00  0.00     0.010 A 
HETATM   19  C   UNL     1      42.436  -7.365  -3.350  1.00  0.00     0.003 A 
HETATM   20  C   UNL     1      42.156  -8.357  -2.410  1.00  0.00     0.029 A 
BRANCH  17  21
HETATM   21  C   UNL     1      40.017  -8.316  -6.162  1.00  0.00     0.147 C 
HETATM   22  C   UNL     1      39.413  -6.955  -6.485  1.00  0.00     0.044 C 
BRANCH  21  23
HETATM   23  O   UNL     1      40.873  -8.707  -7.235  1.00  0.00    -0.391 OA
HETATM   24  H   UNL     1      40.489  -8.340  -8.049  1.00  0.00     0.210 HD
ENDBRANCH  21  23
ENDBRANCH  17  21
ENDBRANCH  12  15
ENDBRANCH   6  11
BRANCH   8  25
HETATM   25  C   UNL     1      42.810 -12.806   3.144  1.00  0.00     0.409 C 
HETATM   26  F   UNL     1      43.473 -11.649   2.979  1.00  0.00    -0.169 F 
HETATM   27  F   UNL     1      43.136 -13.288   4.367  1.00  0.00    -0.169 F 
HETATM   28  F   UNL     1      43.315 -13.692   2.247  1.00  0.00    -0.169 F 
ENDBRANCH   8  25
BRANCH   1  29
HETATM   29  C   UNL     1      41.410 -16.060   3.332  1.00  0.00    -0.035 A 
HETATM   30  C   UNL     1      41.931 -16.816   2.270  1.00  0.00     0.010 A 
HETATM   31  C   UNL     1      42.957 -17.742   2.477  1.00  0.00     0.007 A 
HETATM   32  C   UNL     1      43.479 -17.950   3.756  1.00  0.00    -0.062 A 
HETATM   33  C   UNL     1      44.583 -18.938   3.986  1.00  0.00     0.048 C 
HETATM   34  C   UNL     1      42.969 -17.204   4.822  1.00  0.00     0.007 A 
HETATM   35  C   UNL     1      41.947 -16.272   4.612  1.00  0.00     0.010 A 
ENDBRANCH   1  29
TORSDOF 6
ENDMDL
MODEL 7
REMARK VINA RESULT:      -8.8      3.974      6.564
REMARK  6 active torsions:
REMARK  status: ('A' for Active; 'I' for Inactive)
REMARK    1  A    between atoms: C_5  and  C_6 
REMARK    2  A    between atoms: C_11  and  C_12 
REMARK       I    between atoms: C_12  and  N_13 
REMARK    3  A    between atoms: N_13  and  C_14 
REMARK    4  A    between atoms: C_16  and  C_17 
REMARK    5  A    between atoms: C_17  and  O_18 
REMARK    6  A    between atoms: C_25  and  C_26 
ROOT
HETATM    1  C   UNL     1      38.958 -10.174  -1.243  1.00  0.00     0.118 C 
HETATM    2  N   UNL     1      38.930 -10.781   0.084  1.00  0.00    -0.366 N 
HETATM    3  C   UNL     1      39.317 -12.057   0.290  1.00  0.00     0.123 A 
HETATM    4  N   UNL     1      39.554 -12.918  -0.744  1.00  0.00    -0.240 N 
HETATM    5  N   UNL     1      39.865 -14.169  -0.351  1.00  0.00    -0.165 NA
HETATM    6  C   UNL     1      39.938 -14.065   0.997  1.00  0.00     0.148 A 
HETATM    7  C   UNL     1      39.573 -12.764   1.434  1.00  0.00     0.089 A 
HETATM    8  C   UNL     1      39.469 -12.554  -2.145  1.00  0.00     0.221 C 
HETATM    9  C   UNL     1      38.692 -11.236  -2.326  1.00  0.00     0.066 C 
HETATM   10  H   UNL     1      38.921 -10.116   0.857  1.00  0.00     0.161 HD
ENDROOT
BRANCH   6  11
HETATM   11  C   UNL     1      40.363 -15.185   1.855  1.00  0.00     0.276 C 
HETATM   12  N   UNL     1      41.735 -15.243   1.996  1.00  0.00    -0.322 N 
HETATM   13  H   UNL     1      42.234 -14.555   1.436  1.00  0.00     0.169 HD
HETATM   14  O   UNL     1      39.543 -15.949   2.354  1.00  0.00    -0.266 OA
BRANCH  12  15
HETATM   15  C   UNL     1      42.488 -16.114   2.802  1.00  0.00     0.035 A 
HETATM   16  C   UNL     1      42.799 -15.853   4.139  1.00  0.00     0.039 A 
HETATM   17  C   UNL     1      43.582 -16.745   4.896  1.00  0.00    -0.028 A 
HETATM   18  C   UNL     1      44.029 -17.925   4.289  1.00  0.00     0.010 A 
HETATM   19  C   UNL     1      43.724 -18.195   2.955  1.00  0.00     0.003 A 
HETATM   20  C   UNL     1      42.965 -17.289   2.213  1.00  0.00     0.029 A 
BRANCH  17  21
HETATM   21  C   UNL     1      43.907 -16.404   6.335  1.00  0.00     0.147 C 
HETATM   22  C   UNL     1      43.605 -14.944   6.652  1.00  0.00     0.044 C 
BRANCH  21  23
HETATM   23  O   UNL     1      43.168 -17.233   7.231  1.00  0.00    -0.391 OA
HETATM   24  H   UNL     1      43.805 -17.841   7.641  1.00  0.00     0.210 HD
ENDBRANCH  21  23
ENDBRANCH  17  21
ENDBRANCH  12  15
ENDBRANCH   6  11
BRANCH   8  25
HETATM   25  C   UNL     1      40.849 -12.539  -2.769  1.00  0.00     0.409 C 
HETATM   26  F   UNL     1      41.252 -13.734  -3.234  1.00  0.00    -0.169 F 
HETATM   27  F   UNL     1      40.926 -11.659  -3.795  1.00  0.00    -0.169 F 
HETATM   28  F   UNL     1      41.768 -12.131  -1.856  1.00  0.00    -0.169 F 
ENDBRANCH   8  25
BRANCH   1  29
HETATM   29  C   UNL     1      40.184  -9.306  -1.469  1.00  0.00    -0.035 A 
HETATM   30  C   UNL     1      41.190  -9.133  -0.506  1.00  0.00     0.010 A 
HETATM   31  C   UNL     1      42.288  -8.304  -0.748  1.00  0.00     0.007 A 
HETATM   32  C   UNL     1      42.403  -7.612  -1.956  1.00  0.00    -0.062 A 
HETATM   33  C   UNL     1      43.581  -6.725  -2.227  1.00  0.00     0.048 C 
HETATM   34  C   UNL     1      41.408  -7.776  -2.924  1.00  0.00     0.007 A 
HETATM   35  C   UNL     1      40.313  -8.612  -2.683  1.00  0.00     0.010 A 
ENDBRANCH   1  29
TORSDOF 6
ENDMDL
MODEL 8
REMARK VINA RESULT:      -8.5      3.488      5.363
REMARK  6 active torsions:
REMARK  status: ('A' for Active; 'I' for Inactive)
REMARK    1  A    between atoms: C_5  and  C_6 
REMARK    2  A    between atoms: C_11  and  C_12 
REMARK       I    between atoms: C_12  and  N_13 
REMARK    3  A    between atoms: N_13  and  C_14 
REMARK    4  A    between atoms: C_16  and  C_17 
REMARK    5  A    between atoms: C_17  and  O_18 
REMARK    6  A    between atoms: C_25  and  C_26 
ROOT
HETATM    1  C   UNL     1      43.342 -14.849   2.468  1.00  0.00     0.118 C 
HETATM    2  N   UNL     1      43.338 -13.818   3.501  1.00  0.00    -0.366 N 
HETATM    3  C   UNL     1      42.189 -13.296   3.979  1.00  0.00     0.123 A 
HETATM    4  N   UNL     1      40.982 -13.539   3.387  1.00  0.00    -0.240 N 
HETATM    5  N   UNL     1      39.953 -12.882   3.958  1.00  0.00    -0.165 NA
HETATM    6  C   UNL     1      40.520 -12.284   5.032  1.00  0.00     0.148 A 
HETATM    7  C   UNL     1      41.924 -12.498   5.059  1.00  0.00     0.089 A 
HETATM    8  C   UNL     1      40.795 -14.403   2.238  1.00  0.00     0.221 C 
HETATM    9  C   UNL     1      42.136 -14.673   1.528  1.00  0.00     0.066 C 
HETATM   10  H   UNL     1      44.195 -13.761   4.049  1.00  0.00     0.161 HD
ENDROOT
BRANCH   6  11
HETATM   11  C   UNL     1      39.735 -11.529   6.025  1.00  0.00     0.276 C 
HETATM   12  N   UNL     1      40.369 -10.368   6.418  1.00  0.00    -0.322 N 
HETATM   13  H   UNL     1      41.298 -10.252   6.018  1.00  0.00     0.169 HD
HETATM   14  O   UNL     1      38.651 -11.943   6.423  1.00  0.00    -0.266 OA
BRANCH  12  15
HETATM   15  C   UNL     1      39.887  -9.364   7.276  1.00  0.00     0.035 A 
HETATM   16  C   UNL     1      39.972  -9.434   8.669  1.00  0.00     0.039 A 
HETATM   17  C   UNL     1      39.447  -8.415   9.487  1.00  0.00    -0.028 A 
HETATM   18  C   UNL     1      38.853  -7.305   8.875  1.00  0.00     0.010 A 
HETATM   19  C   UNL     1      38.763  -7.226   7.485  1.00  0.00     0.003 A 
HETATM   20  C   UNL     1      39.269  -8.256   6.691  1.00  0.00     0.029 A 
BRANCH  17  21
HETATM   21  C   UNL     1      39.548  -8.550  10.991  1.00  0.00     0.147 C 
HETATM   22  C   UNL     1      38.750  -7.471  11.711  1.00  0.00     0.044 C 
BRANCH  21  23
HETATM   23  O   UNL     1      39.081  -9.830  11.417  1.00  0.00    -0.391 OA
HETATM   24  H   UNL     1      38.777  -9.728  12.334  1.00  0.00     0.210 HD
ENDBRANCH  21  23
ENDBRANCH  17  21
ENDBRANCH  12  15
ENDBRANCH   6  11
BRANCH   8  25
HETATM   25  C   UNL     1      40.055 -15.661   2.642  1.00  0.00     0.409 C 
HETATM   26  F   UNL     1      40.289 -16.715   1.841  1.00  0.00    -0.169 F 
HETATM   27  F   UNL     1      40.360 -16.038   3.906  1.00  0.00    -0.169 F 
HETATM   28  F   UNL     1      38.715 -15.437   2.632  1.00  0.00    -0.169 F 
ENDBRANCH   8  25
BRANCH   1  29
HETATM   29  C   UNL     1      43.532 -16.247   3.029  1.00  0.00    -0.035 A 
HETATM   30  C   UNL     1      43.477 -17.405   2.238  1.00  0.00     0.010 A 
HETATM   31  C   UNL     1      43.633 -18.674   2.801  1.00  0.00     0.007 A 
HETATM   32  C   UNL     1      43.831 -18.821   4.176  1.00  0.00    -0.062 A 
HETATM   33  C   UNL     1      44.005 -20.178   4.789  1.00  0.00     0.048 C 
HETATM   34  C   UNL     1      43.887 -17.676   4.975  1.00  0.00     0.007 A 
HETATM   35  C   UNL     1      43.739 -16.406   4.409  1.00  0.00     0.010 A 
ENDBRANCH   1  29
TORSDOF 6
ENDMDL
MODEL 9
REMARK VINA RESULT:      -8.2     17.075     18.936
REMARK  6 active torsions:
REMARK  status: ('A' for Active; 'I' for Inactive)
REMARK    1  A    between atoms: C_5  and  C_6 
REMARK    2  A    between atoms: C_11  and  C_12 
REMARK       I    between atoms: C_12  and  N_13 
REMARK    3  A    between atoms: N_13  and  C_14 
REMARK    4  A    between atoms: C_16  and  C_17 
REMARK    5  A    between atoms: C_17  and  O_18 
REMARK    6  A    between atoms: C_25  and  C_26 
ROOT
HETATM    1  C   UNL     1      46.573 -28.099  -2.091  1.00  0.00     0.118 C 
HETATM    2  N   UNL     1      47.941 -28.444  -1.717  1.00  0.00    -0.366 N 
HETATM    3  C   UNL     1      48.226 -29.058  -0.550  1.00  0.00     0.123 A 
HETATM    4  N   UNL     1      47.294 -29.201   0.439  1.00  0.00    -0.240 N 
HETATM    5  N   UNL     1      47.772 -29.777   1.560  1.00  0.00    -0.165 NA
HETATM    6  C   UNL     1      49.039 -30.115   1.221  1.00  0.00     0.148 A 
HETATM    7  C   UNL     1      49.366 -29.654  -0.081  1.00  0.00     0.089 A 
HETATM    8  C   UNL     1      45.914 -28.768   0.329  1.00  0.00     0.221 C 
HETATM    9  C   UNL     1      45.739 -27.777  -0.838  1.00  0.00     0.066 C 
HETATM   10  H   UNL     1      48.596 -28.496  -2.498  1.00  0.00     0.161 HD
ENDROOT
BRANCH   6  11
HETATM   11  C   UNL     1      49.922 -30.879   2.122  1.00  0.00     0.276 C 
HETATM   12  N   UNL     1      49.554 -30.748   3.446  1.00  0.00    -0.322 N 
HETATM   13  H   UNL     1      48.786 -30.099   3.596  1.00  0.00     0.169 HD
HETATM   14  O   UNL     1      50.863 -31.531   1.684  1.00  0.00    -0.266 OA
BRANCH  12  15
HETATM   15  C   UNL     1      50.105 -31.394   4.566  1.00  0.00     0.035 A 
HETATM   16  C   UNL     1      51.297 -30.996   5.178  1.00  0.00     0.039 A 
HETATM   17  C   UNL     1      51.823 -31.695   6.281  1.00  0.00    -0.028 A 
HETATM   18  C   UNL     1      51.112 -32.794   6.778  1.00  0.00     0.010 A 
HETATM   19  C   UNL     1      49.922 -33.200   6.174  1.00  0.00     0.003 A 
HETATM   20  C   UNL     1      49.427 -32.509   5.068  1.00  0.00     0.029 A 
BRANCH  17  21
HETATM   21  C   UNL     1      53.128 -31.233   6.893  1.00  0.00     0.147 C 
HETATM   22  C   UNL     1      53.316 -31.779   8.303  1.00  0.00     0.044 C 
BRANCH  21  23
HETATM   23  O   UNL     1      54.236 -31.640   6.090  1.00  0.00    -0.391 OA
HETATM   24  H   UNL     1      54.172 -32.604   5.990  1.00  0.00     0.210 HD
ENDBRANCH  21  23
ENDBRANCH  17  21
ENDBRANCH  12  15
ENDBRANCH   6  11
BRANCH   8  25
HETATM   25  C   UNL     1      44.992 -29.966   0.256  1.00  0.00     0.409 C 
HETATM   26  F   UNL     1      45.552 -31.055  -0.300  1.00  0.00    -0.169 F 
HETATM   27  F   UNL     1      44.538 -30.326   1.480  1.00  0.00    -0.169 F 
HETATM   28  F   UNL     1      43.889 -29.662  -0.477  1.00  0.00    -0.169 F 
ENDBRANCH   8  25
BRANCH   1  29
HETATM   29  C   UNL     1      45.951 -29.101  -3.047  1.00  0.00    -0.035 A 
HETATM   30  C   UNL     1      46.551 -30.328  -3.370  1.00  0.00     0.010 A 
HETATM   31  C   UNL     1      45.955 -31.209  -4.276  1.00  0.00     0.007 A 
HETATM   32  C   UNL     1      44.748 -30.879  -4.897  1.00  0.00    -0.062 A 
HETATM   33  C   UNL     1      44.098 -31.820  -5.866  1.00  0.00     0.048 C 
HETATM   34  C   UNL     1      44.140 -29.660  -4.585  1.00  0.00     0.007 A 
HETATM   35  C   UNL     1      44.734 -28.782  -3.672  1.00  0.00     0.010 A 
ENDBRANCH   1  29
TORSDOF 6
ENDMDL
MODEL 10
REMARK VINA RESULT:      -8.1     16.995     19.104
REMARK  6 active torsions:
REMARK  status: ('A' for Active; 'I' for Inactive)
REMARK    1  A    between atoms: C_5  and  C_6 
REMARK    2  A    between atoms: C_11  and  C_12 
REMARK       I    between atoms: C_12  and  N_13 
REMARK    3  A    between atoms: N_13  and  C_14 
REMARK    4  A    between atoms: C_16  and  C_17 
REMARK    5  A    between atoms: C_17  and  O_18 
REMARK    6  A    between atoms: C_25  and  C_26 
ROOT
HETATM    1  C   UNL     1      46.200 -28.085   0.037  1.00  0.00     0.118 C 
HETATM    2  N   UNL     1      45.805 -28.455   1.393  1.00  0.00    -0.366 N 
HETATM    3  C   UNL     1      44.844 -29.372   1.628  1.00  0.00     0.123 A 
HETATM    4  N   UNL     1      44.040 -29.850   0.631  1.00  0.00    -0.240 N 
HETATM    5  N   UNL     1      43.092 -30.707   1.060  1.00  0.00    -0.165 NA
HETATM    6  C   UNL     1      43.383 -30.865   2.373  1.00  0.00     0.148 A 
HETATM    7  C   UNL     1      44.455 -30.021   2.769  1.00  0.00     0.089 A 
HETATM    8  C   UNL     1      44.159 -29.475  -0.764  1.00  0.00     0.221 C 
HETATM    9  C   UNL     1      44.999 -28.193  -0.920  1.00  0.00     0.066 C 
HETATM   10  H   UNL     1      46.496 -28.239   2.112  1.00  0.00     0.161 HD
ENDROOT
BRANCH   6  11
HETATM   11  C   UNL     1      42.658 -31.814   3.236  1.00  0.00     0.276 C 
HETATM   12  N   UNL     1      41.661 -31.199   3.966  1.00  0.00    -0.322 N 
HETATM   13  H   UNL     1      41.630 -30.189   3.848  1.00  0.00     0.169 HD
HETATM   14  O   UNL     1      42.958 -33.003   3.263  1.00  0.00    -0.266 OA
BRANCH  12  15
HETATM   15  C   UNL     1      40.718 -31.796   4.820  1.00  0.00     0.035 A 
HETATM   16  C   UNL     1      39.538 -32.394   4.369  1.00  0.00     0.039 A 
HETATM   17  C   UNL     1      38.610 -32.954   5.268  1.00  0.00    -0.028 A 
HETATM   18  C   UNL     1      38.903 -32.924   6.637  1.00  0.00     0.010 A 
HETATM   19  C   UNL     1      40.078 -32.329   7.097  1.00  0.00     0.003 A 
HETATM   20  C   UNL     1      40.975 -31.761   6.194  1.00  0.00     0.029 A 
BRANCH  17  21
HETATM   21  C   UNL     1      37.337 -33.570   4.728  1.00  0.00     0.147 C 
HETATM   22  C   UNL     1      36.931 -34.810   5.514  1.00  0.00     0.044 C 
BRANCH  21  23
HETATM   23  O   UNL     1      36.264 -32.630   4.763  1.00  0.00    -0.391 OA
HETATM   24  H   UNL     1      36.431 -32.041   5.517  1.00  0.00     0.210 HD
ENDBRANCH  21  23
ENDBRANCH  17  21
ENDBRANCH  12  15
ENDBRANCH   6  11
BRANCH   8  25
HETATM   25  C   UNL     1      44.672 -30.643  -1.580  1.00  0.00     0.409 C 
HETATM   26  F   UNL     1      43.726 -31.543  -1.901  1.00  0.00    -0.169 F 
HETATM   27  F   UNL     1      45.249 -30.234  -2.734  1.00  0.00    -0.169 F 
HETATM   28  F   UNL     1      45.639 -31.303  -0.892  1.00  0.00    -0.169 F 
ENDBRANCH   8  25
BRANCH   1  29
HETATM   29  C   UNL     1      47.464 -28.788  -0.422  1.00  0.00    -0.035 A 
HETATM   30  C   UNL     1      48.332 -29.457   0.455  1.00  0.00     0.010 A 
HETATM   31  C   UNL     1      49.499 -30.070  -0.009  1.00  0.00     0.007 A 
HETATM   32  C   UNL     1      49.839 -30.015  -1.363  1.00  0.00    -0.062 A 
HETATM   33  C   UNL     1      51.087 -30.674  -1.870  1.00  0.00     0.048 C 
HETATM   34  C   UNL     1      48.985 -29.352  -2.247  1.00  0.00     0.007 A 
HETATM   35  C   UNL     1      47.813 -28.746  -1.782  1.00  0.00     0.010 A 
ENDBRANCH   1  29
TORSDOF 6
ENDMDL
