MODEL 1
REMARK VINA RESULT:      -9.8      0.000      0.000
REMARK  4 active torsions:
REMARK  status: ('A' for Active; 'I' for Inactive)
REMARK    1  A    between atoms: C_5  and  N_6 
REMARK       I    between atoms: N_6  and  C_7 
REMARK    2  A    between atoms: C_7  and  C_8 
REMARK    3  A    between atoms: N_12  and  C_13 
REMARK    4  A    between atoms: C_24  and  O_25 
ROOT
HETATM    1  C   UNL     1      42.313 -14.282   2.633  1.00  0.00     0.034 A 
HETATM    2  C   UNL     1      42.621 -14.093   3.984  1.00  0.00     0.049 A 
HETATM    3  C   UNL     1      43.168 -15.167   4.655  1.00  0.00     0.064 A 
HETATM    4  C   UNL     1      43.440 -16.404   4.060  1.00  0.00     0.066 A 
HETATM    5  N   UNL     1      44.002 -17.237   5.054  1.00  0.00    -0.293 N 
HETATM    6  C   UNL     1      43.991 -16.517   6.280  1.00  0.00     0.328 A 
HETATM    7  O   UNL     1      44.312 -16.909   7.389  1.00  0.00    -0.247 OA
HETATM    8  N   UNL     1      43.516 -15.235   5.995  1.00  0.00    -0.306 N 
HETATM    9  C   UNL     1      43.141 -16.599   2.729  1.00  0.00     0.033 A 
HETATM   10  C   UNL     1      42.581 -15.527   2.015  1.00  0.00     0.019 A 
HETATM   11  H   UNL     1      43.409 -14.522   6.697  1.00  0.00     0.171 HD
ENDROOT
BRANCH   1  12
HETATM   12  C   UNL     1      41.731 -13.200   1.788  1.00  0.00     0.252 C 
HETATM   13  N   UNL     1      40.725 -13.555   0.923  1.00  0.00    -0.346 N 
HETATM   14  H   UNL     1      40.393 -14.505   0.850  1.00  0.00     0.163 HD
HETATM   15  O   UNL     1      42.141 -12.050   1.887  1.00  0.00    -0.268 OA
BRANCH  13  16
HETATM   16  C   UNL     1      40.070 -12.569   0.082  1.00  0.00     0.147 C 
HETATM   17  C   UNL     1      39.372 -13.196  -1.094  1.00  0.00    -0.027 A 
HETATM   18  C   UNL     1      38.110 -12.625  -1.288  1.00  0.00    -0.047 A 
HETATM   19  C   UNL     1      39.853 -14.165  -1.965  1.00  0.00     0.010 A 
HETATM   20  C   UNL     1      37.297 -13.023  -2.337  1.00  0.00     0.008 A 
HETATM   21  C   UNL     1      37.837 -11.546  -0.281  1.00  0.00     0.073 C 
HETATM   22  C   UNL     1      37.764 -14.016  -3.201  1.00  0.00     0.001 A 
HETATM   23  C   UNL     1      39.036 -14.580  -3.018  1.00  0.00     0.001 A 
HETATM   24  C   UNL     1      38.893 -11.838   0.799  1.00  0.00     0.149 C 
BRANCH  24  25
HETATM   25  O   UNL     1      38.295 -12.663   1.816  1.00  0.00    -0.393 OA
HETATM   26  H   UNL     1      37.840 -12.045   2.414  1.00  0.00     0.210 HD
ENDBRANCH  24  25
ENDBRANCH  13  16
ENDBRANCH   1  12
BRANCH   5  27
HETATM   27  C   UNL     1      44.336 -18.645   5.007  1.00  0.00     0.095 C 
HETATM   28  C   UNL     1      43.535 -19.621   5.866  1.00  0.00     0.026 C 
HETATM   29  C   UNL     1      43.871 -20.975   5.261  1.00  0.00     0.002 C 
HETATM   30  C   UNL     1      43.827 -20.717   3.765  1.00  0.00     0.002 C 
HETATM   31  C   UNL     1      44.196 -19.243   3.590  1.00  0.00     0.026 C 
ENDBRANCH   5  27
TORSDOF 4
ENDMDL
MODEL 2
REMARK VINA RESULT:      -9.5      6.050      9.229
REMARK  4 active torsions:
REMARK  status: ('A' for Active; 'I' for Inactive)
REMARK    1  A    between atoms: C_5  and  N_6 
REMARK       I    between atoms: N_6  and  C_7 
REMARK    2  A    between atoms: C_7  and  C_8 
REMARK    3  A    between atoms: N_12  and  C_13 
REMARK    4  A    between atoms: C_24  and  O_25 
ROOT
HETATM    1  C   UNL     1      43.581 -11.907   7.057  1.00  0.00     0.034 A 
HETATM    2  C   UNL     1      42.397 -11.529   6.417  1.00  0.00     0.049 A 
HETATM    3  C   UNL     1      41.892 -12.400   5.473  1.00  0.00     0.064 A 
HETATM    4  C   UNL     1      42.484 -13.625   5.144  1.00  0.00     0.066 A 
HETATM    5  N   UNL     1      41.678 -14.232   4.155  1.00  0.00    -0.293 N 
HETATM    6  C   UNL     1      40.634 -13.323   3.828  1.00  0.00     0.328 A 
HETATM    7  O   UNL     1      39.779 -13.433   2.966  1.00  0.00    -0.247 OA
HETATM    8  N   UNL     1      40.766 -12.228   4.685  1.00  0.00    -0.306 N 
HETATM    9  C   UNL     1      43.651 -14.006   5.770  1.00  0.00     0.033 A 
HETATM   10  C   UNL     1      44.194 -13.142   6.735  1.00  0.00     0.019 A 
HETATM   11  H   UNL     1      40.146 -11.435   4.659  1.00  0.00     0.171 HD
ENDROOT
BRANCH   1  12
HETATM   12  C   UNL     1      44.225 -11.066   8.105  1.00  0.00     0.252 C 
HETATM   13  N   UNL     1      43.400 -10.269   8.862  1.00  0.00    -0.346 N 
HETATM   14  H   UNL     1      42.402 -10.244   8.717  1.00  0.00     0.163 HD
HETATM   15  O   UNL     1      45.438 -11.107   8.274  1.00  0.00    -0.268 OA
BRANCH  13  16
HETATM   16  C   UNL     1      43.925  -9.439   9.930  1.00  0.00     0.147 C 
HETATM   17  C   UNL     1      43.309  -8.066   9.940  1.00  0.00    -0.027 A 
HETATM   18  C   UNL     1      42.990  -7.672  11.244  1.00  0.00    -0.047 A 
HETATM   19  C   UNL     1      43.103  -7.206   8.869  1.00  0.00     0.010 A 
HETATM   20  C   UNL     1      42.440  -6.426  11.502  1.00  0.00     0.008 A 
HETATM   21  C   UNL     1      43.375  -8.723  12.244  1.00  0.00     0.073 C 
HETATM   22  C   UNL     1      42.207  -5.567  10.426  1.00  0.00     0.001 A 
HETATM   23  C   UNL     1      42.539  -5.954   9.119  1.00  0.00     0.001 A 
HETATM   24  C   UNL     1      43.557  -9.964  11.352  1.00  0.00     0.149 C 
BRANCH  24  25
HETATM   25  O   UNL     1      42.325 -10.707  11.342  1.00  0.00    -0.393 OA
HETATM   26  H   UNL     1      41.665 -10.119  11.750  1.00  0.00     0.210 HD
ENDBRANCH  24  25
ENDBRANCH  13  16
ENDBRANCH   1  12
BRANCH   5  27
HETATM   27  C   UNL     1      41.905 -15.433   3.380  1.00  0.00     0.095 C 
HETATM   28  C   UNL     1      42.958 -15.407   2.273  1.00  0.00     0.026 C 
HETATM   29  C   UNL     1      43.199 -16.882   1.987  1.00  0.00     0.002 C 
HETATM   30  C   UNL     1      43.241 -17.509   3.369  1.00  0.00     0.002 C 
HETATM   31  C   UNL     1      42.354 -16.627   4.250  1.00  0.00     0.026 C 
ENDBRANCH   5  27
TORSDOF 4
ENDMDL
MODEL 3
REMARK VINA RESULT:      -9.2      5.506      8.700
REMARK  4 active torsions:
REMARK  status: ('A' for Active; 'I' for Inactive)
REMARK    1  A    between atoms: C_5  and  N_6 
REMARK       I    between atoms: N_6  and  C_7 
REMARK    2  A    between atoms: C_7  and  C_8 
REMARK    3  A    between atoms: N_12  and  C_13 
REMARK    4  A    between atoms: C_24  and  O_25 
ROOT
HETATM    1  C   UNL     1      43.582 -12.321   6.526  1.00  0.00     0.034 A 
HETATM    2  C   UNL     1      43.994 -13.624   6.827  1.00  0.00     0.049 A 
HETATM    3  C   UNL     1      43.612 -14.616   5.947  1.00  0.00     0.064 A 
HETATM    4  C   UNL     1      42.865 -14.388   4.786  1.00  0.00     0.066 A 
HETATM    5  N   UNL     1      42.686 -15.634   4.146  1.00  0.00    -0.293 N 
HETATM    6  C   UNL     1      43.262 -16.635   4.976  1.00  0.00     0.328 A 
HETATM    7  O   UNL     1      43.247 -17.845   4.824  1.00  0.00    -0.247 OA
HETATM    8  N   UNL     1      43.863 -15.975   6.051  1.00  0.00    -0.306 N 
HETATM    9  C   UNL     1      42.457 -13.107   4.482  1.00  0.00     0.033 A 
HETATM   10  C   UNL     1      42.825 -12.072   5.356  1.00  0.00     0.019 A 
HETATM   11  H   UNL     1      44.344 -16.459   6.791  1.00  0.00     0.171 HD
ENDROOT
BRANCH   1  12
HETATM   12  C   UNL     1      43.937 -11.155   7.384  1.00  0.00     0.252 C 
HETATM   13  N   UNL     1      43.058 -10.827   8.389  1.00  0.00    -0.346 N 
HETATM   14  H   UNL     1      42.204 -11.343   8.541  1.00  0.00     0.163 HD
HETATM   15  O   UNL     1      44.977 -10.538   7.191  1.00  0.00    -0.268 OA
BRANCH  13  16
HETATM   16  C   UNL     1      43.329  -9.730   9.299  1.00  0.00     0.147 C 
HETATM   17  C   UNL     1      42.067  -9.086   9.808  1.00  0.00    -0.027 A 
HETATM   18  C   UNL     1      42.155  -8.832  11.181  1.00  0.00    -0.047 A 
HETATM   19  C   UNL     1      40.945  -8.700   9.086  1.00  0.00     0.010 A 
HETATM   20  C   UNL     1      41.120  -8.211  11.862  1.00  0.00     0.008 A 
HETATM   21  C   UNL     1      43.485  -9.256  11.732  1.00  0.00     0.073 C 
HETATM   22  C   UNL     1      39.979  -7.845  11.146  1.00  0.00     0.001 A 
HETATM   23  C   UNL     1      39.894  -8.084   9.766  1.00  0.00     0.001 A 
HETATM   24  C   UNL     1      44.010 -10.188  10.626  1.00  0.00     0.149 C 
BRANCH  24  25
HETATM   25  O   UNL     1      43.661 -11.543  10.961  1.00  0.00    -0.393 OA
HETATM   26  H   UNL     1      43.576 -11.555  11.931  1.00  0.00     0.210 HD
ENDBRANCH  24  25
ENDBRANCH  13  16
ENDBRANCH   1  12
BRANCH   5  27
HETATM   27  C   UNL     1      41.883 -15.980   2.993  1.00  0.00     0.095 C 
HETATM   28  C   UNL     1      40.379 -15.713   3.035  1.00  0.00     0.026 C 
HETATM   29  C   UNL     1      39.967 -15.801   1.574  1.00  0.00     0.002 C 
HETATM   30  C   UNL     1      41.077 -15.062   0.847  1.00  0.00     0.002 C 
HETATM   31  C   UNL     1      42.325 -15.235   1.715  1.00  0.00     0.026 C 
ENDBRANCH   5  27
TORSDOF 4
ENDMDL
MODEL 4
REMARK VINA RESULT:      -9.1      5.402      8.805
REMARK  4 active torsions:
REMARK  status: ('A' for Active; 'I' for Inactive)
REMARK    1  A    between atoms: C_5  and  N_6 
REMARK       I    between atoms: N_6  and  C_7 
REMARK    2  A    between atoms: C_7  and  C_8 
REMARK    3  A    between atoms: N_12  and  C_13 
REMARK    4  A    between atoms: C_24  and  O_25 
ROOT
HETATM    1  C   UNL     1      42.258 -11.880   5.971  1.00  0.00     0.034 A 
HETATM    2  C   UNL     1      41.122 -12.029   5.169  1.00  0.00     0.049 A 
HETATM    3  C   UNL     1      40.966 -13.242   4.529  1.00  0.00     0.064 A 
HETATM    4  C   UNL     1      41.859 -14.312   4.654  1.00  0.00     0.066 A 
HETATM    5  N   UNL     1      41.360 -15.374   3.867  1.00  0.00    -0.293 N 
HETATM    6  C   UNL     1      40.195 -14.907   3.197  1.00  0.00     0.328 A 
HETATM    7  O   UNL     1      39.518 -15.488   2.365  1.00  0.00    -0.247 OA
HETATM    8  N   UNL     1      39.953 -13.611   3.659  1.00  0.00    -0.306 N 
HETATM    9  C   UNL     1      42.981 -14.174   5.443  1.00  0.00     0.033 A 
HETATM   10  C   UNL     1      43.173 -12.951   6.107  1.00  0.00     0.019 A 
HETATM   11  H   UNL     1      39.181 -13.051   3.337  1.00  0.00     0.171 HD
ENDROOT
BRANCH   1  12
HETATM   12  C   UNL     1      42.540 -10.626   6.727  1.00  0.00     0.252 C 
HETATM   13  N   UNL     1      43.176 -10.757   7.939  1.00  0.00    -0.346 N 
HETATM   14  H   UNL     1      43.437 -11.658   8.311  1.00  0.00     0.163 HD
HETATM   15  O   UNL     1      42.219  -9.539   6.265  1.00  0.00    -0.268 OA
BRANCH  13  16
HETATM   16  C   UNL     1      43.525  -9.596   8.736  1.00  0.00     0.147 C 
HETATM   17  C   UNL     1      42.725  -9.516  10.009  1.00  0.00    -0.027 A 
HETATM   18  C   UNL     1      43.541  -9.167  11.090  1.00  0.00    -0.047 A 
HETATM   19  C   UNL     1      41.357  -9.685  10.178  1.00  0.00     0.010 A 
HETATM   20  C   UNL     1      43.014  -9.002  12.361  1.00  0.00     0.008 A 
HETATM   21  C   UNL     1      44.962  -8.955  10.657  1.00  0.00     0.073 C 
HETATM   22  C   UNL     1      41.643  -9.197  12.542  1.00  0.00     0.001 A 
HETATM   23  C   UNL     1      40.820  -9.532  11.457  1.00  0.00     0.001 A 
HETATM   24  C   UNL     1      44.986  -9.642   9.281  1.00  0.00     0.149 C 
BRANCH  24  25
HETATM   25  O   UNL     1      45.447 -10.995   9.449  1.00  0.00    -0.393 OA
HETATM   26  H   UNL     1      46.382 -10.918   9.707  1.00  0.00     0.210 HD
ENDBRANCH  24  25
ENDBRANCH  13  16
ENDBRANCH   1  12
BRANCH   5  27
HETATM   27  C   UNL     1      41.959 -16.651   3.540  1.00  0.00     0.095 C 
HETATM   28  C   UNL     1      42.911 -16.733   2.347  1.00  0.00     0.026 C 
HETATM   29  C   UNL     1      43.630 -18.056   2.566  1.00  0.00     0.002 C 
HETATM   30  C   UNL     1      43.918 -18.060   4.057  1.00  0.00     0.002 C 
HETATM   31  C   UNL     1      42.810 -17.222   4.695  1.00  0.00     0.026 C 
ENDBRANCH   5  27
TORSDOF 4
ENDMDL
MODEL 5
REMARK VINA RESULT:      -8.8      3.020      9.061
REMARK  4 active torsions:
REMARK  status: ('A' for Active; 'I' for Inactive)
REMARK    1  A    between atoms: C_5  and  N_6 
REMARK       I    between atoms: N_6  and  C_7 
REMARK    2  A    between atoms: C_7  and  C_8 
REMARK    3  A    between atoms: N_12  and  C_13 
REMARK    4  A    between atoms: C_24  and  O_25 
ROOT
HETATM    1  C   UNL     1      40.447 -13.464   1.247  1.00  0.00     0.034 A 
HETATM    2  C   UNL     1      39.836 -13.535  -0.009  1.00  0.00     0.049 A 
HETATM    3  C   UNL     1      39.947 -12.424  -0.820  1.00  0.00     0.064 A 
HETATM    4  C   UNL     1      40.640 -11.262  -0.463  1.00  0.00     0.066 A 
HETATM    5  N   UNL     1      40.542 -10.361  -1.546  1.00  0.00    -0.293 N 
HETATM    6  C   UNL     1      39.710 -10.958  -2.533  1.00  0.00     0.328 A 
HETATM    7  O   UNL     1      39.312 -10.474  -3.579  1.00  0.00    -0.247 OA
HETATM    8  N   UNL     1      39.398 -12.242  -2.079  1.00  0.00    -0.306 N 
HETATM    9  C   UNL     1      41.247 -11.184   0.773  1.00  0.00     0.033 A 
HETATM   10  C   UNL     1      41.152 -12.296   1.625  1.00  0.00     0.019 A 
HETATM   11  H   UNL     1      38.815 -12.879  -2.596  1.00  0.00     0.171 HD
ENDROOT
BRANCH   1  12
HETATM   12  C   UNL     1      40.415 -14.599   2.214  1.00  0.00     0.252 C 
HETATM   13  N   UNL     1      41.493 -14.733   3.056  1.00  0.00    -0.346 N 
HETATM   14  H   UNL     1      42.279 -14.101   3.023  1.00  0.00     0.163 HD
HETATM   15  O   UNL     1      39.455 -15.358   2.246  1.00  0.00    -0.268 OA
BRANCH  13  16
HETATM   16  C   UNL     1      41.542 -15.784   4.056  1.00  0.00     0.147 C 
HETATM   17  C   UNL     1      42.431 -16.926   3.640  1.00  0.00    -0.027 A 
HETATM   18  C   UNL     1      43.229 -17.350   4.708  1.00  0.00    -0.047 A 
HETATM   19  C   UNL     1      42.481 -17.577   2.415  1.00  0.00     0.010 A 
HETATM   20  C   UNL     1      44.106 -18.414   4.568  1.00  0.00     0.008 A 
HETATM   21  C   UNL     1      42.947 -16.558   5.951  1.00  0.00     0.073 C 
HETATM   22  C   UNL     1      44.180 -19.056   3.330  1.00  0.00     0.001 A 
HETATM   23  C   UNL     1      43.370 -18.642   2.262  1.00  0.00     0.001 A 
HETATM   24  C   UNL     1      42.209 -15.330   5.391  1.00  0.00     0.149 C 
BRANCH  24  25
HETATM   25  O   UNL     1      43.165 -14.277   5.175  1.00  0.00    -0.393 OA
HETATM   26  H   UNL     1      43.397 -14.328   4.231  1.00  0.00     0.210 HD
ENDBRANCH  24  25
ENDBRANCH  13  16
ENDBRANCH   1  12
BRANCH   5  27
HETATM   27  C   UNL     1      40.961  -8.979  -1.647  1.00  0.00     0.095 C 
HETATM   28  C   UNL     1      40.487  -7.986  -0.586  1.00  0.00     0.026 C 
HETATM   29  C   UNL     1      41.424  -6.802  -0.773  1.00  0.00     0.002 C 
HETATM   30  C   UNL     1      42.782  -7.453  -0.976  1.00  0.00     0.002 C 
HETATM   31  C   UNL     1      42.496  -8.818  -1.604  1.00  0.00     0.026 C 
ENDBRANCH   5  27
TORSDOF 4
ENDMDL
MODEL 6
REMARK VINA RESULT:      -8.7      6.383      9.945
REMARK  4 active torsions:
REMARK  status: ('A' for Active; 'I' for Inactive)
REMARK    1  A    between atoms: C_5  and  N_6 
REMARK       I    between atoms: N_6  and  C_7 
REMARK    2  A    between atoms: C_7  and  C_8 
REMARK    3  A    between atoms: N_12  and  C_13 
REMARK    4  A    between atoms: C_24  and  O_25 
ROOT
HETATM    1  C   UNL     1      43.566 -11.559   7.385  1.00  0.00     0.034 A 
HETATM    2  C   UNL     1      43.838 -12.908   7.134  1.00  0.00     0.049 A 
HETATM    3  C   UNL     1      43.259 -13.462   6.010  1.00  0.00     0.064 A 
HETATM    4  C   UNL     1      42.446 -12.752   5.119  1.00  0.00     0.066 A 
HETATM    5  N   UNL     1      42.056 -13.646   4.097  1.00  0.00    -0.293 N 
HETATM    6  C   UNL     1      42.575 -14.930   4.423  1.00  0.00     0.328 A 
HETATM    7  O   UNL     1      42.396 -15.987   3.843  1.00  0.00    -0.247 OA
HETATM    8  N   UNL     1      43.347 -14.775   5.578  1.00  0.00    -0.306 N 
HETATM    9  C   UNL     1      42.174 -11.422   5.358  1.00  0.00     0.033 A 
HETATM   10  C   UNL     1      42.745 -10.826   6.495  1.00  0.00     0.019 A 
HETATM   11  H   UNL     1      43.828 -15.540   6.021  1.00  0.00     0.171 HD
ENDROOT
BRANCH   1  12
HETATM   12  C   UNL     1      44.139 -10.836   8.556  1.00  0.00     0.252 C 
HETATM   13  N   UNL     1      43.261 -10.136   9.349  1.00  0.00    -0.346 N 
HETATM   14  H   UNL     1      42.272 -10.102   9.151  1.00  0.00     0.163 HD
HETATM   15  O   UNL     1      45.340 -10.886   8.788  1.00  0.00    -0.268 OA
BRANCH  13  16
HETATM   16  C   UNL     1      43.714  -9.426  10.531  1.00  0.00     0.147 C 
HETATM   17  C   UNL     1      43.247  -7.996  10.552  1.00  0.00    -0.027 A 
HETATM   18  C   UNL     1      42.791  -7.638  11.825  1.00  0.00    -0.047 A 
HETATM   19  C   UNL     1      43.282  -7.063   9.523  1.00  0.00     0.010 A 
HETATM   20  C   UNL     1      42.342  -6.354  12.090  1.00  0.00     0.008 A 
HETATM   21  C   UNL     1      42.922  -8.777  12.794  1.00  0.00     0.073 C 
HETATM   22  C   UNL     1      42.350  -5.420  11.053  1.00  0.00     0.001 A 
HETATM   23  C   UNL     1      42.821  -5.771   9.779  1.00  0.00     0.001 A 
HETATM   24  C   UNL     1      43.098  -9.981  11.853  1.00  0.00     0.149 C 
BRANCH  24  25
HETATM   25  O   UNL     1      41.810 -10.582  11.628  1.00  0.00    -0.393 OA
HETATM   26  H   UNL     1      41.992 -11.520  11.441  1.00  0.00     0.210 HD
ENDBRANCH  24  25
ENDBRANCH  13  16
ENDBRANCH   1  12
BRANCH   5  27
HETATM   27  C   UNL     1      41.117 -13.465   3.011  1.00  0.00     0.095 C 
HETATM   28  C   UNL     1      39.719 -12.936   3.327  1.00  0.00     0.026 C 
HETATM   29  C   UNL     1      39.196 -12.497   1.968  1.00  0.00     0.002 C 
HETATM   30  C   UNL     1      40.390 -11.804   1.336  1.00  0.00     0.002 C 
HETATM   31  C   UNL     1      41.625 -12.469   1.945  1.00  0.00     0.026 C 
ENDBRANCH   5  27
TORSDOF 4
ENDMDL
MODEL 7
REMARK VINA RESULT:      -8.6      5.383      8.002
REMARK  4 active torsions:
REMARK  status: ('A' for Active; 'I' for Inactive)
REMARK    1  A    between atoms: C_5  and  N_6 
REMARK       I    between atoms: N_6  and  C_7 
REMARK    2  A    between atoms: C_7  and  C_8 
REMARK    3  A    between atoms: N_12  and  C_13 
REMARK    4  A    between atoms: C_24  and  O_25 
ROOT
HETATM    1  C   UNL     1      43.075 -10.942   5.362  1.00  0.00     0.034 A 
HETATM    2  C   UNL     1      44.141 -11.311   6.189  1.00  0.00     0.049 A 
HETATM    3  C   UNL     1      44.260 -10.640   7.389  1.00  0.00     0.064 A 
HETATM    4  C   UNL     1      43.377  -9.643   7.818  1.00  0.00     0.066 A 
HETATM    5  N   UNL     1      43.816  -9.207   9.088  1.00  0.00    -0.293 N 
HETATM    6  C   UNL     1      45.025  -9.893   9.389  1.00  0.00     0.328 A 
HETATM    7  O   UNL     1      45.761  -9.743  10.349  1.00  0.00    -0.247 OA
HETATM    8  N   UNL     1      45.247 -10.799   8.348  1.00  0.00    -0.306 N 
HETATM    9  C   UNL     1      42.323  -9.274   7.010  1.00  0.00     0.033 A 
HETATM   10  C   UNL     1      42.173  -9.934   5.780  1.00  0.00     0.019 A 
HETATM   11  H   UNL     1      46.045 -11.412   8.318  1.00  0.00     0.171 HD
ENDROOT
BRANCH   1  12
HETATM   12  C   UNL     1      42.824 -11.596   4.046  1.00  0.00     0.252 C 
HETATM   13  N   UNL     1      41.962 -12.666   4.034  1.00  0.00    -0.346 N 
HETATM   14  H   UNL     1      41.520 -13.006   4.876  1.00  0.00     0.163 HD
HETATM   15  O   UNL     1      43.364 -11.173   3.032  1.00  0.00    -0.268 OA
BRANCH  13  16
HETATM   16  C   UNL     1      41.625 -13.349   2.799  1.00  0.00     0.147 C 
HETATM   17  C   UNL     1      42.060 -14.791   2.808  1.00  0.00    -0.027 A 
HETATM   18  C   UNL     1      41.061 -15.616   2.280  1.00  0.00    -0.047 A 
HETATM   19  C   UNL     1      43.281 -15.320   3.204  1.00  0.00     0.010 A 
HETATM   20  C   UNL     1      41.252 -16.983   2.157  1.00  0.00     0.008 A 
HETATM   21  C   UNL     1      39.867 -14.819   1.843  1.00  0.00     0.073 C 
HETATM   22  C   UNL     1      42.468 -17.524   2.578  1.00  0.00     0.001 A 
HETATM   23  C   UNL     1      43.477 -16.698   3.095  1.00  0.00     0.001 A 
HETATM   24  C   UNL     1      40.088 -13.481   2.570  1.00  0.00     0.149 C 
BRANCH  24  25
HETATM   25  O   UNL     1      39.366 -13.509   3.815  1.00  0.00    -0.393 OA
HETATM   26  H   UNL     1      39.281 -12.577   4.084  1.00  0.00     0.210 HD
ENDBRANCH  24  25
ENDBRANCH  13  16
ENDBRANCH   1  12
BRANCH   5  27
HETATM   27  C   UNL     1      43.345  -8.111   9.910  1.00  0.00     0.095 C 
HETATM   28  C   UNL     1      43.324  -6.703   9.317  1.00  0.00     0.026 C 
HETATM   29  C   UNL     1      42.419  -5.937  10.270  1.00  0.00     0.002 C 
HETATM   30  C   UNL     1      41.283  -6.909  10.538  1.00  0.00     0.002 C 
HETATM   31  C   UNL     1      41.887  -8.304  10.381  1.00  0.00     0.026 C 
ENDBRANCH   5  27
TORSDOF 4
ENDMDL
MODEL 8
REMARK VINA RESULT:      -8.6      7.764     10.701
REMARK  4 active torsions:
REMARK  status: ('A' for Active; 'I' for Inactive)
REMARK    1  A    between atoms: C_5  and  N_6 
REMARK       I    between atoms: N_6  and  C_7 
REMARK    2  A    between atoms: C_7  and  C_8 
REMARK    3  A    between atoms: N_12  and  C_13 
REMARK    4  A    between atoms: C_24  and  O_25 
ROOT
HETATM    1  C   UNL     1      43.253 -10.150   9.274  1.00  0.00     0.034 A 
HETATM    2  C   UNL     1      42.214  -9.287   8.912  1.00  0.00     0.049 A 
HETATM    3  C   UNL     1      41.676  -8.504   9.913  1.00  0.00     0.064 A 
HETATM    4  C   UNL     1      42.120  -8.518  11.240  1.00  0.00     0.066 A 
HETATM    5  N   UNL     1      41.341  -7.583  11.957  1.00  0.00    -0.293 N 
HETATM    6  C   UNL     1      40.362  -7.060  11.066  1.00  0.00     0.328 A 
HETATM    7  O   UNL     1      39.449  -6.291  11.314  1.00  0.00    -0.247 OA
HETATM    8  N   UNL     1      40.623  -7.610   9.809  1.00  0.00    -0.306 N 
HETATM    9  C   UNL     1      43.144  -9.365  11.606  1.00  0.00     0.033 A 
HETATM   10  C   UNL     1      43.714 -10.178  10.612  1.00  0.00     0.019 A 
HETATM   11  H   UNL     1      40.068  -7.401   8.995  1.00  0.00     0.171 HD
ENDROOT
BRANCH   1  12
HETATM   12  C   UNL     1      43.931 -11.039   8.288  1.00  0.00     0.252 C 
HETATM   13  N   UNL     1      43.140 -11.638   7.338  1.00  0.00    -0.346 N 
HETATM   14  H   UNL     1      42.142 -11.494   7.306  1.00  0.00     0.163 HD
HETATM   15  O   UNL     1      45.144 -11.205   8.336  1.00  0.00    -0.268 OA
BRANCH  13  16
HETATM   16  C   UNL     1      43.709 -12.494   6.313  1.00  0.00     0.147 C 
HETATM   17  C   UNL     1      43.203 -13.908   6.406  1.00  0.00    -0.027 A 
HETATM   18  C   UNL     1      42.892 -14.411   5.138  1.00  0.00    -0.047 A 
HETATM   19  C   UNL     1      43.085 -14.709   7.535  1.00  0.00     0.010 A 
HETATM   20  C   UNL     1      42.437 -15.710   4.974  1.00  0.00     0.008 A 
HETATM   21  C   UNL     1      43.174 -13.402   4.064  1.00  0.00     0.073 C 
HETATM   22  C   UNL     1      42.292 -16.511   6.109  1.00  0.00     0.001 A 
HETATM   23  C   UNL     1      42.617 -16.015   7.380  1.00  0.00     0.001 A 
HETATM   24  C   UNL     1      43.274 -12.094   4.869  1.00  0.00     0.149 C 
BRANCH  24  25
HETATM   25  O   UNL     1      41.988 -11.449   4.861  1.00  0.00    -0.393 OA
HETATM   26  H   UNL     1      41.399 -12.041   5.361  1.00  0.00     0.210 HD
ENDBRANCH  24  25
ENDBRANCH  13  16
ENDBRANCH   1  12
BRANCH   5  27
HETATM   27  C   UNL     1      41.296  -7.304  13.376  1.00  0.00     0.095 C 
HETATM   28  C   UNL     1      41.098  -8.465  14.350  1.00  0.00     0.026 C 
HETATM   29  C   UNL     1      41.512  -7.872  15.688  1.00  0.00     0.002 C 
HETATM   30  C   UNL     1      42.758  -7.071  15.352  1.00  0.00     0.002 C 
HETATM   31  C   UNL     1      42.591  -6.642  13.894  1.00  0.00     0.026 C 
ENDBRANCH   5  27
TORSDOF 4
ENDMDL
MODEL 9
REMARK VINA RESULT:      -8.6     13.802     17.391
REMARK  4 active torsions:
REMARK  status: ('A' for Active; 'I' for Inactive)
REMARK    1  A    between atoms: C_5  and  N_6 
REMARK       I    between atoms: N_6  and  C_7 
REMARK    2  A    between atoms: C_7  and  C_8 
REMARK    3  A    between atoms: N_12  and  C_13 
REMARK    4  A    between atoms: C_24  and  O_25 
ROOT
HETATM    1  C   UNL     1      41.816  -6.907  15.537  1.00  0.00     0.034 A 
HETATM    2  C   UNL     1      40.714  -7.607  15.035  1.00  0.00     0.049 A 
HETATM    3  C   UNL     1      40.894  -8.282  13.844  1.00  0.00     0.064 A 
HETATM    4  C   UNL     1      42.103  -8.314  13.139  1.00  0.00     0.066 A 
HETATM    5  N   UNL     1      41.900  -9.107  11.988  1.00  0.00    -0.293 N 
HETATM    6  C   UNL     1      40.530  -9.489  11.960  1.00  0.00     0.328 A 
HETATM    7  O   UNL     1      39.935 -10.105  11.092  1.00  0.00    -0.247 OA
HETATM    8  N   UNL     1      39.949  -9.005  13.135  1.00  0.00    -0.306 N 
HETATM    9  C   UNL     1      43.194  -7.628  13.628  1.00  0.00     0.033 A 
HETATM   10  C   UNL     1      43.046  -6.928  14.837  1.00  0.00     0.019 A 
HETATM   11  H   UNL     1      38.978  -9.140  13.361  1.00  0.00     0.171 HD
ENDROOT
BRANCH   1  12
HETATM   12  C   UNL     1      41.761  -6.149  16.820  1.00  0.00     0.252 C 
HETATM   13  N   UNL     1      42.015  -6.851  17.973  1.00  0.00    -0.346 N 
HETATM   14  H   UNL     1      42.223  -7.839  17.963  1.00  0.00     0.163 HD
HETATM   15  O   UNL     1      41.509  -4.950  16.819  1.00  0.00    -0.268 OA
BRANCH  13  16
HETATM   16  C   UNL     1      42.019  -6.197  19.269  1.00  0.00     0.147 C 
HETATM   17  C   UNL     1      41.219  -6.956  20.293  1.00  0.00    -0.027 A 
HETATM   18  C   UNL     1      41.897  -7.009  21.516  1.00  0.00    -0.047 A 
HETATM   19  C   UNL     1      39.952  -7.508  20.160  1.00  0.00     0.010 A 
HETATM   20  C   UNL     1      41.335  -7.631  22.620  1.00  0.00     0.008 A 
HETATM   21  C   UNL     1      43.205  -6.277  21.449  1.00  0.00     0.073 C 
HETATM   22  C   UNL     1      40.072  -8.210  22.485  1.00  0.00     0.001 A 
HETATM   23  C   UNL     1      39.384  -8.146  21.264  1.00  0.00     0.001 A 
HETATM   24  C   UNL     1      43.431  -6.159  19.931  1.00  0.00     0.149 C 
BRANCH  24  25
HETATM   25  O   UNL     1      44.251  -7.260  19.500  1.00  0.00    -0.393 OA
HETATM   26  H   UNL     1      44.598  -6.996  18.630  1.00  0.00     0.210 HD
ENDBRANCH  24  25
ENDBRANCH  13  16
ENDBRANCH   1  12
BRANCH   5  27
HETATM   27  C   UNL     1      42.776  -9.354  10.862  1.00  0.00     0.095 C 
HETATM   28  C   UNL     1      43.459  -8.165  10.187  1.00  0.00     0.026 C 
HETATM   29  C   UNL     1      44.566  -8.816   9.373  1.00  0.00     0.002 C 
HETATM   30  C   UNL     1      45.127  -9.868  10.314  1.00  0.00     0.002 C 
HETATM   31  C   UNL     1      43.965 -10.270  11.223  1.00  0.00     0.026 C 
ENDBRANCH   5  27
TORSDOF 4
ENDMDL
MODEL 10
REMARK VINA RESULT:      -8.5      3.407      4.443
REMARK  4 active torsions:
REMARK  status: ('A' for Active; 'I' for Inactive)
REMARK    1  A    between atoms: C_5  and  N_6 
REMARK       I    between atoms: N_6  and  C_7 
REMARK    2  A    between atoms: C_7  and  C_8 
REMARK    3  A    between atoms: N_12  and  C_13 
REMARK    4  A    between atoms: C_24  and  O_25 
ROOT
HETATM    1  C   UNL     1      40.056 -13.120   0.985  1.00  0.00     0.034 A 
HETATM    2  C   UNL     1      39.761 -13.110   2.352  1.00  0.00     0.049 A 
HETATM    3  C   UNL     1      40.287 -14.135   3.112  1.00  0.00     0.064 A 
HETATM    4  C   UNL     1      41.098 -15.152   2.596  1.00  0.00     0.066 A 
HETATM    5  N   UNL     1      41.447 -16.000   3.671  1.00  0.00    -0.293 N 
HETATM    6  C   UNL     1      40.770 -15.532   4.831  1.00  0.00     0.328 A 
HETATM    7  O   UNL     1      40.740 -16.032   5.942  1.00  0.00    -0.247 OA
HETATM    8  N   UNL     1      40.103 -14.360   4.466  1.00  0.00    -0.306 N 
HETATM    9  C   UNL     1      41.395 -15.170   1.251  1.00  0.00     0.033 A 
HETATM   10  C   UNL     1      40.874 -14.142   0.447  1.00  0.00     0.019 A 
HETATM   11  H   UNL     1      39.542 -13.826   5.110  1.00  0.00     0.171 HD
ENDROOT
BRANCH   1  12
HETATM   12  C   UNL     1      39.563 -12.064   0.055  1.00  0.00     0.252 C 
HETATM   13  N   UNL     1      40.511 -11.315  -0.599  1.00  0.00    -0.346 N 
HETATM   14  H   UNL     1      41.499 -11.461  -0.457  1.00  0.00     0.163 HD
HETATM   15  O   UNL     1      38.361 -11.898  -0.110  1.00  0.00    -0.268 OA
BRANCH  13  16
HETATM   16  C   UNL     1      40.134 -10.286  -1.551  1.00  0.00     0.147 C 
HETATM   17  C   UNL     1      41.183  -9.214  -1.677  1.00  0.00    -0.027 A 
HETATM   18  C   UNL     1      41.386  -8.871  -3.018  1.00  0.00    -0.047 A 
HETATM   19  C   UNL     1      41.864  -8.551  -0.665  1.00  0.00     0.010 A 
HETATM   20  C   UNL     1      42.285  -7.879  -3.375  1.00  0.00     0.008 A 
HETATM   21  C   UNL     1      40.485  -9.655  -3.927  1.00  0.00     0.073 C 
HETATM   22  C   UNL     1      42.992  -7.227  -2.363  1.00  0.00     0.001 A 
HETATM   23  C   UNL     1      42.780  -7.558  -1.017  1.00  0.00     0.001 A 
HETATM   24  C   UNL     1      40.037 -10.812  -3.016  1.00  0.00     0.149 C 
BRANCH  24  25
HETATM   25  O   UNL     1      40.909 -11.936  -3.236  1.00  0.00    -0.393 OA
HETATM   26  H   UNL     1      41.801 -11.557  -3.320  1.00  0.00     0.210 HD
ENDBRANCH  24  25
ENDBRANCH  13  16
ENDBRANCH   1  12
BRANCH   5  27
HETATM   27  C   UNL     1      42.152 -17.265   3.667  1.00  0.00     0.095 C 
HETATM   28  C   UNL     1      42.654 -17.824   2.337  1.00  0.00     0.026 C 
HETATM   29  C   UNL     1      43.659 -18.884   2.761  1.00  0.00     0.002 C 
HETATM   30  C   UNL     1      44.416 -18.221   3.898  1.00  0.00     0.002 C 
HETATM   31  C   UNL     1      43.433 -17.234   4.529  1.00  0.00     0.026 C 
ENDBRANCH   5  27
TORSDOF 4
ENDMDL
