MODEL 1
REMARK VINA RESULT:      -9.9      0.000      0.000
REMARK  6 active torsions:
REMARK  status: ('A' for Active; 'I' for Inactive)
REMARK    1  A    between atoms: C_7  and  C_8 
REMARK    2  A    between atoms: C_8  and  O_9 
REMARK    3  A    between atoms: O_9  and  C_10 
REMARK    4  A    between atoms: C_10  and  C_11 
REMARK       I    between atoms: C_11  and  N_12 
REMARK    5  A    between atoms: N_12  and  N_13 
REMARK    6  A    between atoms: C_17  and  C_18 
ROOT
HETATM    1  C   UNL     1      43.152 -12.866   6.656  1.00  0.00     0.261 C 
HETATM    2  N   UNL     1      42.024 -12.794   5.867  1.00  0.00    -0.255 N 
HETATM    3  O   UNL     1      43.726 -13.918   6.933  1.00  0.00    -0.269 OA
HETATM    4  H   UNL     1      41.701 -11.898   5.499  1.00  0.00     0.191 HD
ENDROOT
BRANCH   1   5
HETATM    5  C   UNL     1      43.671 -11.504   7.125  1.00  0.00     0.283 C 
BRANCH   5   6
HETATM    6  O   UNL     1      44.633 -11.558   8.180  1.00  0.00    -0.308 OA
BRANCH   6   7
HETATM    7  C   UNL     1      45.387 -10.444   8.344  1.00  0.00     0.293 C 
HETATM    8  O   UNL     1      46.506 -10.283   7.878  1.00  0.00    -0.259 OA
BRANCH   7   9
HETATM    9  C   UNL     1      44.643  -9.398   9.092  1.00  0.00     0.040 A 
HETATM   10  C   UNL     1      44.486  -8.146   8.487  1.00  0.00     0.020 A 
HETATM   11  C   UNL     1      43.754  -7.130   9.106  1.00  0.00     0.031 A 
HETATM   12  C   UNL     1      43.184  -7.411  10.353  1.00  0.00     0.043 A 
HETATM   13  C   UNL     1      43.336  -8.637  10.998  1.00  0.00    -0.001 A 
HETATM   14  N   UNL     1      42.402  -6.623  11.162  1.00  0.00    -0.359 N 
HETATM   15  C   UNL     1      42.629  -8.558  12.241  1.00  0.00    -0.027 A 
HETATM   16  C   UNL     1      44.083  -9.648  10.357  1.00  0.00     0.032 A 
HETATM   17  C   UNL     1      42.519  -9.625  13.274  1.00  0.00     0.051 C 
HETATM   18  C   UNL     1      42.042  -7.304  12.297  1.00  0.00     0.012 A 
HETATM   19  C   UNL     1      41.162  -6.695  13.327  1.00  0.00     0.068 C 
HETATM   20  H   UNL     1      42.118  -5.680  10.936  1.00  0.00     0.166 HD
ENDBRANCH   7   9
ENDBRANCH   6   7
ENDBRANCH   5   6
ENDBRANCH   1   5
BRANCH   2  21
HETATM   21  N   UNL     1      41.599 -13.937   5.226  1.00  0.00    -0.167 N 
HETATM   22  C   UNL     1      40.576 -14.730   5.668  1.00  0.00     0.345 A 
HETATM   23  O   UNL     1      39.866 -14.588   6.650  1.00  0.00    -0.245 OA
HETATM   24  N   UNL     1      40.415 -15.750   4.749  1.00  0.00    -0.319 N 
HETATM   25  C   UNL     1      41.338 -15.651   3.630  1.00  0.00     0.141 A 
HETATM   26  H   UNL     1      39.699 -16.455   4.866  1.00  0.00     0.166 HD
HETATM   27  C   UNL     1      42.072 -14.336   4.003  1.00  0.00     0.279 A 
HETATM   28  C   UNL     1      40.542 -15.443   2.339  1.00  0.00     0.055 C 
HETATM   29  O   UNL     1      42.891 -13.741   3.309  1.00  0.00    -0.268 OA
BRANCH  25  30
HETATM   30  C   UNL     1      42.302 -16.830   3.540  1.00  0.00    -0.021 A 
HETATM   31  C   UNL     1      43.174 -17.174   4.588  1.00  0.00     0.010 A 
HETATM   32  C   UNL     1      44.048 -18.259   4.474  1.00  0.00     0.001 A 
HETATM   33  C   UNL     1      44.072 -19.019   3.308  1.00  0.00     0.000 A 
HETATM   34  C   UNL     1      43.224 -18.695   2.255  1.00  0.00     0.001 A 
HETATM   35  C   UNL     1      42.350 -17.612   2.369  1.00  0.00     0.010 A 
ENDBRANCH  25  30
ENDBRANCH   2  21
TORSDOF 6
ENDMDL
MODEL 2
REMARK VINA RESULT:      -9.7      0.744      1.733
REMARK  6 active torsions:
REMARK  status: ('A' for Active; 'I' for Inactive)
REMARK    1  A    between atoms: C_7  and  C_8 
REMARK    2  A    between atoms: C_8  and  O_9 
REMARK    3  A    between atoms: O_9  and  C_10 
REMARK    4  A    between atoms: C_10  and  C_11 
REMARK       I    between atoms: C_11  and  N_12 
REMARK    5  A    between atoms: N_12  and  N_13 
REMARK    6  A    between atoms: C_17  and  C_18 
ROOT
HETATM    1  C   UNL     1      43.381 -12.759   6.469  1.00  0.00     0.261 C 
HETATM    2  N   UNL     1      42.247 -12.654   5.692  1.00  0.00    -0.255 N 
HETATM    3  O   UNL     1      43.901 -13.829   6.779  1.00  0.00    -0.269 OA
HETATM    4  H   UNL     1      41.968 -11.757   5.294  1.00  0.00     0.191 HD
ENDROOT
BRANCH   1   5
HETATM    5  C   UNL     1      43.979 -11.411   6.881  1.00  0.00     0.283 C 
BRANCH   5   6
HETATM    6  O   UNL     1      44.901 -11.469   7.971  1.00  0.00    -0.308 OA
BRANCH   6   7
HETATM    7  C   UNL     1      45.369 -10.275   8.408  1.00  0.00     0.293 C 
HETATM    8  O   UNL     1      46.319  -9.677   7.923  1.00  0.00    -0.259 OA
BRANCH   7   9
HETATM    9  C   UNL     1      44.521  -9.735   9.502  1.00  0.00     0.040 A 
HETATM   10  C   UNL     1      44.260 -10.564  10.599  1.00  0.00     0.020 A 
HETATM   11  C   UNL     1      43.515 -10.107  11.690  1.00  0.00     0.031 A 
HETATM   12  C   UNL     1      43.041  -8.792  11.644  1.00  0.00     0.043 A 
HETATM   13  C   UNL     1      43.261  -7.943  10.560  1.00  0.00    -0.001 A 
HETATM   14  N   UNL     1      42.320  -8.082  12.573  1.00  0.00    -0.359 N 
HETATM   15  C   UNL     1      42.630  -6.692  10.860  1.00  0.00    -0.027 A 
HETATM   16  C   UNL     1      44.012  -8.426   9.467  1.00  0.00     0.032 A 
HETATM   17  C   UNL     1      42.589  -5.483   9.992  1.00  0.00     0.051 C 
HETATM   18  C   UNL     1      42.078  -6.808  12.126  1.00  0.00     0.012 A 
HETATM   19  C   UNL     1      41.349  -5.815  12.956  1.00  0.00     0.068 C 
HETATM   20  H   UNL     1      42.029  -8.448  13.469  1.00  0.00     0.166 HD
ENDBRANCH   7   9
ENDBRANCH   6   7
ENDBRANCH   5   6
ENDBRANCH   1   5
BRANCH   2  21
HETATM   21  N   UNL     1      41.752 -13.796   5.099  1.00  0.00    -0.167 N 
HETATM   22  C   UNL     1      40.720 -14.537   5.604  1.00  0.00     0.345 A 
HETATM   23  O   UNL     1      40.058 -14.343   6.611  1.00  0.00    -0.245 OA
HETATM   24  N   UNL     1      40.481 -15.572   4.720  1.00  0.00    -0.319 N 
HETATM   25  C   UNL     1      41.359 -15.537   3.561  1.00  0.00     0.141 A 
HETATM   26  H   UNL     1      39.745 -16.245   4.885  1.00  0.00     0.166 HD
HETATM   27  C   UNL     1      42.158 -14.243   3.868  1.00  0.00     0.279 A 
HETATM   28  C   UNL     1      40.518 -15.330   2.299  1.00  0.00     0.055 C 
HETATM   29  O   UNL     1      42.968 -13.698   3.126  1.00  0.00    -0.268 OA
BRANCH  25  30
HETATM   30  C   UNL     1      42.273 -16.754   3.462  1.00  0.00    -0.021 A 
HETATM   31  C   UNL     1      42.293 -17.593   2.334  1.00  0.00     0.010 A 
HETATM   32  C   UNL     1      43.141 -18.703   2.274  1.00  0.00     0.001 A 
HETATM   33  C   UNL     1      43.982 -19.001   3.343  1.00  0.00     0.000 A 
HETATM   34  C   UNL     1      43.975 -18.190   4.472  1.00  0.00     0.001 A 
HETATM   35  C   UNL     1      43.130 -17.080   4.532  1.00  0.00     0.010 A 
ENDBRANCH  25  30
ENDBRANCH   2  21
TORSDOF 6
ENDMDL
MODEL 3
REMARK VINA RESULT:      -9.7      2.052     10.263
REMARK  6 active torsions:
REMARK  status: ('A' for Active; 'I' for Inactive)
REMARK    1  A    between atoms: C_7  and  C_8 
REMARK    2  A    between atoms: C_8  and  O_9 
REMARK    3  A    between atoms: O_9  and  C_10 
REMARK    4  A    between atoms: C_10  and  C_11 
REMARK       I    between atoms: C_11  and  N_12 
REMARK    5  A    between atoms: N_12  and  N_13 
REMARK    6  A    between atoms: C_17  and  C_18 
ROOT
HETATM    1  C   UNL     1      44.503 -11.161   7.788  1.00  0.00     0.261 C 
HETATM    2  N   UNL     1      43.795 -10.064   7.344  1.00  0.00    -0.255 N 
HETATM    3  O   UNL     1      44.958 -11.267   8.925  1.00  0.00    -0.269 OA
HETATM    4  H   UNL     1      43.267 -10.102   6.472  1.00  0.00     0.191 HD
ENDROOT
BRANCH   1   5
HETATM    5  C   UNL     1      44.636 -12.278   6.748  1.00  0.00     0.283 C 
BRANCH   5   6
HETATM    6  O   UNL     1      43.415 -12.941   6.416  1.00  0.00    -0.308 OA
BRANCH   6   7
HETATM    7  C   UNL     1      43.336 -14.242   6.781  1.00  0.00     0.293 C 
HETATM    8  O   UNL     1      43.276 -14.642   7.936  1.00  0.00    -0.259 OA
BRANCH   7   9
HETATM    9  C   UNL     1      43.240 -15.128   5.592  1.00  0.00     0.040 A 
HETATM   10  C   UNL     1      42.866 -14.551   4.374  1.00  0.00     0.020 A 
HETATM   11  C   UNL     1      42.805 -15.310   3.202  1.00  0.00     0.031 A 
HETATM   12  C   UNL     1      43.132 -16.667   3.293  1.00  0.00     0.043 A 
HETATM   13  C   UNL     1      43.488 -17.284   4.492  1.00  0.00    -0.001 A 
HETATM   14  N   UNL     1      43.186 -17.629   2.314  1.00  0.00    -0.359 N 
HETATM   15  C   UNL     1      43.744 -18.663   4.205  1.00  0.00    -0.027 A 
HETATM   16  C   UNL     1      43.539 -16.499   5.664  1.00  0.00     0.032 A 
HETATM   17  C   UNL     1      44.145 -19.717   5.178  1.00  0.00     0.051 C 
HETATM   18  C   UNL     1      43.572 -18.835   2.841  1.00  0.00     0.012 A 
HETATM   19  C   UNL     1      43.747 -20.039   1.989  1.00  0.00     0.068 C 
HETATM   20  H   UNL     1      42.988 -17.459   1.337  1.00  0.00     0.166 HD
ENDBRANCH   7   9
ENDBRANCH   6   7
ENDBRANCH   5   6
ENDBRANCH   1   5
BRANCH   2  21
HETATM   21  N   UNL     1      43.441  -9.099   8.262  1.00  0.00    -0.167 N 
HETATM   22  C   UNL     1      44.270  -8.092   8.675  1.00  0.00     0.345 A 
HETATM   23  O   UNL     1      45.414  -7.849   8.325  1.00  0.00    -0.245 OA
HETATM   24  N   UNL     1      43.557  -7.304   9.559  1.00  0.00    -0.319 N 
HETATM   25  C   UNL     1      42.191  -7.766   9.750  1.00  0.00     0.141 A 
HETATM   26  H   UNL     1      43.970  -6.485   9.983  1.00  0.00     0.166 HD
HETATM   27  C   UNL     1      42.174  -8.967   8.769  1.00  0.00     0.279 A 
HETATM   28  C   UNL     1      41.223  -6.689   9.255  1.00  0.00     0.055 C 
HETATM   29  O   UNL     1      41.196  -9.644   8.468  1.00  0.00    -0.268 OA
BRANCH  25  30
HETATM   30  C   UNL     1      41.899  -8.202  11.182  1.00  0.00    -0.021 A 
HETATM   31  C   UNL     1      40.602  -8.514  11.626  1.00  0.00     0.010 A 
HETATM   32  C   UNL     1      40.366  -8.909  12.946  1.00  0.00     0.001 A 
HETATM   33  C   UNL     1      41.421  -8.996  13.850  1.00  0.00     0.000 A 
HETATM   34  C   UNL     1      42.711  -8.687  13.436  1.00  0.00     0.001 A 
HETATM   35  C   UNL     1      42.948  -8.294  12.118  1.00  0.00     0.010 A 
ENDBRANCH  25  30
ENDBRANCH   2  21
TORSDOF 6
ENDMDL
MODEL 4
REMARK VINA RESULT:      -9.5      2.099     10.055
REMARK  6 active torsions:
REMARK  status: ('A' for Active; 'I' for Inactive)
REMARK    1  A    between atoms: C_7  and  C_8 
REMARK    2  A    between atoms: C_8  and  O_9 
REMARK    3  A    between atoms: O_9  and  C_10 
REMARK    4  A    between atoms: C_10  and  C_11 
REMARK       I    between atoms: C_11  and  N_12 
REMARK    5  A    between atoms: N_12  and  N_13 
REMARK    6  A    between atoms: C_17  and  C_18 
ROOT
HETATM    1  C   UNL     1      42.589 -11.116   5.780  1.00  0.00     0.261 C 
HETATM    2  N   UNL     1      42.565 -11.437   7.121  1.00  0.00    -0.255 N 
HETATM    3  O   UNL     1      43.015 -10.050   5.340  1.00  0.00    -0.269 OA
HETATM    4  H   UNL     1      42.394 -12.396   7.425  1.00  0.00     0.191 HD
ENDROOT
BRANCH   1   5
HETATM    5  C   UNL     1      42.078 -12.232   4.864  1.00  0.00     0.283 C 
BRANCH   5   6
HETATM    6  O   UNL     1      43.098 -12.993   4.216  1.00  0.00    -0.308 OA
BRANCH   6   7
HETATM    7  C   UNL     1      42.734 -13.600   3.062  1.00  0.00     0.293 C 
HETATM    8  O   UNL     1      42.322 -13.020   2.066  1.00  0.00    -0.259 OA
BRANCH   7   9
HETATM    9  C   UNL     1      42.983 -15.064   3.123  1.00  0.00     0.040 A 
HETATM   10  C   UNL     1      43.131 -15.755   1.915  1.00  0.00     0.020 A 
HETATM   11  C   UNL     1      43.420 -17.122   1.894  1.00  0.00     0.031 A 
HETATM   12  C   UNL     1      43.555 -17.773   3.126  1.00  0.00     0.043 A 
HETATM   13  C   UNL     1      43.393 -17.125   4.349  1.00  0.00    -0.001 A 
HETATM   14  N   UNL     1      43.860 -19.084   3.401  1.00  0.00    -0.359 N 
HETATM   15  C   UNL     1      43.595 -18.098   5.381  1.00  0.00    -0.027 A 
HETATM   16  C   UNL     1      43.097 -15.745   4.347  1.00  0.00     0.032 A 
HETATM   17  C   UNL     1      43.512 -17.871   6.850  1.00  0.00     0.051 C 
HETATM   18  C   UNL     1      43.908 -19.294   4.755  1.00  0.00     0.012 A 
HETATM   19  C   UNL     1      44.257 -20.621   5.327  1.00  0.00     0.068 C 
HETATM   20  H   UNL     1      44.045 -19.785   2.697  1.00  0.00     0.166 HD
ENDBRANCH   7   9
ENDBRANCH   6   7
ENDBRANCH   5   6
ENDBRANCH   1   5
BRANCH   2  21
HETATM   21  N   UNL     1      43.192 -10.589   8.008  1.00  0.00    -0.167 N 
HETATM   22  C   UNL     1      44.521 -10.654   8.323  1.00  0.00     0.345 A 
HETATM   23  O   UNL     1      45.373 -11.417   7.897  1.00  0.00    -0.245 OA
HETATM   24  N   UNL     1      44.789  -9.625   9.205  1.00  0.00    -0.319 N 
HETATM   25  C   UNL     1      43.618  -8.813   9.496  1.00  0.00     0.141 A 
HETATM   26  H   UNL     1      45.721  -9.470   9.565  1.00  0.00     0.166 HD
HETATM   27  C   UNL     1      42.576  -9.504   8.578  1.00  0.00     0.279 A 
HETATM   28  C   UNL     1      43.863  -7.383   9.004  1.00  0.00     0.055 C 
HETATM   29  O   UNL     1      41.429  -9.123   8.367  1.00  0.00    -0.268 OA
BRANCH  25  30
HETATM   30  C   UNL     1      43.200  -8.863  10.962  1.00  0.00    -0.021 A 
HETATM   31  C   UNL     1      43.179  -7.720  11.781  1.00  0.00     0.010 A 
HETATM   32  C   UNL     1      42.793  -7.800  13.122  1.00  0.00     0.001 A 
HETATM   33  C   UNL     1      42.426  -9.023  13.674  1.00  0.00     0.000 A 
HETATM   34  C   UNL     1      42.446 -10.169  12.887  1.00  0.00     0.001 A 
HETATM   35  C   UNL     1      42.829 -10.090  11.546  1.00  0.00     0.010 A 
ENDBRANCH  25  30
ENDBRANCH   2  21
TORSDOF 6
ENDMDL
MODEL 5
REMARK VINA RESULT:      -9.5      6.919     10.697
REMARK  6 active torsions:
REMARK  status: ('A' for Active; 'I' for Inactive)
REMARK    1  A    between atoms: C_7  and  C_8 
REMARK    2  A    between atoms: C_8  and  O_9 
REMARK    3  A    between atoms: O_9  and  C_10 
REMARK    4  A    between atoms: C_10  and  C_11 
REMARK       I    between atoms: C_11  and  N_12 
REMARK    5  A    between atoms: N_12  and  N_13 
REMARK    6  A    between atoms: C_17  and  C_18 
ROOT
HETATM    1  C   UNL     1      39.933 -13.672  -0.296  1.00  0.00     0.261 C 
HETATM    2  N   UNL     1      40.962 -12.777  -0.503  1.00  0.00    -0.255 N 
HETATM    3  O   UNL     1      38.868 -13.643  -0.909  1.00  0.00    -0.269 OA
HETATM    4  H   UNL     1      41.893 -12.956  -0.126  1.00  0.00     0.191 HD
ENDROOT
BRANCH   1   5
HETATM    5  C   UNL     1      40.249 -14.753   0.742  1.00  0.00     0.283 C 
BRANCH   5   6
HETATM    6  O   UNL     1      41.622 -15.140   0.809  1.00  0.00    -0.308 OA
BRANCH   6   7
HETATM    7  C   UNL     1      42.343 -14.575   1.808  1.00  0.00     0.293 C 
HETATM    8  O   UNL     1      42.509 -13.372   1.956  1.00  0.00    -0.259 OA
BRANCH   7   9
HETATM    9  C   UNL     1      42.834 -15.603   2.762  1.00  0.00     0.040 A 
HETATM   10  C   UNL     1      43.042 -15.217   4.091  1.00  0.00     0.020 A 
HETATM   11  C   UNL     1      43.453 -16.140   5.056  1.00  0.00     0.031 A 
HETATM   12  C   UNL     1      43.649 -17.463   4.644  1.00  0.00     0.043 A 
HETATM   13  C   UNL     1      43.474 -17.882   3.326  1.00  0.00    -0.001 A 
HETATM   14  N   UNL     1      44.017 -18.568   5.372  1.00  0.00    -0.359 N 
HETATM   15  C   UNL     1      43.767 -19.283   3.278  1.00  0.00    -0.027 A 
HETATM   16  C   UNL     1      43.063 -16.931   2.366  1.00  0.00     0.032 A 
HETATM   17  C   UNL     1      43.727 -20.162   2.077  1.00  0.00     0.051 C 
HETATM   18  C   UNL     1      44.075 -19.679   4.569  1.00  0.00     0.012 A 
HETATM   19  C   UNL     1      44.413 -21.019   5.114  1.00  0.00     0.068 C 
HETATM   20  H   UNL     1      44.197 -18.560   6.367  1.00  0.00     0.166 HD
ENDBRANCH   7   9
ENDBRANCH   6   7
ENDBRANCH   5   6
ENDBRANCH   1   5
BRANCH   2  21
HETATM   21  N   UNL     1      40.861 -11.896  -1.558  1.00  0.00    -0.167 N 
HETATM   22  C   UNL     1      41.090 -12.232  -2.864  1.00  0.00     0.345 A 
HETATM   23  O   UNL     1      41.397 -13.316  -3.333  1.00  0.00    -0.245 OA
HETATM   24  N   UNL     1      40.851 -11.108  -3.631  1.00  0.00    -0.319 N 
HETATM   25  C   UNL     1      40.426  -9.965  -2.837  1.00  0.00     0.141 A 
HETATM   26  H   UNL     1      40.946 -11.128  -4.637  1.00  0.00     0.166 HD
HETATM   27  C   UNL     1      40.394 -10.613  -1.428  1.00  0.00     0.279 A 
HETATM   28  C   UNL     1      39.006  -9.567  -3.249  1.00  0.00     0.055 C 
HETATM   29  O   UNL     1      39.983 -10.089  -0.398  1.00  0.00    -0.268 OA
BRANCH  25  30
HETATM   30  C   UNL     1      41.403  -8.795  -2.898  1.00  0.00    -0.021 A 
HETATM   31  C   UNL     1      42.312  -8.517  -1.862  1.00  0.00     0.010 A 
HETATM   32  C   UNL     1      43.194  -7.435  -1.947  1.00  0.00     0.001 A 
HETATM   33  C   UNL     1      43.180  -6.606  -3.065  1.00  0.00     0.000 A 
HETATM   34  C   UNL     1      42.285  -6.857  -4.099  1.00  0.00     0.001 A 
HETATM   35  C   UNL     1      41.406  -7.938  -4.016  1.00  0.00     0.010 A 
ENDBRANCH  25  30
ENDBRANCH   2  21
TORSDOF 6
ENDMDL
MODEL 6
REMARK VINA RESULT:      -9.4      3.788      7.486
REMARK  6 active torsions:
REMARK  status: ('A' for Active; 'I' for Inactive)
REMARK    1  A    between atoms: C_7  and  C_8 
REMARK    2  A    between atoms: C_8  and  O_9 
REMARK    3  A    between atoms: O_9  and  C_10 
REMARK    4  A    between atoms: C_10  and  C_11 
REMARK       I    between atoms: C_11  and  N_12 
REMARK    5  A    between atoms: N_12  and  N_13 
REMARK    6  A    between atoms: C_17  and  C_18 
ROOT
HETATM    1  C   UNL     1      41.876 -10.602   5.883  1.00  0.00     0.261 C 
HETATM    2  N   UNL     1      41.826 -11.629   6.802  1.00  0.00    -0.255 N 
HETATM    3  O   UNL     1      42.532 -10.644   4.844  1.00  0.00    -0.269 OA
HETATM    4  H   UNL     1      41.121 -11.636   7.540  1.00  0.00     0.191 HD
ENDROOT
BRANCH   1   5
HETATM    5  C   UNL     1      40.994  -9.403   6.244  1.00  0.00     0.283 C 
BRANCH   5   6
HETATM    6  O   UNL     1      40.031  -9.044   5.251  1.00  0.00    -0.308 OA
BRANCH   6   7
HETATM    7  C   UNL     1      39.041  -9.944   5.042  1.00  0.00     0.293 C 
HETATM    8  O   UNL     1      38.133 -10.181   5.827  1.00  0.00    -0.259 OA
BRANCH   7   9
HETATM    9  C   UNL     1      39.143 -10.549   3.688  1.00  0.00     0.040 A 
HETATM   10  C   UNL     1      39.114  -9.690   2.583  1.00  0.00     0.020 A 
HETATM   11  C   UNL     1      39.258 -10.181   1.283  1.00  0.00     0.031 A 
HETATM   12  C   UNL     1      39.431 -11.560   1.127  1.00  0.00     0.043 A 
HETATM   13  C   UNL     1      39.444 -12.450   2.200  1.00  0.00    -0.001 A 
HETATM   14  N   UNL     1      39.624 -12.302  -0.013  1.00  0.00    -0.359 N 
HETATM   15  C   UNL     1      39.634 -13.765   1.666  1.00  0.00    -0.027 A 
HETATM   16  C   UNL     1      39.292 -11.934   3.505  1.00  0.00     0.032 A 
HETATM   17  C   UNL     1      39.703 -15.039   2.434  1.00  0.00     0.051 C 
HETATM   18  C   UNL     1      39.767 -13.631   0.293  1.00  0.00     0.012 A 
HETATM   19  C   UNL     1      40.026 -14.650  -0.757  1.00  0.00     0.068 C 
HETATM   20  H   UNL     1      39.673 -11.912  -0.944  1.00  0.00     0.166 HD
ENDBRANCH   7   9
ENDBRANCH   6   7
ENDBRANCH   5   6
ENDBRANCH   1   5
BRANCH   2  21
HETATM   21  N   UNL     1      42.416 -12.830   6.473  1.00  0.00    -0.167 N 
HETATM   22  C   UNL     1      43.717 -13.148   6.750  1.00  0.00     0.345 A 
HETATM   23  O   UNL     1      44.563 -12.481   7.324  1.00  0.00    -0.245 OA
HETATM   24  N   UNL     1      43.932 -14.441   6.311  1.00  0.00    -0.319 N 
HETATM   25  C   UNL     1      42.742 -15.042   5.729  1.00  0.00     0.141 A 
HETATM   26  H   UNL     1      44.828 -14.893   6.427  1.00  0.00     0.166 HD
HETATM   27  C   UNL     1      41.726 -13.890   5.942  1.00  0.00     0.279 A 
HETATM   28  C   UNL     1      42.327 -16.251   6.573  1.00  0.00     0.055 C 
HETATM   29  O   UNL     1      40.520 -13.935   5.719  1.00  0.00    -0.268 OA
BRANCH  25  30
HETATM   30  C   UNL     1      42.903 -15.387   4.252  1.00  0.00    -0.021 A 
HETATM   31  C   UNL     1      42.841 -16.708   3.775  1.00  0.00     0.010 A 
HETATM   32  C   UNL     1      42.995 -16.993   2.415  1.00  0.00     0.001 A 
HETATM   33  C   UNL     1      43.220 -15.963   1.505  1.00  0.00     0.000 A 
HETATM   34  C   UNL     1      43.292 -14.650   1.954  1.00  0.00     0.001 A 
HETATM   35  C   UNL     1      43.137 -14.365   3.312  1.00  0.00     0.010 A 
ENDBRANCH  25  30
ENDBRANCH   2  21
TORSDOF 6
ENDMDL
MODEL 7
REMARK VINA RESULT:      -9.1      1.815      2.434
REMARK  6 active torsions:
REMARK  status: ('A' for Active; 'I' for Inactive)
REMARK    1  A    between atoms: C_7  and  C_8 
REMARK    2  A    between atoms: C_8  and  O_9 
REMARK    3  A    between atoms: O_9  and  C_10 
REMARK    4  A    between atoms: C_10  and  C_11 
REMARK       I    between atoms: C_11  and  N_12 
REMARK    5  A    between atoms: N_12  and  N_13 
REMARK    6  A    between atoms: C_17  and  C_18 
ROOT
HETATM    1  C   UNL     1      43.137 -11.750   6.618  1.00  0.00     0.261 C 
HETATM    2  N   UNL     1      43.911 -12.877   6.437  1.00  0.00    -0.255 N 
HETATM    3  O   UNL     1      41.916 -11.728   6.469  1.00  0.00    -0.269 OA
HETATM    4  H   UNL     1      44.878 -12.904   6.763  1.00  0.00     0.191 HD
ENDROOT
BRANCH   1   5
HETATM    5  C   UNL     1      43.926 -10.520   7.075  1.00  0.00     0.283 C 
BRANCH   5   6
HETATM    6  O   UNL     1      43.127  -9.430   7.538  1.00  0.00    -0.308 OA
BRANCH   6   7
HETATM    7  C   UNL     1      43.673  -8.680   8.525  1.00  0.00     0.293 C 
HETATM    8  O   UNL     1      44.674  -7.988   8.404  1.00  0.00    -0.259 OA
BRANCH   7   9
HETATM    9  C   UNL     1      42.846  -8.731   9.758  1.00  0.00     0.040 A 
HETATM   10  C   UNL     1      41.636  -9.433   9.707  1.00  0.00     0.020 A 
HETATM   11  C   UNL     1      40.830  -9.569  10.840  1.00  0.00     0.031 A 
HETATM   12  C   UNL     1      41.279  -8.978  12.027  1.00  0.00     0.043 A 
HETATM   13  C   UNL     1      42.466  -8.253  12.113  1.00  0.00    -0.001 A 
HETATM   14  N   UNL     1      40.714  -8.978  13.279  1.00  0.00    -0.359 N 
HETATM   15  C   UNL     1      42.594  -7.797  13.465  1.00  0.00    -0.027 A 
HETATM   16  C   UNL     1      43.263  -8.124  10.955  1.00  0.00     0.032 A 
HETATM   17  C   UNL     1      43.699  -6.974  14.028  1.00  0.00     0.051 C 
HETATM   18  C   UNL     1      41.503  -8.287  14.164  1.00  0.00     0.012 A 
HETATM   19  C   UNL     1      41.142  -8.166  15.600  1.00  0.00     0.068 C 
HETATM   20  H   UNL     1      39.849  -9.444  13.514  1.00  0.00     0.166 HD
ENDBRANCH   7   9
ENDBRANCH   6   7
ENDBRANCH   5   6
ENDBRANCH   1   5
BRANCH   2  21
HETATM   21  N   UNL     1      43.275 -14.081   6.229  1.00  0.00    -0.167 N 
HETATM   22  C   UNL     1      42.981 -14.976   7.221  1.00  0.00     0.345 A 
HETATM   23  O   UNL     1      43.195 -14.888   8.419  1.00  0.00    -0.245 OA
HETATM   24  N   UNL     1      42.311 -16.035   6.640  1.00  0.00    -0.319 N 
HETATM   25  C   UNL     1      42.118 -15.863   5.209  1.00  0.00     0.141 A 
HETATM   26  H   UNL     1      41.981 -16.815   7.192  1.00  0.00     0.166 HD
HETATM   27  C   UNL     1      42.752 -14.460   5.019  1.00  0.00     0.279 A 
HETATM   28  C   UNL     1      40.618 -15.790   4.909  1.00  0.00     0.055 C 
HETATM   29  O   UNL     1      42.745 -13.794   3.988  1.00  0.00    -0.268 OA
BRANCH  25  30
HETATM   30  C   UNL     1      42.831 -16.922   4.374  1.00  0.00    -0.021 A 
HETATM   31  C   UNL     1      42.510 -17.163   3.026  1.00  0.00     0.010 A 
HETATM   32  C   UNL     1      43.181 -18.142   2.288  1.00  0.00     0.001 A 
HETATM   33  C   UNL     1      44.182 -18.905   2.883  1.00  0.00     0.000 A 
HETATM   34  C   UNL     1      44.512 -18.690   4.216  1.00  0.00     0.001 A 
HETATM   35  C   UNL     1      43.844 -17.710   4.954  1.00  0.00     0.010 A 
ENDBRANCH  25  30
ENDBRANCH   2  21
TORSDOF 6
ENDMDL
MODEL 8
REMARK VINA RESULT:      -8.8      2.345     10.340
REMARK  6 active torsions:
REMARK  status: ('A' for Active; 'I' for Inactive)
REMARK    1  A    between atoms: C_7  and  C_8 
REMARK    2  A    between atoms: C_8  and  O_9 
REMARK    3  A    between atoms: O_9  and  C_10 
REMARK    4  A    between atoms: C_10  and  C_11 
REMARK       I    between atoms: C_11  and  N_12 
REMARK    5  A    between atoms: N_12  and  N_13 
REMARK    6  A    between atoms: C_17  and  C_18 
ROOT
HETATM    1  C   UNL     1      41.888  -9.998   6.836  1.00  0.00     0.261 C 
HETATM    2  N   UNL     1      42.467 -10.092   8.084  1.00  0.00    -0.255 N 
HETATM    3  O   UNL     1      41.123  -9.094   6.504  1.00  0.00    -0.269 OA
HETATM    4  H   UNL     1      43.243 -10.734   8.252  1.00  0.00     0.191 HD
ENDROOT
BRANCH   1   5
HETATM    5  C   UNL     1      42.319 -11.101   5.865  1.00  0.00     0.283 C 
BRANCH   5   6
HETATM    6  O   UNL     1      42.197 -12.431   6.373  1.00  0.00    -0.308 OA
BRANCH   6   7
HETATM    7  C   UNL     1      43.355 -13.029   6.737  1.00  0.00     0.293 C 
HETATM    8  O   UNL     1      44.179 -12.549   7.504  1.00  0.00    -0.259 OA
BRANCH   7   9
HETATM    9  C   UNL     1      43.461 -14.393   6.157  1.00  0.00     0.040 A 
HETATM   10  C   UNL     1      43.719 -15.458   7.028  1.00  0.00     0.020 A 
HETATM   11  C   UNL     1      43.781 -16.774   6.563  1.00  0.00     0.031 A 
HETATM   12  C   UNL     1      43.574 -16.987   5.195  1.00  0.00     0.043 A 
HETATM   13  C   UNL     1      43.336 -15.952   4.293  1.00  0.00    -0.001 A 
HETATM   14  N   UNL     1      43.548 -18.160   4.480  1.00  0.00    -0.359 N 
HETATM   15  C   UNL     1      43.182 -16.539   2.996  1.00  0.00    -0.027 A 
HETATM   16  C   UNL     1      43.283 -14.629   4.783  1.00  0.00     0.032 A 
HETATM   17  C   UNL     1      42.924 -15.823   1.716  1.00  0.00     0.051 C 
HETATM   18  C   UNL     1      43.294 -17.912   3.155  1.00  0.00     0.012 A 
HETATM   19  C   UNL     1      43.175 -19.012   2.164  1.00  0.00     0.068 C 
HETATM   20  H   UNL     1      43.678 -19.077   4.885  1.00  0.00     0.166 HD
ENDBRANCH   7   9
ENDBRANCH   6   7
ENDBRANCH   5   6
ENDBRANCH   1   5
BRANCH   2  21
HETATM   21  N   UNL     1      42.309  -9.040   8.960  1.00  0.00    -0.167 N 
HETATM   22  C   UNL     1      43.117  -7.936   8.987  1.00  0.00     0.345 A 
HETATM   23  O   UNL     1      44.072  -7.668   8.277  1.00  0.00    -0.245 OA
HETATM   24  N   UNL     1      42.626  -7.087   9.961  1.00  0.00    -0.319 N 
HETATM   25  C   UNL     1      41.435  -7.608  10.614  1.00  0.00     0.141 A 
HETATM   26  H   UNL     1      43.062  -6.195  10.148  1.00  0.00     0.166 HD
HETATM   27  C   UNL     1      41.246  -8.926   9.818  1.00  0.00     0.279 A 
HETATM   28  C   UNL     1      40.258  -6.669  10.334  1.00  0.00     0.055 C 
HETATM   29  O   UNL     1      40.296  -9.698   9.908  1.00  0.00    -0.268 OA
BRANCH  25  30
HETATM   30  C   UNL     1      41.632  -7.871  12.103  1.00  0.00    -0.021 A 
HETATM   31  C   UNL     1      40.757  -8.682  12.848  1.00  0.00     0.010 A 
HETATM   32  C   UNL     1      40.964  -8.903  14.213  1.00  0.00     0.001 A 
HETATM   33  C   UNL     1      42.045  -8.314  14.862  1.00  0.00     0.000 A 
HETATM   34  C   UNL     1      42.920  -7.503  14.148  1.00  0.00     0.001 A 
HETATM   35  C   UNL     1      42.716  -7.283  12.784  1.00  0.00     0.010 A 
ENDBRANCH  25  30
ENDBRANCH   2  21
TORSDOF 6
ENDMDL
MODEL 9
REMARK VINA RESULT:      -8.7      2.443      2.945
REMARK  6 active torsions:
REMARK  status: ('A' for Active; 'I' for Inactive)
REMARK    1  A    between atoms: C_7  and  C_8 
REMARK    2  A    between atoms: C_8  and  O_9 
REMARK    3  A    between atoms: O_9  and  C_10 
REMARK    4  A    between atoms: C_10  and  C_11 
REMARK       I    between atoms: C_11  and  N_12 
REMARK    5  A    between atoms: N_12  and  N_13 
REMARK    6  A    between atoms: C_17  and  C_18 
ROOT
HETATM    1  C   UNL     1      41.652 -11.446   4.097  1.00  0.00     0.261 C 
HETATM    2  N   UNL     1      42.325 -12.536   4.606  1.00  0.00    -0.255 N 
HETATM    3  O   UNL     1      40.743 -11.526   3.274  1.00  0.00    -0.269 OA
HETATM    4  H   UNL     1      42.926 -12.443   5.426  1.00  0.00     0.191 HD
ENDROOT
BRANCH   1   5
HETATM    5  C   UNL     1      42.103 -10.106   4.687  1.00  0.00     0.283 C 
BRANCH   5   6
HETATM    6  O   UNL     1      41.920  -9.977   6.098  1.00  0.00    -0.308 OA
BRANCH   6   7
HETATM    7  C   UNL     1      40.810  -9.306   6.486  1.00  0.00     0.293 C 
HETATM    8  O   UNL     1      39.989  -8.812   5.725  1.00  0.00    -0.259 OA
BRANCH   7   9
HETATM    9  C   UNL     1      40.663  -9.322   7.965  1.00  0.00     0.040 A 
HETATM   10  C   UNL     1      39.396  -9.592   8.495  1.00  0.00     0.020 A 
HETATM   11  C   UNL     1      39.192  -9.676   9.875  1.00  0.00     0.031 A 
HETATM   12  C   UNL     1      40.301  -9.480  10.705  1.00  0.00     0.043 A 
HETATM   13  C   UNL     1      41.573  -9.187  10.217  1.00  0.00    -0.001 A 
HETATM   14  N   UNL     1      40.397  -9.533  12.075  1.00  0.00    -0.359 N 
HETATM   15  C   UNL     1      42.444  -9.047  11.345  1.00  0.00    -0.027 A 
HETATM   16  C   UNL     1      41.756  -9.103   8.820  1.00  0.00     0.032 A 
HETATM   17  C   UNL     1      43.897  -8.723  11.316  1.00  0.00     0.051 C 
HETATM   18  C   UNL     1      41.686  -9.294  12.478  1.00  0.00     0.012 A 
HETATM   19  C   UNL     1      42.074  -9.331  13.912  1.00  0.00     0.068 C 
HETATM   20  H   UNL     1      39.624  -9.742  12.692  1.00  0.00     0.166 HD
ENDBRANCH   7   9
ENDBRANCH   6   7
ENDBRANCH   5   6
ENDBRANCH   1   5
BRANCH   2  21
HETATM   21  N   UNL     1      41.858 -13.796   4.298  1.00  0.00    -0.167 N 
HETATM   22  C   UNL     1      40.832 -14.416   4.957  1.00  0.00     0.345 A 
HETATM   23  O   UNL     1      40.154 -14.000   5.882  1.00  0.00    -0.245 OA
HETATM   24  N   UNL     1      40.623 -15.636   4.343  1.00  0.00    -0.319 N 
HETATM   25  C   UNL     1      41.515 -15.861   3.217  1.00  0.00     0.141 A 
HETATM   26  H   UNL     1      39.896 -16.265   4.658  1.00  0.00     0.166 HD
HETATM   27  C   UNL     1      42.288 -14.516   3.213  1.00  0.00     0.279 A 
HETATM   28  C   UNL     1      40.687 -15.977   1.935  1.00  0.00     0.055 C 
HETATM   29  O   UNL     1      43.098 -14.147   2.369  1.00  0.00    -0.268 OA
BRANCH  25  30
HETATM   30  C   UNL     1      42.451 -17.048   3.419  1.00  0.00    -0.021 A 
HETATM   31  C   UNL     1      43.119 -17.285   4.634  1.00  0.00     0.010 A 
HETATM   32  C   UNL     1      43.972 -18.381   4.787  1.00  0.00     0.001 A 
HETATM   33  C   UNL     1      44.180 -19.261   3.728  1.00  0.00     0.000 A 
HETATM   34  C   UNL     1      43.536 -19.044   2.515  1.00  0.00     0.001 A 
HETATM   35  C   UNL     1      42.682 -17.950   2.362  1.00  0.00     0.010 A 
ENDBRANCH  25  30
ENDBRANCH   2  21
TORSDOF 6
ENDMDL
MODEL 10
REMARK VINA RESULT:      -8.6      2.648      4.009
REMARK  6 active torsions:
REMARK  status: ('A' for Active; 'I' for Inactive)
REMARK    1  A    between atoms: C_7  and  C_8 
REMARK    2  A    between atoms: C_8  and  O_9 
REMARK    3  A    between atoms: O_9  and  C_10 
REMARK    4  A    between atoms: C_10  and  C_11 
REMARK       I    between atoms: C_11  and  N_12 
REMARK    5  A    between atoms: N_12  and  N_13 
REMARK    6  A    between atoms: C_17  and  C_18 
ROOT
HETATM    1  C   UNL     1      40.356 -13.055   4.165  1.00  0.00     0.261 C 
HETATM    2  N   UNL     1      40.388 -14.395   4.488  1.00  0.00    -0.255 N 
HETATM    3  O   UNL     1      40.976 -12.563   3.225  1.00  0.00    -0.269 OA
HETATM    4  H   UNL     1      39.710 -14.791   5.140  1.00  0.00     0.191 HD
ENDROOT
BRANCH   1   5
HETATM    5  C   UNL     1      39.430 -12.222   5.058  1.00  0.00     0.283 C 
BRANCH   5   6
HETATM    6  O   UNL     1      39.701 -10.820   5.063  1.00  0.00    -0.308 OA
BRANCH   6   7
HETATM    7  C   UNL     1      39.158 -10.121   6.089  1.00  0.00     0.293 C 
HETATM    8  O   UNL     1      37.964  -9.896   6.226  1.00  0.00    -0.259 OA
BRANCH   7   9
HETATM    9  C   UNL     1      40.193  -9.737   7.083  1.00  0.00     0.040 A 
HETATM   10  C   UNL     1      39.820  -8.867   8.114  1.00  0.00     0.020 A 
HETATM   11  C   UNL     1      40.724  -8.502   9.116  1.00  0.00     0.031 A 
HETATM   12  C   UNL     1      42.014  -9.040   9.049  1.00  0.00     0.043 A 
HETATM   13  C   UNL     1      42.431  -9.891   8.027  1.00  0.00    -0.001 A 
HETATM   14  N   UNL     1      43.081  -8.880   9.900  1.00  0.00    -0.359 N 
HETATM   15  C   UNL     1      43.799 -10.231   8.280  1.00  0.00    -0.027 A 
HETATM   16  C   UNL     1      41.502 -10.243   7.023  1.00  0.00     0.032 A 
HETATM   17  C   UNL     1      44.669 -11.108   7.450  1.00  0.00     0.051 C 
HETATM   18  C   UNL     1      44.160  -9.606   9.463  1.00  0.00     0.012 A 
HETATM   19  C   UNL     1      45.436  -9.641  10.224  1.00  0.00     0.068 C 
HETATM   20  H   UNL     1      43.059  -8.321  10.741  1.00  0.00     0.166 HD
ENDBRANCH   7   9
ENDBRANCH   6   7
ENDBRANCH   5   6
ENDBRANCH   1   5
BRANCH   2  21
HETATM   21  N   UNL     1      41.023 -15.261   3.625  1.00  0.00    -0.167 N 
HETATM   22  C   UNL     1      40.417 -15.861   2.556  1.00  0.00     0.345 A 
HETATM   23  O   UNL     1      39.267 -15.747   2.164  1.00  0.00    -0.245 OA
HETATM   24  N   UNL     1      41.374 -16.618   1.907  1.00  0.00    -0.319 N 
HETATM   25  C   UNL     1      42.684 -16.526   2.532  1.00  0.00     0.141 A 
HETATM   26  H   UNL     1      41.151 -17.143   1.072  1.00  0.00     0.166 HD
HETATM   27  C   UNL     1      42.369 -15.518   3.668  1.00  0.00     0.279 A 
HETATM   28  C   UNL     1      43.668 -15.892   1.545  1.00  0.00     0.055 C 
HETATM   29  O   UNL     1      43.183 -15.010   4.433  1.00  0.00    -0.268 OA
BRANCH  25  30
HETATM   30  C   UNL     1      43.183 -17.858   3.082  1.00  0.00    -0.021 A 
HETATM   31  C   UNL     1      43.678 -17.997   4.390  1.00  0.00     0.010 A 
HETATM   32  C   UNL     1      44.130 -19.232   4.864  1.00  0.00     0.001 A 
HETATM   33  C   UNL     1      44.101 -20.352   4.039  1.00  0.00     0.000 A 
HETATM   34  C   UNL     1      43.622 -20.239   2.739  1.00  0.00     0.001 A 
HETATM   35  C   UNL     1      43.168 -19.006   2.266  1.00  0.00     0.010 A 
ENDBRANCH  25  30
ENDBRANCH   2  21
TORSDOF 6
ENDMDL
