MODEL 1
REMARK VINA RESULT:      -9.1      0.000      0.000
REMARK  8 active torsions:
REMARK  status: ('A' for Active; 'I' for Inactive)
REMARK    1  A    between atoms: O_2  and  C_3 
REMARK    2  A    between atoms: C_5  and  N_6 
REMARK       I    between atoms: N_6  and  C_7 
REMARK    3  A    between atoms: C_7  and  C_8 
REMARK    4  A    between atoms: C_8  and  N_9 
REMARK    5  A    between atoms: C_8  and  C_25 
REMARK    6  A    between atoms: N_9  and  C_12 
REMARK    7  A    between atoms: C_12  and  C_13 
REMARK    8  A    between atoms: C_16  and  N_17 
ROOT
HETATM    1  C   UNL     1      42.294 -15.600   3.471  1.00  0.00     0.310 C 
ENDROOT
BRANCH   1   2
HETATM    2  C   UNL     1      42.296 -14.794   2.147  1.00  0.00     0.257 C 
HETATM    3  N   UNL     1      41.063 -14.444   1.641  1.00  0.00    -0.325 N 
HETATM    4  H   UNL     1      40.231 -14.716   2.156  1.00  0.00     0.169 HD
HETATM    5  O   UNL     1      43.398 -14.584   1.632  1.00  0.00    -0.270 OA
BRANCH   3   6
HETATM    6  C   UNL     1      40.812 -13.691   0.470  1.00  0.00     0.037 A 
HETATM    7  C   UNL     1      40.364 -14.241  -0.733  1.00  0.00     0.066 A 
HETATM    8  C   UNL     1      40.157 -13.438  -1.864  1.00  0.00     0.070 A 
HETATM    9  C   UNL     1      40.385 -12.066  -1.783  1.00  0.00     0.037 A 
HETATM   10  C   UNL     1      40.828 -11.505  -0.584  1.00  0.00     0.005 A 
HETATM   11  C   UNL     1      41.046 -12.313   0.534  1.00  0.00     0.029 A 
BRANCH   8  12
HETATM   12  O   UNL     1      39.735 -14.118  -2.972  1.00  0.00    -0.356 OA
HETATM   13  C   UNL     1      38.733 -15.110  -2.780  1.00  0.00     0.210 C 
ENDBRANCH   8  12
ENDBRANCH   3   6
ENDBRANCH   1   2
BRANCH   1  14
HETATM   14  N   UNL     1      40.867 -15.658   3.966  1.00  0.00    -0.054 N 
HETATM   15  H   UNL     1      40.376 -14.880   3.489  1.00  0.00     0.278 HD
HETATM   16  H   UNL     1      40.405 -16.488   3.576  1.00  0.00     0.278 HD
BRANCH  14  17
HETATM   17  C   UNL     1      40.632 -15.585   5.423  1.00  0.00     0.272 C 
BRANCH  17  18
HETATM   18  C   UNL     1      41.558 -14.566   6.019  1.00  0.00    -0.033 A 
HETATM   19  C   UNL     1      41.471 -13.222   5.649  1.00  0.00     0.011 A 
HETATM   20  C   UNL     1      42.434 -12.302   6.084  1.00  0.00     0.030 A 
HETATM   21  C   UNL     1      43.512 -12.693   6.888  1.00  0.00     0.037 A 
HETATM   22  C   UNL     1      43.564 -14.036   7.287  1.00  0.00     0.030 A 
HETATM   23  C   UNL     1      42.607 -14.963   6.857  1.00  0.00     0.011 A 
BRANCH  21  24
HETATM   24  N   UNL     1      44.531 -11.780   7.272  1.00  0.00    -0.318 N 
HETATM   25  C   UNL     1      44.576 -11.047   8.470  1.00  0.00     0.224 C 
HETATM   26  O   UNL     1      43.807 -11.078   9.419  1.00  0.00    -0.273 OA
HETATM   27  C   UNL     1      45.734 -10.080   8.380  1.00  0.00     0.105 C 
HETATM   28  C   UNL     1      46.582 -10.656   7.264  1.00  0.00     0.029 C 
HETATM   29  C   UNL     1      45.570 -11.338   6.369  1.00  0.00     0.133 C 
ENDBRANCH  21  24
ENDBRANCH  17  18
ENDBRANCH  14  17
ENDBRANCH   1  14
BRANCH   1  30
HETATM   30  C   UNL     1      42.889 -16.983   3.353  1.00  0.00    -0.019 A 
HETATM   31  C   UNL     1      43.795 -17.443   4.322  1.00  0.00     0.010 A 
HETATM   32  C   UNL     1      44.334 -18.728   4.233  1.00  0.00     0.001 A 
HETATM   33  C   UNL     1      43.971 -19.566   3.183  1.00  0.00     0.000 A 
HETATM   34  C   UNL     1      43.070 -19.125   2.217  1.00  0.00     0.001 A 
HETATM   35  C   UNL     1      42.529 -17.842   2.299  1.00  0.00     0.010 A 
ENDBRANCH   1  30
TORSDOF 8
ENDMDL
MODEL 2
REMARK VINA RESULT:      -8.9      0.886      1.859
REMARK  8 active torsions:
REMARK  status: ('A' for Active; 'I' for Inactive)
REMARK    1  A    between atoms: O_2  and  C_3 
REMARK    2  A    between atoms: C_5  and  N_6 
REMARK       I    between atoms: N_6  and  C_7 
REMARK    3  A    between atoms: C_7  and  C_8 
REMARK    4  A    between atoms: C_8  and  N_9 
REMARK    5  A    between atoms: C_8  and  C_25 
REMARK    6  A    between atoms: N_9  and  C_12 
REMARK    7  A    between atoms: C_12  and  C_13 
REMARK    8  A    between atoms: C_16  and  N_17 
ROOT
HETATM    1  C   UNL     1      42.300 -15.876   3.543  1.00  0.00     0.310 C 
ENDROOT
BRANCH   1   2
HETATM    2  C   UNL     1      42.272 -15.082   2.212  1.00  0.00     0.257 C 
HETATM    3  N   UNL     1      41.028 -14.746   1.725  1.00  0.00    -0.325 N 
HETATM    4  H   UNL     1      40.207 -15.019   2.256  1.00  0.00     0.169 HD
HETATM    5  O   UNL     1      43.364 -14.868   1.676  1.00  0.00    -0.270 OA
BRANCH   3   6
HETATM    6  C   UNL     1      40.752 -14.004   0.551  1.00  0.00     0.037 A 
HETATM    7  C   UNL     1      41.121 -12.671   0.362  1.00  0.00     0.066 A 
HETATM    8  C   UNL     1      40.794 -11.990  -0.818  1.00  0.00     0.070 A 
HETATM    9  C   UNL     1      40.106 -12.657  -1.829  1.00  0.00     0.037 A 
HETATM   10  C   UNL     1      39.737 -13.992  -1.653  1.00  0.00     0.005 A 
HETATM   11  C   UNL     1      40.052 -14.660  -0.468  1.00  0.00     0.029 A 
BRANCH   8  12
HETATM   12  O   UNL     1      41.206 -10.686  -0.852  1.00  0.00    -0.356 OA
HETATM   13  C   UNL     1      41.484 -10.063   0.397  1.00  0.00     0.210 C 
ENDBRANCH   8  12
ENDBRANCH   3   6
ENDBRANCH   1   2
BRANCH   1  14
HETATM   14  N   UNL     1      40.886 -15.919   4.076  1.00  0.00    -0.054 N 
HETATM   15  H   UNL     1      40.388 -15.141   3.605  1.00  0.00     0.278 HD
HETATM   16  H   UNL     1      40.406 -16.748   3.706  1.00  0.00     0.278 HD
BRANCH  14  17
HETATM   17  C   UNL     1      40.689 -15.831   5.538  1.00  0.00     0.272 C 
BRANCH  17  18
HETATM   18  C   UNL     1      41.599 -14.774   6.092  1.00  0.00    -0.033 A 
HETATM   19  C   UNL     1      41.464 -13.441   5.698  1.00  0.00     0.011 A 
HETATM   20  C   UNL     1      42.410 -12.485   6.092  1.00  0.00     0.030 A 
HETATM   21  C   UNL     1      43.517 -12.828   6.878  1.00  0.00     0.037 A 
HETATM   22  C   UNL     1      43.617 -14.160   7.303  1.00  0.00     0.030 A 
HETATM   23  C   UNL     1      42.677 -15.123   6.913  1.00  0.00     0.011 A 
BRANCH  21  24
HETATM   24  N   UNL     1      44.517 -11.879   7.221  1.00  0.00    -0.318 N 
HETATM   25  C   UNL     1      44.581 -11.138   8.413  1.00  0.00     0.224 C 
HETATM   26  O   UNL     1      43.850 -11.191   9.390  1.00  0.00    -0.273 OA
HETATM   27  C   UNL     1      45.701 -10.133   8.277  1.00  0.00     0.105 C 
HETATM   28  C   UNL     1      46.526 -10.684   7.132  1.00  0.00     0.029 C 
HETATM   29  C   UNL     1      45.506 -11.405   6.278  1.00  0.00     0.133 C 
ENDBRANCH  21  24
ENDBRANCH  17  18
ENDBRANCH  14  17
ENDBRANCH   1  14
BRANCH   1  30
HETATM   30  C   UNL     1      42.880 -17.265   3.421  1.00  0.00    -0.019 A 
HETATM   31  C   UNL     1      42.596 -18.048   2.291  1.00  0.00     0.010 A 
HETATM   32  C   UNL     1      43.144 -19.325   2.159  1.00  0.00     0.001 A 
HETATM   33  C   UNL     1      43.983 -19.831   3.148  1.00  0.00     0.000 A 
HETATM   34  C   UNL     1      44.277 -19.064   4.273  1.00  0.00     0.001 A 
HETATM   35  C   UNL     1      43.732 -17.788   4.411  1.00  0.00     0.010 A 
ENDBRANCH   1  30
TORSDOF 8
ENDMDL
MODEL 3
REMARK VINA RESULT:      -8.9      1.676      5.656
REMARK  8 active torsions:
REMARK  status: ('A' for Active; 'I' for Inactive)
REMARK    1  A    between atoms: O_2  and  C_3 
REMARK    2  A    between atoms: C_5  and  N_6 
REMARK       I    between atoms: N_6  and  C_7 
REMARK    3  A    between atoms: C_7  and  C_8 
REMARK    4  A    between atoms: C_8  and  N_9 
REMARK    5  A    between atoms: C_8  and  C_25 
REMARK    6  A    between atoms: N_9  and  C_12 
REMARK    7  A    between atoms: C_12  and  C_13 
REMARK    8  A    between atoms: C_16  and  N_17 
ROOT
HETATM    1  C   UNL     1      40.266 -14.048   1.411  1.00  0.00     0.310 C 
ENDROOT
BRANCH   1   2
HETATM    2  C   UNL     1      41.515 -14.846   1.866  1.00  0.00     0.257 C 
HETATM    3  N   UNL     1      41.277 -16.002   2.577  1.00  0.00    -0.325 N 
HETATM    4  H   UNL     1      40.314 -16.274   2.756  1.00  0.00     0.169 HD
HETATM    5  O   UNL     1      42.613 -14.349   1.600  1.00  0.00    -0.270 OA
BRANCH   3   6
HETATM    6  C   UNL     1      42.247 -16.905   3.072  1.00  0.00     0.037 A 
HETATM    7  C   UNL     1      42.844 -16.801   4.330  1.00  0.00     0.066 A 
HETATM    8  C   UNL     1      43.817 -17.720   4.748  1.00  0.00     0.070 A 
HETATM    9  C   UNL     1      44.183 -18.765   3.904  1.00  0.00     0.037 A 
HETATM   10  C   UNL     1      43.588 -18.882   2.646  1.00  0.00     0.005 A 
HETATM   11  C   UNL     1      42.631 -17.955   2.230  1.00  0.00     0.029 A 
BRANCH   8  12
HETATM   12  O   UNL     1      44.324 -17.480   5.995  1.00  0.00    -0.356 OA
HETATM   13  C   UNL     1      44.330 -16.129   6.443  1.00  0.00     0.210 C 
ENDBRANCH   8  12
ENDBRANCH   3   6
ENDBRANCH   1   2
BRANCH   1  14
HETATM   14  N   UNL     1      40.166 -12.822   2.289  1.00  0.00    -0.054 N 
HETATM   15  H   UNL     1      41.116 -12.408   2.297  1.00  0.00     0.278 HD
HETATM   16  H   UNL     1      39.612 -12.103   1.809  1.00  0.00     0.278 HD
BRANCH  14  17
HETATM   17  C   UNL     1      39.680 -12.995   3.673  1.00  0.00     0.272 C 
BRANCH  17  18
HETATM   18  C   UNL     1      40.728 -12.499   4.626  1.00  0.00    -0.033 A 
HETATM   19  C   UNL     1      41.020 -11.136   4.717  1.00  0.00     0.011 A 
HETATM   20  C   UNL     1      42.103 -10.692   5.487  1.00  0.00     0.030 A 
HETATM   21  C   UNL     1      42.928 -11.587   6.179  1.00  0.00     0.037 A 
HETATM   22  C   UNL     1      42.597 -12.948   6.115  1.00  0.00     0.030 A 
HETATM   23  C   UNL     1      41.518 -13.402   5.347  1.00  0.00     0.011 A 
BRANCH  21  24
HETATM   24  N   UNL     1      44.069 -11.149   6.903  1.00  0.00    -0.318 N 
HETATM   25  C   UNL     1      45.373 -11.023   6.396  1.00  0.00     0.224 C 
HETATM   26  O   UNL     1      45.775 -11.205   5.256  1.00  0.00    -0.273 OA
HETATM   27  C   UNL     1      46.293 -10.699   7.551  1.00  0.00     0.105 C 
HETATM   28  C   UNL     1      45.343 -10.206   8.623  1.00  0.00     0.029 C 
HETATM   29  C   UNL     1      44.065 -10.964   8.337  1.00  0.00     0.133 C 
ENDBRANCH  21  24
ENDBRANCH  17  18
ENDBRANCH  14  17
ENDBRANCH   1  14
BRANCH   1  30
HETATM   30  C   UNL     1      40.273 -13.673  -0.052  1.00  0.00    -0.019 A 
HETATM   31  C   UNL     1      40.797 -12.435  -0.458  1.00  0.00     0.010 A 
HETATM   32  C   UNL     1      40.827 -12.088  -1.810  1.00  0.00     0.001 A 
HETATM   33  C   UNL     1      40.341 -12.972  -2.769  1.00  0.00     0.000 A 
HETATM   34  C   UNL     1      39.822 -14.205  -2.382  1.00  0.00     0.001 A 
HETATM   35  C   UNL     1      39.788 -14.558  -1.033  1.00  0.00     0.010 A 
ENDBRANCH   1  30
TORSDOF 8
ENDMDL
MODEL 4
REMARK VINA RESULT:      -8.7      2.431      3.428
REMARK  8 active torsions:
REMARK  status: ('A' for Active; 'I' for Inactive)
REMARK    1  A    between atoms: O_2  and  C_3 
REMARK    2  A    between atoms: C_5  and  N_6 
REMARK       I    between atoms: N_6  and  C_7 
REMARK    3  A    between atoms: C_7  and  C_8 
REMARK    4  A    between atoms: C_8  and  N_9 
REMARK    5  A    between atoms: C_8  and  C_25 
REMARK    6  A    between atoms: N_9  and  C_12 
REMARK    7  A    between atoms: C_12  and  C_13 
REMARK    8  A    between atoms: C_16  and  N_17 
ROOT
HETATM    1  C   UNL     1      43.274 -16.672   4.052  1.00  0.00     0.310 C 
ENDROOT
BRANCH   1   2
HETATM    2  C   UNL     1      42.090 -16.037   3.279  1.00  0.00     0.257 C 
HETATM    3  N   UNL     1      42.408 -15.042   2.381  1.00  0.00    -0.325 N 
HETATM    4  H   UNL     1      43.384 -14.787   2.263  1.00  0.00     0.169 HD
HETATM    5  O   UNL     1      40.961 -16.438   3.576  1.00  0.00    -0.270 OA
BRANCH   3   6
HETATM    6  C   UNL     1      41.508 -14.338   1.546  1.00  0.00     0.037 A 
HETATM    7  C   UNL     1      40.758 -14.930   0.527  1.00  0.00     0.066 A 
HETATM    8  C   UNL     1      39.902 -14.167  -0.278  1.00  0.00     0.070 A 
HETATM    9  C   UNL     1      39.781 -12.798  -0.049  1.00  0.00     0.037 A 
HETATM   10  C   UNL     1      40.522 -12.197   0.970  1.00  0.00     0.005 A 
HETATM   11  C   UNL     1      41.385 -12.960   1.759  1.00  0.00     0.029 A 
BRANCH   8  12
HETATM   12  O   UNL     1      39.248 -14.880  -1.244  1.00  0.00    -0.356 OA
HETATM   13  C   UNL     1      38.861 -14.175  -2.419  1.00  0.00     0.210 C 
ENDBRANCH   8  12
ENDBRANCH   3   6
ENDBRANCH   1   2
BRANCH   1  14
HETATM   14  N   UNL     1      43.023 -16.456   5.527  1.00  0.00    -0.054 N 
HETATM   15  H   UNL     1      41.993 -16.411   5.629  1.00  0.00     0.278 HD
HETATM   16  H   UNL     1      43.262 -17.311   6.043  1.00  0.00     0.278 HD
BRANCH  14  17
HETATM   17  C   UNL     1      43.645 -15.283   6.175  1.00  0.00     0.272 C 
BRANCH  17  18
HETATM   18  C   UNL     1      42.704 -14.118   6.086  1.00  0.00    -0.033 A 
HETATM   19  C   UNL     1      41.331 -14.296   6.266  1.00  0.00     0.011 A 
HETATM   20  C   UNL     1      40.440 -13.241   6.028  1.00  0.00     0.030 A 
HETATM   21  C   UNL     1      40.888 -11.986   5.597  1.00  0.00     0.037 A 
HETATM   22  C   UNL     1      42.272 -11.807   5.464  1.00  0.00     0.030 A 
HETATM   23  C   UNL     1      43.170 -12.856   5.698  1.00  0.00     0.011 A 
BRANCH  21  24
HETATM   24  N   UNL     1      39.985 -10.934   5.285  1.00  0.00    -0.318 N 
HETATM   25  C   UNL     1      38.842 -10.579   6.021  1.00  0.00     0.224 C 
HETATM   26  O   UNL     1      38.429 -11.046   7.071  1.00  0.00    -0.273 OA
HETATM   27  C   UNL     1      38.091  -9.529   5.235  1.00  0.00     0.105 C 
HETATM   28  C   UNL     1      39.132  -9.011   4.263  1.00  0.00     0.029 C 
HETATM   29  C   UNL     1      40.027 -10.209   4.035  1.00  0.00     0.133 C 
ENDBRANCH  21  24
ENDBRANCH  17  18
ENDBRANCH  14  17
ENDBRANCH   1  14
BRANCH   1  30
HETATM   30  C   UNL     1      43.499 -18.134   3.745  1.00  0.00    -0.019 A 
HETATM   31  C   UNL     1      43.950 -19.002   4.752  1.00  0.00     0.010 A 
HETATM   32  C   UNL     1      44.141 -20.359   4.483  1.00  0.00     0.001 A 
HETATM   33  C   UNL     1      43.879 -20.862   3.212  1.00  0.00     0.000 A 
HETATM   34  C   UNL     1      43.428 -20.014   2.204  1.00  0.00     0.001 A 
HETATM   35  C   UNL     1      43.236 -18.658   2.466  1.00  0.00     0.010 A 
ENDBRANCH   1  30
TORSDOF 8
ENDMDL
MODEL 5
REMARK VINA RESULT:      -8.6      2.087      3.072
REMARK  8 active torsions:
REMARK  status: ('A' for Active; 'I' for Inactive)
REMARK    1  A    between atoms: O_2  and  C_3 
REMARK    2  A    between atoms: C_5  and  N_6 
REMARK       I    between atoms: N_6  and  C_7 
REMARK    3  A    between atoms: C_7  and  C_8 
REMARK    4  A    between atoms: C_8  and  N_9 
REMARK    5  A    between atoms: C_8  and  C_25 
REMARK    6  A    between atoms: N_9  and  C_12 
REMARK    7  A    between atoms: C_12  and  C_13 
REMARK    8  A    between atoms: C_16  and  N_17 
ROOT
HETATM    1  C   UNL     1      42.529 -14.238   2.222  1.00  0.00     0.310 C 
ENDROOT
BRANCH   1   2
HETATM    2  C   UNL     1      41.168 -14.221   1.479  1.00  0.00     0.257 C 
HETATM    3  N   UNL     1      41.148 -13.597   0.251  1.00  0.00    -0.325 N 
HETATM    4  H   UNL     1      42.011 -13.196  -0.105  1.00  0.00     0.169 HD
HETATM    5  O   UNL     1      40.209 -14.718   2.077  1.00  0.00    -0.270 OA
BRANCH   3   6
HETATM    6  C   UNL     1      40.039 -13.478  -0.619  1.00  0.00     0.037 A 
HETATM    7  C   UNL     1      39.167 -12.387  -0.633  1.00  0.00     0.066 A 
HETATM    8  C   UNL     1      38.073 -12.346  -1.508  1.00  0.00     0.070 A 
HETATM    9  C   UNL     1      37.859 -13.401  -2.392  1.00  0.00     0.037 A 
HETATM   10  C   UNL     1      38.727 -14.495  -2.390  1.00  0.00     0.005 A 
HETATM   11  C   UNL     1      39.807 -14.536  -1.505  1.00  0.00     0.029 A 
BRANCH   8  12
HETATM   12  O   UNL     1      37.299 -11.224  -1.395  1.00  0.00    -0.356 OA
HETATM   13  C   UNL     1      37.955 -10.023  -1.003  1.00  0.00     0.210 C 
ENDBRANCH   8  12
ENDBRANCH   3   6
ENDBRANCH   1   2
BRANCH   1  14
HETATM   14  N   UNL     1      42.449 -13.222   3.339  1.00  0.00    -0.054 N 
HETATM   15  H   UNL     1      41.439 -13.105   3.536  1.00  0.00     0.278 HD
HETATM   16  H   UNL     1      42.800 -13.642   4.208  1.00  0.00     0.278 HD
BRANCH  14  17
HETATM   17  C   UNL     1      43.078 -11.902   3.126  1.00  0.00     0.272 C 
BRANCH  17  18
HETATM   18  C   UNL     1      43.440 -11.312   4.457  1.00  0.00    -0.033 A 
HETATM   19  C   UNL     1      44.704 -11.528   5.013  1.00  0.00     0.011 A 
HETATM   20  C   UNL     1      44.985 -11.111   6.321  1.00  0.00     0.030 A 
HETATM   21  C   UNL     1      44.020 -10.479   7.113  1.00  0.00     0.037 A 
HETATM   22  C   UNL     1      42.770 -10.228   6.529  1.00  0.00     0.030 A 
HETATM   23  C   UNL     1      42.479 -10.642   5.223  1.00  0.00     0.011 A 
BRANCH  21  24
HETATM   24  N   UNL     1      44.276 -10.118   8.464  1.00  0.00    -0.318 N 
HETATM   25  C   UNL     1      45.127  -9.087   8.898  1.00  0.00     0.224 C 
HETATM   26  O   UNL     1      45.759  -8.281   8.232  1.00  0.00    -0.273 OA
HETATM   27  C   UNL     1      45.234  -9.175  10.403  1.00  0.00     0.105 C 
HETATM   28  C   UNL     1      44.034 -10.017  10.787  1.00  0.00     0.029 C 
HETATM   29  C   UNL     1      43.834 -10.915   9.586  1.00  0.00     0.133 C 
ENDBRANCH  21  24
ENDBRANCH  17  18
ENDBRANCH  14  17
ENDBRANCH   1  14
BRANCH   1  30
HETATM   30  C   UNL     1      42.929 -15.596   2.746  1.00  0.00    -0.019 A 
HETATM   31  C   UNL     1      43.169 -15.777   4.118  1.00  0.00     0.010 A 
HETATM   32  C   UNL     1      43.519 -17.034   4.615  1.00  0.00     0.001 A 
HETATM   33  C   UNL     1      43.628 -18.121   3.752  1.00  0.00     0.000 A 
HETATM   34  C   UNL     1      43.389 -17.958   2.390  1.00  0.00     0.001 A 
HETATM   35  C   UNL     1      43.040 -16.705   1.886  1.00  0.00     0.010 A 
ENDBRANCH   1  30
TORSDOF 8
ENDMDL
MODEL 6
REMARK VINA RESULT:      -8.5      1.798      5.322
REMARK  8 active torsions:
REMARK  status: ('A' for Active; 'I' for Inactive)
REMARK    1  A    between atoms: O_2  and  C_3 
REMARK    2  A    between atoms: C_5  and  N_6 
REMARK       I    between atoms: N_6  and  C_7 
REMARK    3  A    between atoms: C_7  and  C_8 
REMARK    4  A    between atoms: C_8  and  N_9 
REMARK    5  A    between atoms: C_8  and  C_25 
REMARK    6  A    between atoms: N_9  and  C_12 
REMARK    7  A    between atoms: C_12  and  C_13 
REMARK    8  A    between atoms: C_16  and  N_17 
ROOT
HETATM    1  C   UNL     1      39.708 -13.619   1.394  1.00  0.00     0.310 C 
ENDROOT
BRANCH   1   2
HETATM    2  C   UNL     1      40.314 -14.895   2.033  1.00  0.00     0.257 C 
HETATM    3  N   UNL     1      41.677 -14.892   2.234  1.00  0.00    -0.325 N 
HETATM    4  H   UNL     1      42.206 -14.066   1.970  1.00  0.00     0.169 HD
HETATM    5  O   UNL     1      39.532 -15.825   2.253  1.00  0.00    -0.270 OA
BRANCH   3   6
HETATM    6  C   UNL     1      42.448 -15.923   2.821  1.00  0.00     0.037 A 
HETATM    7  C   UNL     1      42.757 -17.128   2.187  1.00  0.00     0.066 A 
HETATM    8  C   UNL     1      43.508 -18.117   2.837  1.00  0.00     0.070 A 
HETATM    9  C   UNL     1      43.969 -17.890   4.131  1.00  0.00     0.037 A 
HETATM   10  C   UNL     1      43.670 -16.687   4.774  1.00  0.00     0.005 A 
HETATM   11  C   UNL     1      42.909 -15.712   4.125  1.00  0.00     0.029 A 
BRANCH   8  12
HETATM   12  O   UNL     1      43.716 -19.248   2.097  1.00  0.00    -0.356 OA
HETATM   13  C   UNL     1      43.587 -20.495   2.772  1.00  0.00     0.210 C 
ENDBRANCH   8  12
ENDBRANCH   3   6
ENDBRANCH   1   2
BRANCH   1  14
HETATM   14  N   UNL     1      40.179 -12.436   2.209  1.00  0.00    -0.054 N 
HETATM   15  H   UNL     1      41.204 -12.556   2.306  1.00  0.00     0.278 HD
HETATM   16  H   UNL     1      40.105 -11.582   1.645  1.00  0.00     0.278 HD
BRANCH  14  17
HETATM   17  C   UNL     1      39.569 -12.219   3.537  1.00  0.00     0.272 C 
BRANCH  17  18
HETATM   18  C   UNL     1      40.635 -11.786   4.501  1.00  0.00    -0.033 A 
HETATM   19  C   UNL     1      41.107 -10.471   4.497  1.00  0.00     0.011 A 
HETATM   20  C   UNL     1      42.208 -10.109   5.285  1.00  0.00     0.030 A 
HETATM   21  C   UNL     1      42.873 -11.043   6.089  1.00  0.00     0.037 A 
HETATM   22  C   UNL     1      42.362 -12.348   6.117  1.00  0.00     0.030 A 
HETATM   23  C   UNL     1      41.264 -12.720   5.333  1.00  0.00     0.011 A 
BRANCH  21  24
HETATM   24  N   UNL     1      44.033 -10.699   6.835  1.00  0.00    -0.318 N 
HETATM   25  C   UNL     1      44.088  -9.795   7.909  1.00  0.00     0.224 C 
HETATM   26  O   UNL     1      43.178  -9.179   8.442  1.00  0.00    -0.273 OA
HETATM   27  C   UNL     1      45.541  -9.605   8.282  1.00  0.00     0.105 C 
HETATM   28  C   UNL     1      46.220 -10.805   7.655  1.00  0.00     0.029 C 
HETATM   29  C   UNL     1      45.365 -11.100   6.442  1.00  0.00     0.133 C 
ENDBRANCH  21  24
ENDBRANCH  17  18
ENDBRANCH  14  17
ENDBRANCH   1  14
BRANCH   1  30
HETATM   30  C   UNL     1      40.042 -13.442  -0.068  1.00  0.00    -0.019 A 
HETATM   31  C   UNL     1      39.590 -14.381  -1.010  1.00  0.00     0.010 A 
HETATM   32  C   UNL     1      39.875 -14.215  -2.366  1.00  0.00     0.001 A 
HETATM   33  C   UNL     1      40.606 -13.112  -2.797  1.00  0.00     0.000 A 
HETATM   34  C   UNL     1      41.057 -12.171  -1.875  1.00  0.00     0.001 A 
HETATM   35  C   UNL     1      40.777 -12.330  -0.518  1.00  0.00     0.010 A 
ENDBRANCH   1  30
TORSDOF 8
ENDMDL
MODEL 7
REMARK VINA RESULT:      -8.3      1.931      2.585
REMARK  8 active torsions:
REMARK  status: ('A' for Active; 'I' for Inactive)
REMARK    1  A    between atoms: O_2  and  C_3 
REMARK    2  A    between atoms: C_5  and  N_6 
REMARK       I    between atoms: N_6  and  C_7 
REMARK    3  A    between atoms: C_7  and  C_8 
REMARK    4  A    between atoms: C_8  and  N_9 
REMARK    5  A    between atoms: C_8  and  C_25 
REMARK    6  A    between atoms: N_9  and  C_12 
REMARK    7  A    between atoms: C_12  and  C_13 
REMARK    8  A    between atoms: C_16  and  N_17 
ROOT
HETATM    1  C   UNL     1      42.786 -14.435   2.766  1.00  0.00     0.310 C 
ENDROOT
BRANCH   1   2
HETATM    2  C   UNL     1      41.434 -14.348   2.014  1.00  0.00     0.257 C 
HETATM    3  N   UNL     1      41.447 -13.693   0.802  1.00  0.00    -0.325 N 
HETATM    4  H   UNL     1      42.327 -13.316   0.463  1.00  0.00     0.169 HD
HETATM    5  O   UNL     1      40.451 -14.824   2.591  1.00  0.00    -0.270 OA
BRANCH   3   6
HETATM    6  C   UNL     1      40.351 -13.511  -0.073  1.00  0.00     0.037 A 
HETATM    7  C   UNL     1      39.989 -14.415  -1.074  1.00  0.00     0.066 A 
HETATM    8  C   UNL     1      38.902 -14.160  -1.922  1.00  0.00     0.070 A 
HETATM    9  C   UNL     1      38.158 -12.995  -1.754  1.00  0.00     0.037 A 
HETATM   10  C   UNL     1      38.508 -12.086  -0.754  1.00  0.00     0.005 A 
HETATM   11  C   UNL     1      39.600 -12.339   0.078  1.00  0.00     0.029 A 
BRANCH   8  12
HETATM   12  O   UNL     1      38.680 -15.127  -2.864  1.00  0.00    -0.356 OA
HETATM   13  C   UNL     1      37.909 -14.756  -4.001  1.00  0.00     0.210 C 
ENDBRANCH   8  12
ENDBRANCH   3   6
ENDBRANCH   1   2
BRANCH   1  14
HETATM   14  N   UNL     1      42.688 -13.542   3.982  1.00  0.00    -0.054 N 
HETATM   15  H   UNL     1      41.701 -13.228   4.017  1.00  0.00     0.278 HD
HETATM   16  H   UNL     1      42.773 -14.111   4.832  1.00  0.00     0.278 HD
BRANCH  14  17
HETATM   17  C   UNL     1      43.592 -12.375   4.063  1.00  0.00     0.272 C 
BRANCH  17  18
HETATM   18  C   UNL     1      43.500 -11.780   5.438  1.00  0.00    -0.033 A 
HETATM   19  C   UNL     1      42.309 -11.205   5.887  1.00  0.00     0.011 A 
HETATM   20  C   UNL     1      42.270 -10.512   7.104  1.00  0.00     0.030 A 
HETATM   21  C   UNL     1      43.411 -10.364   7.901  1.00  0.00     0.037 A 
HETATM   22  C   UNL     1      44.589 -10.983   7.461  1.00  0.00     0.030 A 
HETATM   23  C   UNL     1      44.639 -11.677   6.245  1.00  0.00     0.011 A 
BRANCH  21  24
HETATM   24  N   UNL     1      43.395  -9.602   9.101  1.00  0.00    -0.318 N 
HETATM   25  C   UNL     1      43.716 -10.073  10.385  1.00  0.00     0.224 C 
HETATM   26  O   UNL     1      44.112 -11.179  10.721  1.00  0.00    -0.273 OA
HETATM   27  C   UNL     1      43.395  -8.978  11.376  1.00  0.00     0.105 C 
HETATM   28  C   UNL     1      43.319  -7.737  10.510  1.00  0.00     0.029 C 
HETATM   29  C   UNL     1      42.844  -8.267   9.175  1.00  0.00     0.133 C 
ENDBRANCH  21  24
ENDBRANCH  17  18
ENDBRANCH  14  17
ENDBRANCH   1  14
BRANCH   1  30
HETATM   30  C   UNL     1      43.190 -15.838   3.151  1.00  0.00    -0.019 A 
HETATM   31  C   UNL     1      43.543 -16.129   4.479  1.00  0.00     0.010 A 
HETATM   32  C   UNL     1      43.897 -17.428   4.848  1.00  0.00     0.001 A 
HETATM   33  C   UNL     1      43.898 -18.448   3.901  1.00  0.00     0.000 A 
HETATM   34  C   UNL     1      43.547 -18.176   2.581  1.00  0.00     0.001 A 
HETATM   35  C   UNL     1      43.193 -16.880   2.205  1.00  0.00     0.010 A 
ENDBRANCH   1  30
TORSDOF 8
ENDMDL
MODEL 8
REMARK VINA RESULT:      -8.1      2.289      8.020
REMARK  8 active torsions:
REMARK  status: ('A' for Active; 'I' for Inactive)
REMARK    1  A    between atoms: O_2  and  C_3 
REMARK    2  A    between atoms: C_5  and  N_6 
REMARK       I    between atoms: N_6  and  C_7 
REMARK    3  A    between atoms: C_7  and  C_8 
REMARK    4  A    between atoms: C_8  and  N_9 
REMARK    5  A    between atoms: C_8  and  C_25 
REMARK    6  A    between atoms: N_9  and  C_12 
REMARK    7  A    between atoms: C_12  and  C_13 
REMARK    8  A    between atoms: C_16  and  N_17 
ROOT
HETATM    1  C   UNL     1      42.657 -11.651   4.938  1.00  0.00     0.310 C 
ENDROOT
BRANCH   1   2
HETATM    2  C   UNL     1      42.451 -13.182   4.806  1.00  0.00     0.257 C 
HETATM    3  N   UNL     1      43.201 -13.820   3.842  1.00  0.00    -0.325 N 
HETATM    4  H   UNL     1      43.846 -13.270   3.284  1.00  0.00     0.169 HD
HETATM    5  O   UNL     1      41.594 -13.687   5.537  1.00  0.00    -0.270 OA
BRANCH   3   6
HETATM    6  C   UNL     1      43.206 -15.206   3.555  1.00  0.00     0.037 A 
HETATM    7  C   UNL     1      43.495 -16.199   4.494  1.00  0.00     0.066 A 
HETATM    8  C   UNL     1      43.505 -17.554   4.134  1.00  0.00     0.070 A 
HETATM    9  C   UNL     1      43.204 -17.920   2.825  1.00  0.00     0.037 A 
HETATM   10  C   UNL     1      42.909 -16.936   1.879  1.00  0.00     0.005 A 
HETATM   11  C   UNL     1      42.916 -15.587   2.240  1.00  0.00     0.029 A 
BRANCH   8  12
HETATM   12  O   UNL     1      43.821 -18.408   5.154  1.00  0.00    -0.356 OA
HETATM   13  C   UNL     1      43.348 -18.069   6.453  1.00  0.00     0.210 C 
ENDBRANCH   8  12
ENDBRANCH   3   6
ENDBRANCH   1   2
BRANCH   1  14
HETATM   14  N   UNL     1      41.290 -11.019   5.068  1.00  0.00    -0.054 N 
HETATM   15  H   UNL     1      40.616 -11.804   5.014  1.00  0.00     0.278 HD
HETATM   16  H   UNL     1      41.162 -10.678   6.028  1.00  0.00     0.278 HD
BRANCH  14  17
HETATM   17  C   UNL     1      40.916  -9.964   4.103  1.00  0.00     0.272 C 
BRANCH  17  18
HETATM   18  C   UNL     1      40.404 -10.608   2.848  1.00  0.00    -0.033 A 
HETATM   19  C   UNL     1      39.139 -11.201   2.817  1.00  0.00     0.011 A 
HETATM   20  C   UNL     1      38.727 -11.937   1.699  1.00  0.00     0.030 A 
HETATM   21  C   UNL     1      39.560 -12.111   0.587  1.00  0.00     0.037 A 
HETATM   22  C   UNL     1      40.809 -11.475   0.613  1.00  0.00     0.030 A 
HETATM   23  C   UNL     1      41.231 -10.738   1.727  1.00  0.00     0.011 A 
BRANCH  21  24
HETATM   24  N   UNL     1      39.177 -12.915  -0.520  1.00  0.00    -0.318 N 
HETATM   25  C   UNL     1      39.537 -14.257  -0.733  1.00  0.00     0.224 C 
HETATM   26  O   UNL     1      40.186 -15.001  -0.014  1.00  0.00    -0.273 OA
HETATM   27  C   UNL     1      39.058 -14.654  -2.110  1.00  0.00     0.105 C 
HETATM   28  C   UNL     1      38.021 -13.598  -2.435  1.00  0.00     0.029 C 
HETATM   29  C   UNL     1      38.515 -12.378  -1.688  1.00  0.00     0.133 C 
ENDBRANCH  21  24
ENDBRANCH  17  18
ENDBRANCH  14  17
ENDBRANCH   1  14
BRANCH   1  30
HETATM   30  C   UNL     1      43.558 -11.246   6.080  1.00  0.00    -0.019 A 
HETATM   31  C   UNL     1      44.929 -11.544   6.033  1.00  0.00     0.010 A 
HETATM   32  C   UNL     1      45.774 -11.154   7.074  1.00  0.00     0.001 A 
HETATM   33  C   UNL     1      45.262 -10.460   8.166  1.00  0.00     0.000 A 
HETATM   34  C   UNL     1      43.905 -10.154   8.225  1.00  0.00     0.001 A 
HETATM   35  C   UNL     1      43.055 -10.541   7.189  1.00  0.00     0.010 A 
ENDBRANCH   1  30
TORSDOF 8
ENDMDL
MODEL 9
REMARK VINA RESULT:      -8.0      1.639      2.627
REMARK  8 active torsions:
REMARK  status: ('A' for Active; 'I' for Inactive)
REMARK    1  A    between atoms: O_2  and  C_3 
REMARK    2  A    between atoms: C_5  and  N_6 
REMARK       I    between atoms: N_6  and  C_7 
REMARK    3  A    between atoms: C_7  and  C_8 
REMARK    4  A    between atoms: C_8  and  N_9 
REMARK    5  A    between atoms: C_8  and  C_25 
REMARK    6  A    between atoms: N_9  and  C_12 
REMARK    7  A    between atoms: C_12  and  C_13 
REMARK    8  A    between atoms: C_16  and  N_17 
ROOT
HETATM    1  C   UNL     1      41.139 -14.230   3.264  1.00  0.00     0.310 C 
ENDROOT
BRANCH   1   2
HETATM    2  C   UNL     1      40.366 -13.755   2.007  1.00  0.00     0.257 C 
HETATM    3  N   UNL     1      41.019 -13.886   0.801  1.00  0.00    -0.325 N 
HETATM    4  H   UNL     1      41.951 -14.290   0.793  1.00  0.00     0.169 HD
HETATM    5  O   UNL     1      39.257 -13.249   2.201  1.00  0.00    -0.270 OA
BRANCH   3   6
HETATM    6  C   UNL     1      40.511 -13.549  -0.477  1.00  0.00     0.037 A 
HETATM    7  C   UNL     1      40.819 -12.368  -1.156  1.00  0.00     0.066 A 
HETATM    8  C   UNL     1      40.262 -12.088  -2.411  1.00  0.00     0.070 A 
HETATM    9  C   UNL     1      39.400 -13.009  -3.001  1.00  0.00     0.037 A 
HETATM   10  C   UNL     1      39.088 -14.195  -2.333  1.00  0.00     0.005 A 
HETATM   11  C   UNL     1      39.636 -14.461  -1.077  1.00  0.00     0.029 A 
BRANCH   8  12
HETATM   12  O   UNL     1      40.642 -10.887  -2.944  1.00  0.00    -0.356 OA
HETATM   13  C   UNL     1      41.188  -9.925  -2.048  1.00  0.00     0.210 C 
ENDBRANCH   8  12
ENDBRANCH   3   6
ENDBRANCH   1   2
BRANCH   1  14
HETATM   14  N   UNL     1      40.146 -14.324   4.399  1.00  0.00    -0.054 N 
HETATM   15  H   UNL     1      39.612 -13.436   4.375  1.00  0.00     0.278 HD
HETATM   16  H   UNL     1      39.429 -15.022   4.169  1.00  0.00     0.278 HD
BRANCH  14  17
HETATM   17  C   UNL     1      40.666 -14.563   5.761  1.00  0.00     0.272 C 
BRANCH  17  18
HETATM   18  C   UNL     1      41.692 -13.517   6.085  1.00  0.00    -0.033 A 
HETATM   19  C   UNL     1      42.917 -13.874   6.653  1.00  0.00     0.011 A 
HETATM   20  C   UNL     1      43.807 -12.887   7.099  1.00  0.00     0.030 A 
HETATM   21  C   UNL     1      43.500 -11.524   7.002  1.00  0.00     0.037 A 
HETATM   22  C   UNL     1      42.287 -11.179   6.390  1.00  0.00     0.030 A 
HETATM   23  C   UNL     1      41.391 -12.158   5.943  1.00  0.00     0.011 A 
BRANCH  21  24
HETATM   24  N   UNL     1      44.366 -10.522   7.517  1.00  0.00    -0.318 N 
HETATM   25  C   UNL     1      45.753 -10.440   7.309  1.00  0.00     0.224 C 
HETATM   26  O   UNL     1      46.471 -11.154   6.625  1.00  0.00    -0.273 OA
HETATM   27  C   UNL     1      46.289  -9.326   8.180  1.00  0.00     0.105 C 
HETATM   28  C   UNL     1      45.050  -8.520   8.513  1.00  0.00     0.029 C 
HETATM   29  C   UNL     1      43.944  -9.552   8.503  1.00  0.00     0.133 C 
ENDBRANCH  21  24
ENDBRANCH  17  18
ENDBRANCH  14  17
ENDBRANCH   1  14
BRANCH   1  30
HETATM   30  C   UNL     1      41.879 -15.533   3.077  1.00  0.00    -0.019 A 
HETATM   31  C   UNL     1      41.279 -16.588   2.371  1.00  0.00     0.010 A 
HETATM   32  C   UNL     1      41.963 -17.788   2.175  1.00  0.00     0.001 A 
HETATM   33  C   UNL     1      43.253 -17.947   2.675  1.00  0.00     0.000 A 
HETATM   34  C   UNL     1      43.863 -16.909   3.373  1.00  0.00     0.001 A 
HETATM   35  C   UNL     1      43.184 -15.707   3.574  1.00  0.00     0.010 A 
ENDBRANCH   1  30
TORSDOF 8
ENDMDL
MODEL 10
REMARK VINA RESULT:      -8.0      2.232      7.722
REMARK  8 active torsions:
REMARK  status: ('A' for Active; 'I' for Inactive)
REMARK    1  A    between atoms: O_2  and  C_3 
REMARK    2  A    between atoms: C_5  and  N_6 
REMARK       I    between atoms: N_6  and  C_7 
REMARK    3  A    between atoms: C_7  and  C_8 
REMARK    4  A    between atoms: C_8  and  N_9 
REMARK    5  A    between atoms: C_8  and  C_25 
REMARK    6  A    between atoms: N_9  and  C_12 
REMARK    7  A    between atoms: C_12  and  C_13 
REMARK    8  A    between atoms: C_16  and  N_17 
ROOT
HETATM    1  C   UNL     1      41.306 -16.197   3.155  1.00  0.00     0.310 C 
ENDROOT
BRANCH   1   2
HETATM    2  C   UNL     1      41.296 -14.897   4.000  1.00  0.00     0.257 C 
HETATM    3  N   UNL     1      42.137 -13.889   3.582  1.00  0.00    -0.325 N 
HETATM    4  H   UNL     1      42.702 -14.039   2.751  1.00  0.00     0.169 HD
HETATM    5  O   UNL     1      40.579 -14.899   5.005  1.00  0.00    -0.270 OA
BRANCH   3   6
HETATM    6  C   UNL     1      42.282 -12.610   4.171  1.00  0.00     0.037 A 
HETATM    7  C   UNL     1      43.120 -12.337   5.254  1.00  0.00     0.066 A 
HETATM    8  C   UNL     1      43.198 -11.050   5.803  1.00  0.00     0.070 A 
HETATM    9  C   UNL     1      42.442 -10.020   5.249  1.00  0.00     0.037 A 
HETATM   10  C   UNL     1      41.604 -10.280   4.163  1.00  0.00     0.005 A 
HETATM   11  C   UNL     1      41.520 -11.568   3.630  1.00  0.00     0.029 A 
BRANCH   8  12
HETATM   12  O   UNL     1      44.047 -10.939   6.870  1.00  0.00    -0.356 OA
HETATM   13  C   UNL     1      45.430 -11.163   6.621  1.00  0.00     0.210 C 
ENDBRANCH   8  12
ENDBRANCH   3   6
ENDBRANCH   1   2
BRANCH   1  14
HETATM   14  N   UNL     1      41.298 -15.792   1.699  1.00  0.00    -0.054 N 
HETATM   15  H   UNL     1      41.794 -14.884   1.661  1.00  0.00     0.278 HD
HETATM   16  H   UNL     1      41.923 -16.412   1.169  1.00  0.00     0.278 HD
BRANCH  14  17
HETATM   17  C   UNL     1      39.994 -15.684   1.013  1.00  0.00     0.272 C 
BRANCH  17  18
HETATM   18  C   UNL     1      40.053 -14.559   0.022  1.00  0.00    -0.033 A 
HETATM   19  C   UNL     1      40.590 -13.320   0.383  1.00  0.00     0.011 A 
HETATM   20  C   UNL     1      40.501 -12.227  -0.489  1.00  0.00     0.030 A 
HETATM   21  C   UNL     1      39.871 -12.332  -1.735  1.00  0.00     0.037 A 
HETATM   22  C   UNL     1      39.376 -13.591  -2.103  1.00  0.00     0.030 A 
HETATM   23  C   UNL     1      39.459 -14.689  -1.238  1.00  0.00     0.011 A 
BRANCH  21  24
HETATM   24  N   UNL     1      39.714 -11.210  -2.594  1.00  0.00    -0.318 N 
HETATM   25  C   UNL     1      38.499 -10.598  -2.942  1.00  0.00     0.224 C 
HETATM   26  O   UNL     1      37.369 -10.856  -2.554  1.00  0.00    -0.273 OA
HETATM   27  C   UNL     1      38.787  -9.563  -4.006  1.00  0.00     0.105 C 
HETATM   28  C   UNL     1      40.279  -9.337  -3.875  1.00  0.00     0.029 C 
HETATM   29  C   UNL     1      40.797 -10.672  -3.387  1.00  0.00     0.133 C 
ENDBRANCH  21  24
ENDBRANCH  17  18
ENDBRANCH  14  17
ENDBRANCH   1  14
BRANCH   1  30
HETATM   30  C   UNL     1      42.460 -17.122   3.459  1.00  0.00    -0.019 A 
HETATM   31  C   UNL     1      43.100 -17.060   4.708  1.00  0.00     0.010 A 
HETATM   32  C   UNL     1      44.154 -17.926   5.006  1.00  0.00     0.001 A 
HETATM   33  C   UNL     1      44.575 -18.863   4.067  1.00  0.00     0.000 A 
HETATM   34  C   UNL     1      43.947 -18.939   2.826  1.00  0.00     0.001 A 
HETATM   35  C   UNL     1      42.894 -18.077   2.521  1.00  0.00     0.010 A 
ENDBRANCH   1  30
TORSDOF 8
ENDMDL
