MODEL 1
REMARK VINA RESULT:      -9.7      0.000      0.000
REMARK  11 active torsions:
REMARK  status: ('A' for Active; 'I' for Inactive)
REMARK    1  A    between atoms: C_2  and  O_3 
REMARK    2  A    between atoms: O_3  and  C_4 
REMARK    3  A    between atoms: C_7  and  N_8 
REMARK       I    between atoms: N_8  and  C_9 
REMARK    4  A    between atoms: C_9  and  C_10 
REMARK    5  A    between atoms: C_10  and  C_11 
REMARK    6  A    between atoms: N_12  and  C_13 
REMARK    7  A    between atoms: C_13  and  C_14 
REMARK    8  A    between atoms: C_14  and  C_15 
REMARK    9  A    between atoms: C_15  and  N_16 
REMARK   10  A    between atoms: C_20  and  C_21 
REMARK       I    between atoms: C_21  and  N_22 
REMARK   11  A    between atoms: N_28  and  C_29 
ROOT
HETATM    1  C   UNL     1      41.739 -13.797   6.214  1.00  0.00     0.188 C 
HETATM    2  N   UNL     1      42.589 -13.164   5.212  1.00  0.00    -0.344 N 
HETATM    3  C   UNL     1      42.867 -14.056   4.157  1.00  0.00     0.184 C 
HETATM    4  S   UNL     1      43.392 -13.551   2.649  1.00  0.00    -0.040 SA
HETATM    5  N   UNL     1      42.545 -15.339   4.592  1.00  0.00    -0.257 N 
HETATM    6  C   UNL     1      41.868 -15.257   5.795  1.00  0.00     0.254 C 
HETATM    7  O   UNL     1      41.349 -16.155   6.450  1.00  0.00    -0.270 OA
ENDROOT
BRANCH   2   8
HETATM    8  C   UNL     1      42.849 -11.720   5.267  1.00  0.00     0.128 C 
BRANCH   8   9
HETATM    9  C   UNL     1      43.402 -11.266   6.630  1.00  0.00     0.048 C 
BRANCH   9  10
HETATM   10  C   UNL     1      42.674 -10.041   7.193  1.00  0.00     0.236 C 
BRANCH  10  11
HETATM   11  N   UNL     1      43.369  -9.498   8.435  1.00  0.00    -0.071 N 
HETATM   12  H   UNL     1      44.026  -8.763   8.146  1.00  0.00     0.279 HD
HETATM   13  C   UNL     1      42.372  -8.898   9.408  1.00  0.00     0.235 C 
HETATM   14  C   UNL     1      43.110  -8.311  10.605  1.00  0.00     0.042 C 
HETATM   15  C   UNL     1      43.953  -9.367  11.322  1.00  0.00     0.081 C 
HETATM   16  C   UNL     1      44.896 -10.057  10.331  1.00  0.00     0.042 C 
HETATM   17  C   UNL     1      44.193 -10.594   9.089  1.00  0.00     0.235 C 
BRANCH  15  18
HETATM   18  C   UNL     1      43.045 -10.371  12.016  1.00  0.00     0.219 C 
HETATM   19  N   UNL     1      43.595 -11.588  12.265  1.00  0.00    -0.370 N 
HETATM   20  H   UNL     1      44.385 -11.945  11.742  1.00  0.00     0.159 HD
HETATM   21  H   UNL     1      42.982 -12.289  12.672  1.00  0.00     0.159 HD
HETATM   22  O   UNL     1      41.928 -10.083  12.429  1.00  0.00    -0.273 OA
ENDBRANCH  15  18
ENDBRANCH  10  11
ENDBRANCH   9  10
ENDBRANCH   8   9
ENDBRANCH   2   8
BRANCH   1  23
HETATM   23  C   UNL     1      40.278 -13.384   6.088  1.00  0.00     0.138 C 
BRANCH  23  24
HETATM   24  C   UNL     1      39.973 -12.780   4.731  1.00  0.00     0.224 C 
HETATM   25  N   UNL     1      39.581 -13.709   3.792  1.00  0.00    -0.327 N 
HETATM   26  H   UNL     1      39.265 -14.619   4.127  1.00  0.00     0.169 HD
HETATM   27  O   UNL     1      40.100 -11.570   4.563  1.00  0.00    -0.273 OA
BRANCH  25  28
HETATM   28  C   UNL     1      39.511 -13.544   2.395  1.00  0.00     0.034 A 
HETATM   29  C   UNL     1      39.043 -12.393   1.765  1.00  0.00     0.032 A 
HETATM   30  C   UNL     1      39.097 -12.287   0.369  1.00  0.00     0.039 A 
HETATM   31  C   UNL     1      39.615 -13.322  -0.411  1.00  0.00     0.068 A 
HETATM   32  C   UNL     1      40.059 -14.484   0.215  1.00  0.00     0.039 A 
HETATM   33  C   UNL     1      40.011 -14.591   1.609  1.00  0.00     0.032 A 
BRANCH  31  34
HETATM   34  O   UNL     1      39.637 -13.077  -1.756  1.00  0.00    -0.352 OA
BRANCH  34  35
HETATM   35  C   UNL     1      39.857 -14.198  -2.614  1.00  0.00     0.171 C 
HETATM   36  C   UNL     1      38.520 -14.622  -3.192  1.00  0.00     0.034 C 
ENDBRANCH  34  35
ENDBRANCH  31  34
ENDBRANCH  25  28
ENDBRANCH  23  24
ENDBRANCH   1  23
BRANCH   5  37
HETATM   37  C   UNL     1      42.859 -16.586   3.964  1.00  0.00     0.045 A 
HETATM   38  C   UNL     1      43.900 -17.401   4.442  1.00  0.00     0.032 A 
HETATM   39  C   UNL     1      44.241 -18.603   3.806  1.00  0.00     0.026 A 
HETATM   40  C   UNL     1      43.547 -19.010   2.675  1.00  0.00     0.034 A 
HETATM   41 CL   UNL     1      43.965 -20.478   1.888  1.00  0.00    -0.084 Cl
HETATM   42  C   UNL     1      42.520 -18.221   2.172  1.00  0.00     0.026 A 
HETATM   43  C   UNL     1      42.188 -17.017   2.808  1.00  0.00     0.032 A 
ENDBRANCH   5  37
TORSDOF 11
ENDMDL
MODEL 2
REMARK VINA RESULT:      -9.2      4.454      7.947
REMARK  11 active torsions:
REMARK  status: ('A' for Active; 'I' for Inactive)
REMARK    1  A    between atoms: C_2  and  O_3 
REMARK    2  A    between atoms: O_3  and  C_4 
REMARK    3  A    between atoms: C_7  and  N_8 
REMARK       I    between atoms: N_8  and  C_9 
REMARK    4  A    between atoms: C_9  and  C_10 
REMARK    5  A    between atoms: C_10  and  C_11 
REMARK    6  A    between atoms: N_12  and  C_13 
REMARK    7  A    between atoms: C_13  and  C_14 
REMARK    8  A    between atoms: C_14  and  C_15 
REMARK    9  A    between atoms: C_15  and  N_16 
REMARK   10  A    between atoms: C_20  and  C_21 
REMARK       I    between atoms: C_21  and  N_22 
REMARK   11  A    between atoms: N_28  and  C_29 
ROOT
HETATM    1  C   UNL     1      40.413 -11.382   0.143  1.00  0.00     0.188 C 
HETATM    2  N   UNL     1      39.809 -10.151   0.640  1.00  0.00    -0.344 N 
HETATM    3  C   UNL     1      39.846  -9.144  -0.344  1.00  0.00     0.184 C 
HETATM    4  S   UNL     1      38.853  -7.796  -0.308  1.00  0.00    -0.040 SA
HETATM    5  N   UNL     1      40.758  -9.538  -1.319  1.00  0.00    -0.257 N 
HETATM    6  C   UNL     1      41.124 -10.853  -1.097  1.00  0.00     0.254 C 
HETATM    7  O   UNL     1      41.838 -11.580  -1.780  1.00  0.00    -0.270 OA
ENDROOT
BRANCH   2   8
HETATM    8  C   UNL     1      39.070 -10.149   1.909  1.00  0.00     0.128 C 
BRANCH   8   9
HETATM    9  C   UNL     1      39.997 -10.197   3.137  1.00  0.00     0.048 C 
BRANCH   9  10
HETATM   10  C   UNL     1      39.577 -11.257   4.162  1.00  0.00     0.236 C 
BRANCH  10  11
HETATM   11  N   UNL     1      40.664 -12.304   4.363  1.00  0.00    -0.071 N 
HETATM   12  H   UNL     1      40.403 -13.150   3.843  1.00  0.00     0.279 HD
HETATM   13  C   UNL     1      42.004 -11.815   3.847  1.00  0.00     0.235 C 
HETATM   14  C   UNL     1      43.050 -12.911   4.009  1.00  0.00     0.042 C 
HETATM   15  C   UNL     1      43.191 -13.345   5.468  1.00  0.00     0.081 C 
HETATM   16  C   UNL     1      41.827 -13.747   6.038  1.00  0.00     0.042 C 
HETATM   17  C   UNL     1      40.743 -12.695   5.829  1.00  0.00     0.235 C 
BRANCH  15  18
HETATM   18  C   UNL     1      43.827 -12.228   6.282  1.00  0.00     0.219 C 
HETATM   19  N   UNL     1      43.600 -12.273   7.621  1.00  0.00    -0.370 N 
HETATM   20  H   UNL     1      42.810 -12.762   8.023  1.00  0.00     0.159 HD
HETATM   21  H   UNL     1      43.966 -11.500   8.169  1.00  0.00     0.159 HD
HETATM   22  O   UNL     1      44.586 -11.400   5.794  1.00  0.00    -0.273 OA
ENDBRANCH  15  18
ENDBRANCH  10  11
ENDBRANCH   9  10
ENDBRANCH   8   9
ENDBRANCH   2   8
BRANCH   1  23
HETATM   23  C   UNL     1      39.375 -12.408  -0.295  1.00  0.00     0.138 C 
BRANCH  23  24
HETATM   24  C   UNL     1      39.781 -13.822   0.076  1.00  0.00     0.224 C 
HETATM   25  N   UNL     1      40.361 -13.918   1.321  1.00  0.00    -0.327 N 
HETATM   26  H   UNL     1      40.220 -13.147   1.973  1.00  0.00     0.169 HD
HETATM   27  O   UNL     1      39.588 -14.736  -0.722  1.00  0.00    -0.273 OA
BRANCH  25  28
HETATM   28  C   UNL     1      41.104 -14.995   1.844  1.00  0.00     0.034 A 
HETATM   29  C   UNL     1      42.321 -15.431   1.326  1.00  0.00     0.032 A 
HETATM   30  C   UNL     1      43.031 -16.453   1.970  1.00  0.00     0.039 A 
HETATM   31  C   UNL     1      42.538 -17.050   3.131  1.00  0.00     0.068 A 
HETATM   32  C   UNL     1      41.308 -16.633   3.635  1.00  0.00     0.039 A 
HETATM   33  C   UNL     1      40.599 -15.610   2.997  1.00  0.00     0.032 A 
BRANCH  31  34
HETATM   34  O   UNL     1      43.343 -18.012   3.675  1.00  0.00    -0.352 OA
BRANCH  34  35
HETATM   35  C   UNL     1      44.157 -18.759   2.771  1.00  0.00     0.171 C 
HETATM   36  C   UNL     1      43.431 -20.047   2.432  1.00  0.00     0.034 C 
ENDBRANCH  34  35
ENDBRANCH  31  34
ENDBRANCH  25  28
ENDBRANCH  23  24
ENDBRANCH   1  23
BRANCH   5  37
HETATM   37  C   UNL     1      41.297  -8.755  -2.389  1.00  0.00     0.045 A 
HETATM   38  C   UNL     1      42.437  -7.953  -2.202  1.00  0.00     0.032 A 
HETATM   39  C   UNL     1      42.944  -7.150  -3.233  1.00  0.00     0.026 A 
HETATM   40  C   UNL     1      42.317  -7.133  -4.472  1.00  0.00     0.034 A 
HETATM   41 CL   UNL     1      42.931  -6.146  -5.736  1.00  0.00    -0.084 Cl
HETATM   42  C   UNL     1      41.183  -7.906  -4.684  1.00  0.00     0.026 A 
HETATM   43  C   UNL     1      40.675  -8.701  -3.648  1.00  0.00     0.032 A 
ENDBRANCH   5  37
TORSDOF 11
ENDMDL
MODEL 3
REMARK VINA RESULT:      -9.0      3.111      6.134
REMARK  11 active torsions:
REMARK  status: ('A' for Active; 'I' for Inactive)
REMARK    1  A    between atoms: C_2  and  O_3 
REMARK    2  A    between atoms: O_3  and  C_4 
REMARK    3  A    between atoms: C_7  and  N_8 
REMARK       I    between atoms: N_8  and  C_9 
REMARK    4  A    between atoms: C_9  and  C_10 
REMARK    5  A    between atoms: C_10  and  C_11 
REMARK    6  A    between atoms: N_12  and  C_13 
REMARK    7  A    between atoms: C_13  and  C_14 
REMARK    8  A    between atoms: C_14  and  C_15 
REMARK    9  A    between atoms: C_15  and  N_16 
REMARK   10  A    between atoms: C_20  and  C_21 
REMARK       I    between atoms: C_21  and  N_22 
REMARK   11  A    between atoms: N_28  and  C_29 
ROOT
HETATM    1  C   UNL     1      40.631 -12.199   5.174  1.00  0.00     0.188 C 
HETATM    2  N   UNL     1      40.235 -10.836   5.509  1.00  0.00    -0.344 N 
HETATM    3  C   UNL     1      39.370 -10.312   4.528  1.00  0.00     0.184 C 
HETATM    4  S   UNL     1      38.364  -9.002   4.804  1.00  0.00    -0.040 SA
HETATM    5  N   UNL     1      39.471 -11.122   3.400  1.00  0.00    -0.257 N 
HETATM    6  C   UNL     1      40.192 -12.258   3.716  1.00  0.00     0.254 C 
HETATM    7  O   UNL     1      40.425 -13.242   3.021  1.00  0.00    -0.270 OA
ENDROOT
BRANCH   2   8
HETATM    8  C   UNL     1      40.545 -10.279   6.832  1.00  0.00     0.128 C 
BRANCH   8   9
HETATM    9  C   UNL     1      41.739  -9.307   6.803  1.00  0.00     0.048 C 
BRANCH   9  10
HETATM   10  C   UNL     1      43.072  -9.986   7.136  1.00  0.00     0.236 C 
BRANCH  10  11
HETATM   11  N   UNL     1      43.669  -9.444   8.428  1.00  0.00    -0.071 N 
HETATM   12  H   UNL     1      44.353  -8.715   8.190  1.00  0.00     0.279 HD
HETATM   13  C   UNL     1      42.602  -8.832   9.315  1.00  0.00     0.235 C 
HETATM   14  C   UNL     1      43.246  -8.247  10.567  1.00  0.00     0.042 C 
HETATM   15  C   UNL     1      44.020  -9.307  11.352  1.00  0.00     0.081 C 
HETATM   16  C   UNL     1      45.034 -10.007  10.442  1.00  0.00     0.042 C 
HETATM   17  C   UNL     1      44.429 -10.544   9.149  1.00  0.00     0.235 C 
BRANCH  15  18
HETATM   18  C   UNL     1      43.051 -10.301  11.974  1.00  0.00     0.219 C 
HETATM   19  N   UNL     1      43.560 -11.534  12.235  1.00  0.00    -0.370 N 
HETATM   20  H   UNL     1      44.372 -11.900  11.753  1.00  0.00     0.159 HD
HETATM   21  H   UNL     1      42.909 -12.227  12.592  1.00  0.00     0.159 HD
HETATM   22  O   UNL     1      41.919  -9.994  12.325  1.00  0.00    -0.273 OA
ENDBRANCH  15  18
ENDBRANCH  10  11
ENDBRANCH   9  10
ENDBRANCH   8   9
ENDBRANCH   2   8
BRANCH   1  23
HETATM   23  C   UNL     1      39.849 -13.246   5.957  1.00  0.00     0.138 C 
BRANCH  23  24
HETATM   24  C   UNL     1      40.577 -14.575   6.016  1.00  0.00     0.224 C 
HETATM   25  N   UNL     1      41.825 -14.544   5.433  1.00  0.00    -0.327 N 
HETATM   26  H   UNL     1      42.256 -13.632   5.280  1.00  0.00     0.169 HD
HETATM   27  O   UNL     1      40.031 -15.542   6.539  1.00  0.00    -0.273 OA
BRANCH  25  28
HETATM   28  C   UNL     1      42.626 -15.639   5.056  1.00  0.00     0.034 A 
HETATM   29  C   UNL     1      43.688 -16.129   5.813  1.00  0.00     0.032 A 
HETATM   30  C   UNL     1      44.370 -17.281   5.400  1.00  0.00     0.039 A 
HETATM   31  C   UNL     1      44.004 -17.955   4.233  1.00  0.00     0.068 A 
HETATM   32  C   UNL     1      42.959 -17.451   3.462  1.00  0.00     0.039 A 
HETATM   33  C   UNL     1      42.274 -16.304   3.874  1.00  0.00     0.032 A 
BRANCH  31  34
HETATM   34  O   UNL     1      44.731 -19.080   3.962  1.00  0.00    -0.352 OA
BRANCH  34  35
HETATM   35  C   UNL     1      44.019 -20.317   3.927  1.00  0.00     0.171 C 
HETATM   36  C   UNL     1      43.952 -20.866   5.340  1.00  0.00     0.034 C 
ENDBRANCH  34  35
ENDBRANCH  31  34
ENDBRANCH  25  28
ENDBRANCH  23  24
ENDBRANCH   1  23
BRANCH   5  37
HETATM   37  C   UNL     1      38.961 -10.869   2.086  1.00  0.00     0.045 A 
HETATM   38  C   UNL     1      37.667 -11.274   1.715  1.00  0.00     0.032 A 
HETATM   39  C   UNL     1      37.179 -11.068   0.418  1.00  0.00     0.026 A 
HETATM   40  C   UNL     1      37.980 -10.454  -0.536  1.00  0.00     0.034 A 
HETATM   41 CL   UNL     1      37.388 -10.205  -2.129  1.00  0.00    -0.084 Cl
HETATM   42  C   UNL     1      39.268 -10.053  -0.203  1.00  0.00     0.026 A 
HETATM   43  C   UNL     1      39.753 -10.268   1.094  1.00  0.00     0.032 A 
ENDBRANCH   5  37
TORSDOF 11
ENDMDL
MODEL 4
REMARK VINA RESULT:      -8.9      3.905      9.475
REMARK  11 active torsions:
REMARK  status: ('A' for Active; 'I' for Inactive)
REMARK    1  A    between atoms: C_2  and  O_3 
REMARK    2  A    between atoms: O_3  and  C_4 
REMARK    3  A    between atoms: C_7  and  N_8 
REMARK       I    between atoms: N_8  and  C_9 
REMARK    4  A    between atoms: C_9  and  C_10 
REMARK    5  A    between atoms: C_10  and  C_11 
REMARK    6  A    between atoms: N_12  and  C_13 
REMARK    7  A    between atoms: C_13  and  C_14 
REMARK    8  A    between atoms: C_14  and  C_15 
REMARK    9  A    between atoms: C_15  and  N_16 
REMARK   10  A    between atoms: C_20  and  C_21 
REMARK       I    between atoms: C_21  and  N_22 
REMARK   11  A    between atoms: N_28  and  C_29 
ROOT
HETATM    1  C   UNL     1      40.802 -11.153   4.226  1.00  0.00     0.188 C 
HETATM    2  N   UNL     1      39.769 -10.138   4.056  1.00  0.00    -0.344 N 
HETATM    3  C   UNL     1      39.656  -9.342   5.214  1.00  0.00     0.184 C 
HETATM    4  S   UNL     1      38.939  -7.829   5.214  1.00  0.00    -0.040 SA
HETATM    5  N   UNL     1      40.302 -10.010   6.250  1.00  0.00    -0.257 N 
HETATM    6  C   UNL     1      41.007 -11.081   5.734  1.00  0.00     0.254 C 
HETATM    7  O   UNL     1      41.763 -11.856   6.311  1.00  0.00    -0.270 OA
ENDROOT
BRANCH   2   8
HETATM    8  C   UNL     1      39.171  -9.903   2.736  1.00  0.00     0.128 C 
BRANCH   8   9
HETATM    9  C   UNL     1      38.943 -11.204   1.946  1.00  0.00     0.048 C 
BRANCH   9  10
HETATM   10  C   UNL     1      38.607 -10.958   0.471  1.00  0.00     0.236 C 
BRANCH  10  11
HETATM   11  N   UNL     1      39.459 -11.822  -0.450  1.00  0.00    -0.071 N 
HETATM   12  H   UNL     1      40.440 -11.535  -0.350  1.00  0.00     0.279 HD
HETATM   13  C   UNL     1      39.347 -13.291  -0.088  1.00  0.00     0.235 C 
HETATM   14  C   UNL     1      40.259 -14.115  -0.988  1.00  0.00     0.042 C 
HETATM   15  C   UNL     1      39.915 -13.924  -2.466  1.00  0.00     0.081 C 
HETATM   16  C   UNL     1      39.924 -12.435  -2.826  1.00  0.00     0.042 C 
HETATM   17  C   UNL     1      39.072 -11.576  -1.898  1.00  0.00     0.235 C 
BRANCH  15  18
HETATM   18  C   UNL     1      38.569 -14.562  -2.772  1.00  0.00     0.219 C 
HETATM   19  N   UNL     1      38.457 -15.879  -2.455  1.00  0.00    -0.370 N 
HETATM   20  H   UNL     1      39.262 -16.487  -2.366  1.00  0.00     0.159 HD
HETATM   21  H   UNL     1      37.585 -16.335  -2.710  1.00  0.00     0.159 HD
HETATM   22  O   UNL     1      37.605 -13.922  -3.173  1.00  0.00    -0.273 OA
ENDBRANCH  15  18
ENDBRANCH  10  11
ENDBRANCH   9  10
ENDBRANCH   8   9
ENDBRANCH   2   8
BRANCH   1  23
HETATM   23  C   UNL     1      42.110 -10.777   3.542  1.00  0.00     0.138 C 
BRANCH  23  24
HETATM   24  C   UNL     1      42.925 -11.998   3.160  1.00  0.00     0.224 C 
HETATM   25  N   UNL     1      42.156 -13.110   2.896  1.00  0.00    -0.327 N 
HETATM   26  H   UNL     1      41.165 -12.968   2.702  1.00  0.00     0.169 HD
HETATM   27  O   UNL     1      44.150 -11.923   3.127  1.00  0.00    -0.273 OA
BRANCH  25  28
HETATM   28  C   UNL     1      42.583 -14.450   2.806  1.00  0.00     0.034 A 
HETATM   29  C   UNL     1      42.868 -15.102   1.609  1.00  0.00     0.032 A 
HETATM   30  C   UNL     1      43.374 -16.408   1.625  1.00  0.00     0.039 A 
HETATM   31  C   UNL     1      43.600 -17.077   2.830  1.00  0.00     0.068 A 
HETATM   32  C   UNL     1      43.291 -16.436   4.027  1.00  0.00     0.039 A 
HETATM   33  C   UNL     1      42.790 -15.130   4.013  1.00  0.00     0.032 A 
BRANCH  31  34
HETATM   34  O   UNL     1      44.124 -18.333   2.705  1.00  0.00    -0.352 OA
BRANCH  34  35
HETATM   35  C   UNL     1      43.253 -19.350   2.208  1.00  0.00     0.171 C 
HETATM   36  C   UNL     1      43.616 -20.658   2.886  1.00  0.00     0.034 C 
ENDBRANCH  34  35
ENDBRANCH  31  34
ENDBRANCH  25  28
ENDBRANCH  23  24
ENDBRANCH   1  23
BRANCH   5  37
HETATM   37  C   UNL     1      40.264  -9.710   7.649  1.00  0.00     0.045 A 
HETATM   38  C   UNL     1      39.166 -10.083   8.445  1.00  0.00     0.032 A 
HETATM   39  C   UNL     1      39.102  -9.755   9.806  1.00  0.00     0.026 A 
HETATM   40  C   UNL     1      40.137  -9.043  10.397  1.00  0.00     0.034 A 
HETATM   41 CL   UNL     1      40.061  -8.633  12.063  1.00  0.00    -0.084 Cl
HETATM   42  C   UNL     1      41.231  -8.651   9.635  1.00  0.00     0.026 A 
HETATM   43  C   UNL     1      41.285  -8.975   8.273  1.00  0.00     0.032 A 
ENDBRANCH   5  37
TORSDOF 11
ENDMDL
MODEL 5
REMARK VINA RESULT:      -8.8      3.817      6.962
REMARK  11 active torsions:
REMARK  status: ('A' for Active; 'I' for Inactive)
REMARK    1  A    between atoms: C_2  and  O_3 
REMARK    2  A    between atoms: O_3  and  C_4 
REMARK    3  A    between atoms: C_7  and  N_8 
REMARK       I    between atoms: N_8  and  C_9 
REMARK    4  A    between atoms: C_9  and  C_10 
REMARK    5  A    between atoms: C_10  and  C_11 
REMARK    6  A    between atoms: N_12  and  C_13 
REMARK    7  A    between atoms: C_13  and  C_14 
REMARK    8  A    between atoms: C_14  and  C_15 
REMARK    9  A    between atoms: C_15  and  N_16 
REMARK   10  A    between atoms: C_20  and  C_21 
REMARK       I    between atoms: C_21  and  N_22 
REMARK   11  A    between atoms: N_28  and  C_29 
ROOT
HETATM    1  C   UNL     1      40.619 -12.070   2.206  1.00  0.00     0.188 C 
HETATM    2  N   UNL     1      40.240 -10.739   2.667  1.00  0.00    -0.344 N 
HETATM    3  C   UNL     1      39.940  -9.900   1.576  1.00  0.00     0.184 C 
HETATM    4  S   UNL     1      39.037  -8.498   1.725  1.00  0.00    -0.040 SA
HETATM    5  N   UNL     1      40.448 -10.502   0.428  1.00  0.00    -0.257 N 
HETATM    6  C   UNL     1      40.855 -11.788   0.728  1.00  0.00     0.254 C 
HETATM    7  O   UNL     1      41.277 -12.659  -0.026  1.00  0.00    -0.270 OA
ENDROOT
BRANCH   2   8
HETATM    8  C   UNL     1      39.993 -10.491   4.093  1.00  0.00     0.128 C 
BRANCH   8   9
HETATM    9  C   UNL     1      41.161 -10.945   4.988  1.00  0.00     0.048 C 
BRANCH   9  10
HETATM   10  C   UNL     1      41.634  -9.854   5.954  1.00  0.00     0.236 C 
BRANCH  10  11
HETATM   11  N   UNL     1      42.589 -10.410   7.002  1.00  0.00    -0.071 N 
HETATM   12  H   UNL     1      42.181 -11.268   7.392  1.00  0.00     0.279 HD
HETATM   13  C   UNL     1      43.937 -10.748   6.397  1.00  0.00     0.235 C 
HETATM   14  C   UNL     1      44.842 -11.357   7.461  1.00  0.00     0.042 C 
HETATM   15  C   UNL     1      45.036 -10.411   8.647  1.00  0.00     0.081 C 
HETATM   16  C   UNL     1      43.678  -9.977   9.208  1.00  0.00     0.042 C 
HETATM   17  C   UNL     1      42.726  -9.426   8.151  1.00  0.00     0.235 C 
BRANCH  15  18
HETATM   18  C   UNL     1      45.871  -9.212   8.222  1.00  0.00     0.219 C 
HETATM   19  N   UNL     1      47.015  -9.502   7.549  1.00  0.00    -0.370 N 
HETATM   20  H   UNL     1      47.477 -10.400   7.622  1.00  0.00     0.159 HD
HETATM   21  H   UNL     1      47.614  -8.715   7.314  1.00  0.00     0.159 HD
HETATM   22  O   UNL     1      45.497  -8.056   8.371  1.00  0.00    -0.273 OA
ENDBRANCH  15  18
ENDBRANCH  10  11
ENDBRANCH   9  10
ENDBRANCH   8   9
ENDBRANCH   2   8
BRANCH   1  23
HETATM   23  C   UNL     1      39.483 -13.078   2.332  1.00  0.00     0.138 C 
BRANCH  23  24
HETATM   24  C   UNL     1      39.992 -14.476   2.623  1.00  0.00     0.224 C 
HETATM   25  N   UNL     1      41.112 -14.498   3.425  1.00  0.00    -0.327 N 
HETATM   26  H   UNL     1      41.327 -13.659   3.964  1.00  0.00     0.169 HD
HETATM   27  O   UNL     1      39.411 -15.445   2.140  1.00  0.00    -0.273 OA
BRANCH  25  28
HETATM   28  C   UNL     1      41.995 -15.573   3.642  1.00  0.00     0.034 A 
HETATM   29  C   UNL     1      42.427 -15.990   4.899  1.00  0.00     0.032 A 
HETATM   30  C   UNL     1      43.234 -17.128   5.021  1.00  0.00     0.039 A 
HETATM   31  C   UNL     1      43.619 -17.861   3.896  1.00  0.00     0.068 A 
HETATM   32  C   UNL     1      43.210 -17.430   2.637  1.00  0.00     0.039 A 
HETATM   33  C   UNL     1      42.400 -16.297   2.512  1.00  0.00     0.032 A 
BRANCH  31  34
HETATM   34  O   UNL     1      44.381 -18.965   4.158  1.00  0.00    -0.352 OA
BRANCH  34  35
HETATM   35  C   UNL     1      44.074 -19.696   5.346  1.00  0.00     0.171 C 
HETATM   36  C   UNL     1      43.919 -21.159   4.976  1.00  0.00     0.034 C 
ENDBRANCH  34  35
ENDBRANCH  31  34
ENDBRANCH  25  28
ENDBRANCH  23  24
ENDBRANCH   1  23
BRANCH   5  37
HETATM   37  C   UNL     1      40.586  -9.931  -0.878  1.00  0.00     0.045 A 
HETATM   38  C   UNL     1      41.644  -9.055  -1.182  1.00  0.00     0.032 A 
HETATM   39  C   UNL     1      41.760  -8.459  -2.446  1.00  0.00     0.026 A 
HETATM   40  C   UNL     1      40.816  -8.726  -3.429  1.00  0.00     0.034 A 
HETATM   41 CL   UNL     1      40.951  -7.993  -4.976  1.00  0.00    -0.084 Cl
HETATM   42  C   UNL     1      39.753  -9.578  -3.154  1.00  0.00     0.026 A 
HETATM   43  C   UNL     1      39.638 -10.165  -1.887  1.00  0.00     0.032 A 
ENDBRANCH   5  37
TORSDOF 11
ENDMDL
MODEL 6
REMARK VINA RESULT:      -8.8      3.089      5.550
REMARK  11 active torsions:
REMARK  status: ('A' for Active; 'I' for Inactive)
REMARK    1  A    between atoms: C_2  and  O_3 
REMARK    2  A    between atoms: O_3  and  C_4 
REMARK    3  A    between atoms: C_7  and  N_8 
REMARK       I    between atoms: N_8  and  C_9 
REMARK    4  A    between atoms: C_9  and  C_10 
REMARK    5  A    between atoms: C_10  and  C_11 
REMARK    6  A    between atoms: N_12  and  C_13 
REMARK    7  A    between atoms: C_13  and  C_14 
REMARK    8  A    between atoms: C_14  and  C_15 
REMARK    9  A    between atoms: C_15  and  N_16 
REMARK   10  A    between atoms: C_20  and  C_21 
REMARK       I    between atoms: C_21  and  N_22 
REMARK   11  A    between atoms: N_28  and  C_29 
ROOT
HETATM    1  C   UNL     1      40.855 -12.668   6.041  1.00  0.00     0.188 C 
HETATM    2  N   UNL     1      42.014 -12.116   5.350  1.00  0.00    -0.344 N 
HETATM    3  C   UNL     1      42.507 -13.028   4.395  1.00  0.00     0.184 C 
HETATM    4  S   UNL     1      43.495 -12.572   3.122  1.00  0.00    -0.040 SA
HETATM    5  N   UNL     1      41.957 -14.275   4.679  1.00  0.00    -0.257 N 
HETATM    6  C   UNL     1      40.968 -14.131   5.634  1.00  0.00     0.254 C 
HETATM    7  O   UNL     1      40.201 -14.977   6.083  1.00  0.00    -0.270 OA
ENDROOT
BRANCH   2   8
HETATM    8  C   UNL     1      42.377 -10.703   5.522  1.00  0.00     0.128 C 
BRANCH   8   9
HETATM    9  C   UNL     1      43.006 -10.413   6.896  1.00  0.00     0.048 C 
BRANCH   9  10
HETATM   10  C   UNL     1      42.684  -9.008   7.417  1.00  0.00     0.236 C 
BRANCH  10  11
HETATM   11  N   UNL     1      43.372  -8.732   8.747  1.00  0.00    -0.071 N 
HETATM   12  H   UNL     1      44.042  -7.964   8.615  1.00  0.00     0.279 HD
HETATM   13  C   UNL     1      42.372  -8.323   9.811  1.00  0.00     0.235 C 
HETATM   14  C   UNL     1      43.104  -7.996  11.108  1.00  0.00     0.042 C 
HETATM   15  C   UNL     1      43.925  -9.186  11.607  1.00  0.00     0.081 C 
HETATM   16  C   UNL     1      44.871  -9.679  10.508  1.00  0.00     0.042 C 
HETATM   17  C   UNL     1      44.175  -9.948   9.177  1.00  0.00     0.235 C 
BRANCH  15  18
HETATM   18  C   UNL     1      42.997 -10.294  12.081  1.00  0.00     0.219 C 
HETATM   19  N   UNL     1      43.558 -11.527  12.186  1.00  0.00    -0.370 N 
HETATM   20  H   UNL     1      44.390 -11.791  11.672  1.00  0.00     0.159 HD
HETATM   21  H   UNL     1      42.936 -12.289  12.440  1.00  0.00     0.159 HD
HETATM   22  O   UNL     1      41.849 -10.086  12.452  1.00  0.00    -0.273 OA
ENDBRANCH  15  18
ENDBRANCH  10  11
ENDBRANCH   9  10
ENDBRANCH   8   9
ENDBRANCH   2   8
BRANCH   1  23
HETATM   23  C   UNL     1      39.539 -12.117   5.507  1.00  0.00     0.138 C 
BRANCH  23  24
HETATM   24  C   UNL     1      38.965 -11.040   6.408  1.00  0.00     0.224 C 
HETATM   25  N   UNL     1      38.994  -9.782   5.847  1.00  0.00    -0.327 N 
HETATM   26  H   UNL     1      39.115  -9.714   4.837  1.00  0.00     0.169 HD
HETATM   27  O   UNL     1      38.548 -11.341   7.523  1.00  0.00    -0.273 OA
BRANCH  25  28
HETATM   28  C   UNL     1      38.823  -8.545   6.498  1.00  0.00     0.034 A 
HETATM   29  C   UNL     1      39.301  -8.260   7.775  1.00  0.00     0.032 A 
HETATM   30  C   UNL     1      39.163  -6.970   8.304  1.00  0.00     0.039 A 
HETATM   31  C   UNL     1      38.548  -5.954   7.570  1.00  0.00     0.068 A 
HETATM   32  C   UNL     1      38.046  -6.244   6.304  1.00  0.00     0.039 A 
HETATM   33  C   UNL     1      38.187  -7.530   5.771  1.00  0.00     0.032 A 
BRANCH  31  34
HETATM   34  O   UNL     1      38.504  -4.737   8.190  1.00  0.00    -0.352 OA
BRANCH  34  35
HETATM   35  C   UNL     1      37.993  -3.641   7.430  1.00  0.00     0.171 C 
HETATM   36  C   UNL     1      36.721  -3.153   8.097  1.00  0.00     0.034 C 
ENDBRANCH  34  35
ENDBRANCH  31  34
ENDBRANCH  25  28
ENDBRANCH  23  24
ENDBRANCH   1  23
BRANCH   5  37
HETATM   37  C   UNL     1      42.328 -15.545   4.133  1.00  0.00     0.045 A 
HETATM   38  C   UNL     1      43.371 -16.303   4.693  1.00  0.00     0.032 A 
HETATM   39  C   UNL     1      43.767 -17.528   4.137  1.00  0.00     0.026 A 
HETATM   40  C   UNL     1      43.127 -18.015   3.006  1.00  0.00     0.034 A 
HETATM   41 CL   UNL     1      43.614 -19.512   2.317  1.00  0.00    -0.084 Cl
HETATM   42  C   UNL     1      42.100 -17.284   2.422  1.00  0.00     0.026 A 
HETATM   43  C   UNL     1      41.713 -16.057   2.978  1.00  0.00     0.032 A 
ENDBRANCH   5  37
TORSDOF 11
ENDMDL
MODEL 7
REMARK VINA RESULT:      -8.8      2.481      9.304
REMARK  11 active torsions:
REMARK  status: ('A' for Active; 'I' for Inactive)
REMARK    1  A    between atoms: C_2  and  O_3 
REMARK    2  A    between atoms: O_3  and  C_4 
REMARK    3  A    between atoms: C_7  and  N_8 
REMARK       I    between atoms: N_8  and  C_9 
REMARK    4  A    between atoms: C_9  and  C_10 
REMARK    5  A    between atoms: C_10  and  C_11 
REMARK    6  A    between atoms: N_12  and  C_13 
REMARK    7  A    between atoms: C_13  and  C_14 
REMARK    8  A    between atoms: C_14  and  C_15 
REMARK    9  A    between atoms: C_15  and  N_16 
REMARK   10  A    between atoms: C_20  and  C_21 
REMARK       I    between atoms: C_21  and  N_22 
REMARK   11  A    between atoms: N_28  and  C_29 
ROOT
HETATM    1  C   UNL     1      42.492 -12.898   4.967  1.00  0.00     0.188 C 
HETATM    2  N   UNL     1      41.774 -13.386   3.795  1.00  0.00    -0.344 N 
HETATM    3  C   UNL     1      41.710 -14.793   3.798  1.00  0.00     0.184 C 
HETATM    4  S   UNL     1      40.592 -15.658   2.901  1.00  0.00    -0.040 SA
HETATM    5  N   UNL     1      42.653 -15.257   4.711  1.00  0.00    -0.257 N 
HETATM    6  C   UNL     1      43.145 -14.191   5.441  1.00  0.00     0.254 C 
HETATM    7  O   UNL     1      43.924 -14.199   6.389  1.00  0.00    -0.270 OA
ENDROOT
BRANCH   2   8
HETATM    8  C   UNL     1      41.041 -12.450   2.933  1.00  0.00     0.128 C 
BRANCH   8   9
HETATM    9  C   UNL     1      41.951 -11.747   1.909  1.00  0.00     0.048 C 
BRANCH   9  10
HETATM   10  C   UNL     1      41.195 -11.274   0.662  1.00  0.00     0.236 C 
BRANCH  10  11
HETATM   11  N   UNL     1      41.079 -12.383  -0.376  1.00  0.00    -0.071 N 
HETATM   12  H   UNL     1      41.919 -12.971  -0.319  1.00  0.00     0.279 HD
HETATM   13  C   UNL     1      39.863 -13.252  -0.121  1.00  0.00     0.235 C 
HETATM   14  C   UNL     1      39.816 -14.384  -1.140  1.00  0.00     0.042 C 
HETATM   15  C   UNL     1      39.774 -13.852  -2.574  1.00  0.00     0.081 C 
HETATM   16  C   UNL     1      40.941 -12.890  -2.818  1.00  0.00     0.042 C 
HETATM   17  C   UNL     1      41.053 -11.785  -1.772  1.00  0.00     0.235 C 
BRANCH  15  18
HETATM   18  C   UNL     1      38.435 -13.181  -2.838  1.00  0.00     0.219 C 
HETATM   19  N   UNL     1      37.337 -13.951  -2.618  1.00  0.00    -0.370 N 
HETATM   20  H   UNL     1      37.372 -14.963  -2.630  1.00  0.00     0.159 HD
HETATM   21  H   UNL     1      36.439 -13.538  -2.850  1.00  0.00     0.159 HD
HETATM   22  O   UNL     1      38.331 -11.995  -3.124  1.00  0.00    -0.273 OA
ENDBRANCH  15  18
ENDBRANCH  10  11
ENDBRANCH   9  10
ENDBRANCH   8   9
ENDBRANCH   2   8
BRANCH   1  23
HETATM   23  C   UNL     1      41.557 -12.398   6.061  1.00  0.00     0.138 C 
BRANCH  23  24
HETATM   24  C   UNL     1      41.744 -10.919   6.337  1.00  0.00     0.224 C 
HETATM   25  N   UNL     1      42.422 -10.660   7.508  1.00  0.00    -0.327 N 
HETATM   26  H   UNL     1      42.964 -11.419   7.921  1.00  0.00     0.169 HD
HETATM   27  O   UNL     1      41.292 -10.093   5.548  1.00  0.00    -0.273 OA
BRANCH  25  28
HETATM   28  C   UNL     1      42.507  -9.437   8.202  1.00  0.00     0.034 A 
HETATM   29  C   UNL     1      41.461  -8.877   8.932  1.00  0.00     0.032 A 
HETATM   30  C   UNL     1      41.668  -7.701   9.664  1.00  0.00     0.039 A 
HETATM   31  C   UNL     1      42.915  -7.072   9.677  1.00  0.00     0.068 A 
HETATM   32  C   UNL     1      43.954  -7.617   8.927  1.00  0.00     0.039 A 
HETATM   33  C   UNL     1      43.751  -8.793   8.198  1.00  0.00     0.032 A 
BRANCH  31  34
HETATM   34  O   UNL     1      42.989  -5.951  10.455  1.00  0.00    -0.352 OA
BRANCH  34  35
HETATM   35  C   UNL     1      41.754  -5.347  10.840  1.00  0.00     0.171 C 
HETATM   36  C   UNL     1      42.064  -4.060  11.581  1.00  0.00     0.034 C 
ENDBRANCH  34  35
ENDBRANCH  31  34
ENDBRANCH  25  28
ENDBRANCH  23  24
ENDBRANCH   1  23
BRANCH   5  37
HETATM   37  C   UNL     1      43.112 -16.600   4.898  1.00  0.00     0.045 A 
HETATM   38  C   UNL     1      43.741 -17.307   3.858  1.00  0.00     0.032 A 
HETATM   39  C   UNL     1      44.153 -18.637   4.021  1.00  0.00     0.026 A 
HETATM   40  C   UNL     1      43.940 -19.286   5.230  1.00  0.00     0.034 A 
HETATM   41 CL   UNL     1      44.437 -20.918   5.432  1.00  0.00    -0.084 Cl
HETATM   42  C   UNL     1      43.310 -18.618   6.273  1.00  0.00     0.026 A 
HETATM   43  C   UNL     1      42.894 -17.291   6.102  1.00  0.00     0.032 A 
ENDBRANCH   5  37
TORSDOF 11
ENDMDL
MODEL 8
REMARK VINA RESULT:      -8.7      4.349      9.424
REMARK  11 active torsions:
REMARK  status: ('A' for Active; 'I' for Inactive)
REMARK    1  A    between atoms: C_2  and  O_3 
REMARK    2  A    between atoms: O_3  and  C_4 
REMARK    3  A    between atoms: C_7  and  N_8 
REMARK       I    between atoms: N_8  and  C_9 
REMARK    4  A    between atoms: C_9  and  C_10 
REMARK    5  A    between atoms: C_10  and  C_11 
REMARK    6  A    between atoms: N_12  and  C_13 
REMARK    7  A    between atoms: C_13  and  C_14 
REMARK    8  A    between atoms: C_14  and  C_15 
REMARK    9  A    between atoms: C_15  and  N_16 
REMARK   10  A    between atoms: C_20  and  C_21 
REMARK       I    between atoms: C_21  and  N_22 
REMARK   11  A    between atoms: N_28  and  C_29 
ROOT
HETATM    1  C   UNL     1      43.089 -10.508   9.163  1.00  0.00     0.188 C 
HETATM    2  N   UNL     1      42.258  -9.365   8.800  1.00  0.00    -0.344 N 
HETATM    3  C   UNL     1      42.196  -8.436   9.858  1.00  0.00     0.184 C 
HETATM    4  S   UNL     1      41.749  -6.837   9.643  1.00  0.00    -0.040 SA
HETATM    5  N   UNL     1      42.643  -9.078  11.010  1.00  0.00    -0.257 N 
HETATM    6  C   UNL     1      43.191 -10.300  10.669  1.00  0.00     0.254 C 
HETATM    7  O   UNL     1      43.761 -11.117  11.386  1.00  0.00    -0.270 OA
ENDROOT
BRANCH   2   8
HETATM    8  C   UNL     1      41.807  -9.188   7.414  1.00  0.00     0.128 C 
BRANCH   8   9
HETATM    9  C   UNL     1      40.402  -9.767   7.166  1.00  0.00     0.048 C 
BRANCH   9  10
HETATM   10  C   UNL     1      40.370 -10.792   6.027  1.00  0.00     0.236 C 
BRANCH  10  11
HETATM   11  N   UNL     1      40.087 -10.130   4.685  1.00  0.00    -0.071 N 
HETATM   12  H   UNL     1      40.434  -9.163   4.720  1.00  0.00     0.279 HD
HETATM   13  C   UNL     1      40.788 -10.854   3.553  1.00  0.00     0.235 C 
HETATM   14  C   UNL     1      40.532 -10.127   2.238  1.00  0.00     0.042 C 
HETATM   15  C   UNL     1      39.037 -10.023   1.933  1.00  0.00     0.081 C 
HETATM   16  C   UNL     1      38.296  -9.385   3.111  1.00  0.00     0.042 C 
HETATM   17  C   UNL     1      38.587 -10.052   4.452  1.00  0.00     0.235 C 
BRANCH  15  18
HETATM   18  C   UNL     1      38.479 -11.400   1.604  1.00  0.00     0.219 C 
HETATM   19  N   UNL     1      37.125 -11.480   1.515  1.00  0.00    -0.370 N 
HETATM   20  H   UNL     1      36.510 -10.813   1.965  1.00  0.00     0.159 HD
HETATM   21  H   UNL     1      36.735 -12.405   1.358  1.00  0.00     0.159 HD
HETATM   22  O   UNL     1      39.191 -12.357   1.328  1.00  0.00    -0.273 OA
ENDBRANCH  15  18
ENDBRANCH  10  11
ENDBRANCH   9  10
ENDBRANCH   8   9
ENDBRANCH   2   8
BRANCH   1  23
HETATM   23  C   UNL     1      44.488 -10.426   8.566  1.00  0.00     0.138 C 
BRANCH  23  24
HETATM   24  C   UNL     1      44.688 -11.427   7.444  1.00  0.00     0.224 C 
HETATM   25  N   UNL     1      43.581 -12.210   7.203  1.00  0.00    -0.327 N 
HETATM   26  H   UNL     1      42.683 -11.889   7.565  1.00  0.00     0.169 HD
HETATM   27  O   UNL     1      45.770 -11.479   6.865  1.00  0.00    -0.273 OA
BRANCH  25  28
HETATM   28  C   UNL     1      43.516 -13.404   6.459  1.00  0.00     0.034 A 
HETATM   29  C   UNL     1      43.847 -14.660   6.963  1.00  0.00     0.032 A 
HETATM   30  C   UNL     1      43.664 -15.803   6.174  1.00  0.00     0.039 A 
HETATM   31  C   UNL     1      43.152 -15.708   4.879  1.00  0.00     0.068 A 
HETATM   32  C   UNL     1      42.845 -14.451   4.364  1.00  0.00     0.039 A 
HETATM   33  C   UNL     1      43.023 -13.308   5.151  1.00  0.00     0.032 A 
BRANCH  31  34
HETATM   34  O   UNL     1      42.995 -16.901   4.230  1.00  0.00    -0.352 OA
BRANCH  34  35
HETATM   35  C   UNL     1      43.304 -16.924   2.836  1.00  0.00     0.171 C 
HETATM   36  C   UNL     1      43.046 -18.326   2.316  1.00  0.00     0.034 C 
ENDBRANCH  34  35
ENDBRANCH  31  34
ENDBRANCH  25  28
ENDBRANCH  23  24
ENDBRANCH   1  23
BRANCH   5  37
HETATM   37  C   UNL     1      42.553  -8.621  12.363  1.00  0.00     0.045 A 
HETATM   38  C   UNL     1      41.541  -9.083  13.223  1.00  0.00     0.032 A 
HETATM   39  C   UNL     1      41.421  -8.606  14.536  1.00  0.00     0.026 A 
HETATM   40  C   UNL     1      42.312  -7.653  15.012  1.00  0.00     0.034 A 
HETATM   41 CL   UNL     1      42.165  -7.061  16.618  1.00  0.00    -0.084 Cl
HETATM   42  C   UNL     1      43.315  -7.168  14.183  1.00  0.00     0.026 A 
HETATM   43  C   UNL     1      43.426  -7.643  12.869  1.00  0.00     0.032 A 
ENDBRANCH   5  37
TORSDOF 11
ENDMDL
MODEL 9
REMARK VINA RESULT:      -8.5      3.815      9.028
REMARK  11 active torsions:
REMARK  status: ('A' for Active; 'I' for Inactive)
REMARK    1  A    between atoms: C_2  and  O_3 
REMARK    2  A    between atoms: O_3  and  C_4 
REMARK    3  A    between atoms: C_7  and  N_8 
REMARK       I    between atoms: N_8  and  C_9 
REMARK    4  A    between atoms: C_9  and  C_10 
REMARK    5  A    between atoms: C_10  and  C_11 
REMARK    6  A    between atoms: N_12  and  C_13 
REMARK    7  A    between atoms: C_13  and  C_14 
REMARK    8  A    between atoms: C_14  and  C_15 
REMARK    9  A    between atoms: C_15  and  N_16 
REMARK   10  A    between atoms: C_20  and  C_21 
REMARK       I    between atoms: C_21  and  N_22 
REMARK   11  A    between atoms: N_28  and  C_29 
ROOT
HETATM    1  C   UNL     1      40.281 -10.609   6.104  1.00  0.00     0.188 C 
HETATM    2  N   UNL     1      41.736 -10.506   6.065  1.00  0.00    -0.344 N 
HETATM    3  C   UNL     1      42.233  -9.988   7.277  1.00  0.00     0.184 C 
HETATM    4  S   UNL     1      43.825 -10.171   7.764  1.00  0.00    -0.040 SA
HETATM    5  N   UNL     1      41.164  -9.415   7.961  1.00  0.00    -0.257 N 
HETATM    6  C   UNL     1      39.982  -9.753   7.328  1.00  0.00     0.254 C 
HETATM    7  O   UNL     1      38.829  -9.511   7.669  1.00  0.00    -0.270 OA
ENDROOT
BRANCH   2   8
HETATM    8  C   UNL     1      42.492 -11.120   4.967  1.00  0.00     0.128 C 
BRANCH   8   9
HETATM    9  C   UNL     1      42.115 -10.546   3.589  1.00  0.00     0.048 C 
BRANCH   9  10
HETATM   10  C   UNL     1      42.446 -11.496   2.433  1.00  0.00     0.236 C 
BRANCH  10  11
HETATM   11  N   UNL     1      41.189 -12.127   1.849  1.00  0.00    -0.071 N 
HETATM   12  H   UNL     1      40.577 -12.410   2.624  1.00  0.00     0.279 HD
HETATM   13  C   UNL     1      40.435 -11.146   0.973  1.00  0.00     0.235 C 
HETATM   14  C   UNL     1      39.155 -11.792   0.458  1.00  0.00     0.042 C 
HETATM   15  C   UNL     1      39.445 -13.068  -0.333  1.00  0.00     0.081 C 
HETATM   16  C   UNL     1      40.294 -14.031   0.503  1.00  0.00     0.042 C 
HETATM   17  C   UNL     1      41.549 -13.391   1.087  1.00  0.00     0.235 C 
BRANCH  15  18
HETATM   18  C   UNL     1      40.129 -12.719  -1.646  1.00  0.00     0.219 C 
HETATM   19  N   UNL     1      40.747 -13.750  -2.280  1.00  0.00    -0.370 N 
HETATM   20  H   UNL     1      41.052 -14.583  -1.792  1.00  0.00     0.159 HD
HETATM   21  H   UNL     1      41.261 -13.520  -3.126  1.00  0.00     0.159 HD
HETATM   22  O   UNL     1      40.044 -11.613  -2.166  1.00  0.00    -0.273 OA
ENDBRANCH  15  18
ENDBRANCH  10  11
ENDBRANCH   9  10
ENDBRANCH   8   9
ENDBRANCH   2   8
BRANCH   1  23
HETATM   23  C   UNL     1      39.803 -12.029   6.378  1.00  0.00     0.138 C 
BRANCH  23  24
HETATM   24  C   UNL     1      39.996 -12.936   5.178  1.00  0.00     0.224 C 
HETATM   25  N   UNL     1      40.836 -14.001   5.424  1.00  0.00    -0.327 N 
HETATM   26  H   UNL     1      41.017 -14.248   6.397  1.00  0.00     0.169 HD
HETATM   27  O   UNL     1      39.433 -12.670   4.120  1.00  0.00    -0.273 OA
BRANCH  25  28
HETATM   28  C   UNL     1      41.453 -14.845   4.482  1.00  0.00     0.034 A 
HETATM   29  C   UNL     1      42.816 -14.831   4.192  1.00  0.00     0.032 A 
HETATM   30  C   UNL     1      43.354 -15.772   3.305  1.00  0.00     0.039 A 
HETATM   31  C   UNL     1      42.544 -16.734   2.698  1.00  0.00     0.068 A 
HETATM   32  C   UNL     1      41.177 -16.734   2.967  1.00  0.00     0.039 A 
HETATM   33  C   UNL     1      40.638 -15.798   3.856  1.00  0.00     0.032 A 
BRANCH  31  34
HETATM   34  O   UNL     1      43.200 -17.610   1.879  1.00  0.00    -0.352 OA
BRANCH  34  35
HETATM   35  C   UNL     1      43.107 -18.996   2.208  1.00  0.00     0.171 C 
HETATM   36  C   UNL     1      43.968 -19.252   3.432  1.00  0.00     0.034 C 
ENDBRANCH  34  35
ENDBRANCH  31  34
ENDBRANCH  25  28
ENDBRANCH  23  24
ENDBRANCH   1  23
BRANCH   5  37
HETATM   37  C   UNL     1      41.209  -8.576   9.120  1.00  0.00     0.045 A 
HETATM   38  C   UNL     1      41.449  -7.195   9.011  1.00  0.00     0.032 A 
HETATM   39  C   UNL     1      41.538  -6.375  10.145  1.00  0.00     0.026 A 
HETATM   40  C   UNL     1      41.390  -6.924  11.412  1.00  0.00     0.034 A 
HETATM   41 CL   UNL     1      41.505  -5.925  12.804  1.00  0.00    -0.084 Cl
HETATM   42  C   UNL     1      41.163  -8.288  11.552  1.00  0.00     0.026 A 
HETATM   43  C   UNL     1      41.083  -9.103  10.416  1.00  0.00     0.032 A 
ENDBRANCH   5  37
TORSDOF 11
ENDMDL
MODEL 10
REMARK VINA RESULT:      -8.5      4.053      6.784
REMARK  11 active torsions:
REMARK  status: ('A' for Active; 'I' for Inactive)
REMARK    1  A    between atoms: C_2  and  O_3 
REMARK    2  A    between atoms: O_3  and  C_4 
REMARK    3  A    between atoms: C_7  and  N_8 
REMARK       I    between atoms: N_8  and  C_9 
REMARK    4  A    between atoms: C_9  and  C_10 
REMARK    5  A    between atoms: C_10  and  C_11 
REMARK    6  A    between atoms: N_12  and  C_13 
REMARK    7  A    between atoms: C_13  and  C_14 
REMARK    8  A    between atoms: C_14  and  C_15 
REMARK    9  A    between atoms: C_15  and  N_16 
REMARK   10  A    between atoms: C_20  and  C_21 
REMARK       I    between atoms: C_21  and  N_22 
REMARK   11  A    between atoms: N_28  and  C_29 
ROOT
HETATM    1  C   UNL     1      41.377 -10.351   3.262  1.00  0.00     0.188 C 
HETATM    2  N   UNL     1      40.822  -9.022   3.497  1.00  0.00    -0.344 N 
HETATM    3  C   UNL     1      40.423  -8.426   2.284  1.00  0.00     0.184 C 
HETATM    4  S   UNL     1      39.342  -7.150   2.207  1.00  0.00    -0.040 SA
HETATM    5  N   UNL     1      41.016  -9.141   1.247  1.00  0.00    -0.257 N 
HETATM    6  C   UNL     1      41.586 -10.294   1.754  1.00  0.00     0.254 C 
HETATM    7  O   UNL     1      42.126 -11.217   1.151  1.00  0.00    -0.270 OA
ENDROOT
BRANCH   2   8
HETATM    8  C   UNL     1      40.533  -8.571   4.864  1.00  0.00     0.128 C 
BRANCH   8   9
HETATM    9  C   UNL     1      41.667  -8.899   5.852  1.00  0.00     0.048 C 
BRANCH   9  10
HETATM   10  C   UNL     1      41.190  -9.707   7.064  1.00  0.00     0.236 C 
BRANCH  10  11
HETATM   11  N   UNL     1      42.361 -10.281   7.850  1.00  0.00    -0.071 N 
HETATM   12  H   UNL     1      42.054 -11.151   8.303  1.00  0.00     0.279 HD
HETATM   13  C   UNL     1      43.534 -10.598   6.942  1.00  0.00     0.235 C 
HETATM   14  C   UNL     1      44.660 -11.227   7.754  1.00  0.00     0.042 C 
HETATM   15  C   UNL     1      45.122 -10.307   8.885  1.00  0.00     0.081 C 
HETATM   16  C   UNL     1      43.930  -9.893   9.755  1.00  0.00     0.042 C 
HETATM   17  C   UNL     1      42.760  -9.323   8.960  1.00  0.00     0.235 C 
BRANCH  15  18
HETATM   18  C   UNL     1      45.836  -9.095   8.307  1.00  0.00     0.219 C 
HETATM   19  N   UNL     1      46.907  -9.365   7.515  1.00  0.00    -0.370 N 
HETATM   20  H   UNL     1      47.420 -10.236   7.573  1.00  0.00     0.159 HD
HETATM   21  H   UNL     1      47.431  -8.565   7.173  1.00  0.00     0.159 HD
HETATM   22  O   UNL     1      45.423  -7.950   8.447  1.00  0.00    -0.273 OA
ENDBRANCH  15  18
ENDBRANCH  10  11
ENDBRANCH   9  10
ENDBRANCH   8   9
ENDBRANCH   2   8
BRANCH   1  23
HETATM   23  C   UNL     1      40.383 -11.463   3.572  1.00  0.00     0.138 C 
BRANCH  23  24
HETATM   24  C   UNL     1      41.067 -12.706   4.107  1.00  0.00     0.224 C 
HETATM   25  N   UNL     1      41.670 -13.465   3.128  1.00  0.00    -0.327 N 
HETATM   26  H   UNL     1      41.852 -13.023   2.228  1.00  0.00     0.169 HD
HETATM   27  O   UNL     1      41.030 -12.947   5.310  1.00  0.00    -0.273 OA
BRANCH  25  28
HETATM   28  C   UNL     1      42.124 -14.795   3.228  1.00  0.00     0.034 A 
HETATM   29  C   UNL     1      42.864 -15.445   2.243  1.00  0.00     0.032 A 
HETATM   30  C   UNL     1      43.350 -16.739   2.471  1.00  0.00     0.039 A 
HETATM   31  C   UNL     1      43.105 -17.397   3.678  1.00  0.00     0.068 A 
HETATM   32  C   UNL     1      42.343 -16.758   4.653  1.00  0.00     0.039 A 
HETATM   33  C   UNL     1      41.861 -15.465   4.430  1.00  0.00     0.032 A 
BRANCH  31  34
HETATM   34  O   UNL     1      43.661 -18.641   3.782  1.00  0.00    -0.352 OA
BRANCH  34  35
HETATM   35  C   UNL     1      44.181 -19.219   2.584  1.00  0.00     0.171 C 
HETATM   36  C   UNL     1      43.268 -20.360   2.172  1.00  0.00     0.034 C 
ENDBRANCH  34  35
ENDBRANCH  31  34
ENDBRANCH  25  28
ENDBRANCH  23  24
ENDBRANCH   1  23
BRANCH   5  37
HETATM   37  C   UNL     1      41.088  -8.786  -0.138  1.00  0.00     0.045 A 
HETATM   38  C   UNL     1      40.063  -9.135  -1.035  1.00  0.00     0.032 A 
HETATM   39  C   UNL     1      40.149  -8.829  -2.400  1.00  0.00     0.026 A 
HETATM   40  C   UNL     1      41.265  -8.168  -2.895  1.00  0.00     0.034 A 
HETATM   41 CL   UNL     1      41.378  -7.797  -4.568  1.00  0.00    -0.084 Cl
HETATM   42  C   UNL     1      42.300  -7.821  -2.035  1.00  0.00     0.026 A 
HETATM   43  C   UNL     1      42.213  -8.136  -0.673  1.00  0.00     0.032 A 
ENDBRANCH   5  37
TORSDOF 11
ENDMDL
