MODEL 1
REMARK VINA RESULT:      -8.4      0.000      0.000
REMARK  5 active torsions:
REMARK  status: ('A' for Active; 'I' for Inactive)
REMARK    1  A    between atoms: C_2  and  C_3 
REMARK    2  A    between atoms: C_3  and  C_4 
REMARK    3  A    between atoms: C_7  and  N_8 
REMARK       I    between atoms: N_8  and  C_9 
REMARK       I    between atoms: C_9  and  N_10 
REMARK    4  A    between atoms: N_10  and  N_11 
REMARK       I    between atoms: N_11  and  C_12 
REMARK    5  A    between atoms: C_12  and  C_13 
ROOT
HETATM    1  N   UNL     1      41.887 -14.761   4.617  1.00  0.00    -0.337 N 
HETATM    2  C   UNL     1      42.194 -14.276   5.866  1.00  0.00     0.335 C 
HETATM    3  N   UNL     1      42.271 -15.231   6.842  1.00  0.00    -0.249 N 
HETATM    4  O   UNL     1      42.396 -13.092   6.116  1.00  0.00    -0.246 OA
HETATM    5  H   UNL     1      41.318 -15.595   4.655  1.00  0.00     0.164 HD
HETATM    6  H   UNL     1      42.502 -14.933   7.789  1.00  0.00     0.192 HD
ENDROOT
BRANCH   3   7
HETATM    7  N   UNL     1      42.335 -16.609   6.573  1.00  0.00    -0.262 N 
HETATM    8  C   UNL     1      43.611 -17.141   6.424  1.00  0.00     0.272 C 
HETATM    9  O   UNL     1      44.618 -16.495   6.709  1.00  0.00    -0.266 OA
HETATM   10  H   UNL     1      41.589 -16.985   5.996  1.00  0.00     0.190 HD
BRANCH   8  11
HETATM   11  C   UNL     1      43.666 -18.489   5.862  1.00  0.00     0.061 A 
HETATM   12  C   UNL     1      43.676 -18.830   4.465  1.00  0.00     0.008 A 
HETATM   13  C   UNL     1      43.746 -20.220   4.367  1.00  0.00     0.043 A 
HETATM   14  C   UNL     1      43.626 -18.080   3.269  1.00  0.00     0.015 A 
HETATM   15  C   UNL     1      43.771 -20.896   3.140  1.00  0.00     0.030 A 
HETATM   16  N   UNL     1      43.785 -20.714   5.648  1.00  0.00    -0.364 N 
HETATM   17  C   UNL     1      43.718 -20.126   1.974  1.00  0.00     0.002 A 
HETATM   18  C   UNL     1      43.646 -18.738   2.034  1.00  0.00     0.001 A 
HETATM   19  H   UNL     1      43.851 -21.697   5.877  1.00  0.00     0.165 HD
HETATM   20  C   UNL     1      43.736 -19.687   6.556  1.00  0.00     0.106 A 
ENDBRANCH   8  11
ENDBRANCH   3   7
BRANCH   1  21
HETATM   21  C   UNL     1      41.650 -13.832   3.515  1.00  0.00     0.086 C 
HETATM   22  C   UNL     1      42.593 -14.119   2.341  1.00  0.00     0.026 C 
HETATM   23  C   UNL     1      42.177 -15.335   1.514  1.00  0.00     0.006 C 
HETATM   24  C   UNL     1      40.718 -15.265   1.039  1.00  0.00    -0.014 C 
HETATM   25  C   UNL     1      39.800 -15.070   2.259  1.00  0.00     0.006 C 
HETATM   26  C   UNL     1      40.173 -13.840   3.091  1.00  0.00     0.026 C 
BRANCH  24  27
HETATM   27  C   UNL     1      40.451 -14.173  -0.022  1.00  0.00     0.004 C 
BRANCH  27  28
HETATM   28  C   UNL     1      39.487 -14.605  -1.129  1.00  0.00    -0.004 C 
HETATM   29  C   UNL     1      39.919 -14.052  -2.480  1.00  0.00     0.005 C 
ENDBRANCH  27  28
ENDBRANCH  24  27
ENDBRANCH   1  21
TORSDOF 5
ENDMDL
MODEL 2
REMARK VINA RESULT:      -8.0      3.886      7.528
REMARK  5 active torsions:
REMARK  status: ('A' for Active; 'I' for Inactive)
REMARK    1  A    between atoms: C_2  and  C_3 
REMARK    2  A    between atoms: C_3  and  C_4 
REMARK    3  A    between atoms: C_7  and  N_8 
REMARK       I    between atoms: N_8  and  C_9 
REMARK       I    between atoms: C_9  and  N_10 
REMARK    4  A    between atoms: N_10  and  N_11 
REMARK       I    between atoms: N_11  and  C_12 
REMARK    5  A    between atoms: C_12  and  C_13 
ROOT
HETATM    1  N   UNL     1      40.842 -13.870   4.454  1.00  0.00    -0.337 N 
HETATM    2  C   UNL     1      39.953 -12.825   4.379  1.00  0.00     0.335 C 
HETATM    3  N   UNL     1      40.054 -11.921   5.399  1.00  0.00    -0.249 N 
HETATM    4  O   UNL     1      39.130 -12.682   3.480  1.00  0.00    -0.246 OA
HETATM    5  H   UNL     1      41.090 -14.100   5.406  1.00  0.00     0.164 HD
HETATM    6  H   UNL     1      39.425 -11.119   5.395  1.00  0.00     0.192 HD
ENDROOT
BRANCH   3   7
HETATM    7  N   UNL     1      41.145 -11.871   6.285  1.00  0.00    -0.262 N 
HETATM    8  C   UNL     1      41.895 -10.701   6.261  1.00  0.00     0.272 C 
HETATM    9  O   UNL     1      41.513  -9.701   5.657  1.00  0.00    -0.266 OA
HETATM   10  H   UNL     1      41.631 -12.749   6.441  1.00  0.00     0.190 HD
BRANCH   8  11
HETATM   11  C   UNL     1      43.180 -10.767   6.956  1.00  0.00     0.061 A 
HETATM   12  C   UNL     1      43.480 -10.206   8.246  1.00  0.00     0.008 A 
HETATM   13  C   UNL     1      44.811 -10.506   8.541  1.00  0.00     0.043 A 
HETATM   14  C   UNL     1      42.741  -9.463   9.192  1.00  0.00     0.015 A 
HETATM   15  C   UNL     1      45.436 -10.104   9.728  1.00  0.00     0.030 A 
HETATM   16  N   UNL     1      45.306 -11.227   7.481  1.00  0.00    -0.364 N 
HETATM   17  C   UNL     1      44.679  -9.368  10.644  1.00  0.00     0.002 A 
HETATM   18  C   UNL     1      43.350  -9.050  10.383  1.00  0.00     0.001 A 
HETATM   19  H   UNL     1      46.249 -11.589   7.431  1.00  0.00     0.165 HD
HETATM   20  C   UNL     1      44.340 -11.389   6.522  1.00  0.00     0.106 A 
ENDBRANCH   8  11
ENDBRANCH   3   7
BRANCH   1  21
HETATM   21  C   UNL     1      40.752 -14.970   3.496  1.00  0.00     0.086 C 
HETATM   22  C   UNL     1      41.772 -14.799   2.364  1.00  0.00     0.026 C 
HETATM   23  C   UNL     1      43.199 -15.163   2.775  1.00  0.00     0.006 C 
HETATM   24  C   UNL     1      43.303 -16.563   3.397  1.00  0.00    -0.014 C 
HETATM   25  C   UNL     1      42.331 -16.660   4.586  1.00  0.00     0.006 C 
HETATM   26  C   UNL     1      40.887 -16.331   4.199  1.00  0.00     0.026 C 
BRANCH  24  27
HETATM   27  C   UNL     1      43.057 -17.718   2.399  1.00  0.00     0.004 C 
BRANCH  27  28
HETATM   28  C   UNL     1      43.768 -19.021   2.770  1.00  0.00    -0.004 C 
HETATM   29  C   UNL     1      43.204 -20.196   1.982  1.00  0.00     0.005 C 
ENDBRANCH  27  28
ENDBRANCH  24  27
ENDBRANCH   1  21
TORSDOF 5
ENDMDL
MODEL 3
REMARK VINA RESULT:      -8.0      1.462      1.775
REMARK  5 active torsions:
REMARK  status: ('A' for Active; 'I' for Inactive)
REMARK    1  A    between atoms: C_2  and  C_3 
REMARK    2  A    between atoms: C_3  and  C_4 
REMARK    3  A    between atoms: C_7  and  N_8 
REMARK       I    between atoms: N_8  and  C_9 
REMARK       I    between atoms: C_9  and  N_10 
REMARK    4  A    between atoms: N_10  and  N_11 
REMARK       I    between atoms: N_11  and  C_12 
REMARK    5  A    between atoms: C_12  and  C_13 
ROOT
HETATM    1  N   UNL     1      40.299 -13.848   4.515  1.00  0.00    -0.337 N 
HETATM    2  C   UNL     1      40.222 -13.341   5.790  1.00  0.00     0.335 C 
HETATM    3  N   UNL     1      40.414 -14.266   6.779  1.00  0.00    -0.249 N 
HETATM    4  O   UNL     1      40.009 -12.162   6.052  1.00  0.00    -0.246 OA
HETATM    5  H   UNL     1      40.011 -14.816   4.464  1.00  0.00     0.164 HD
HETATM    6  H   UNL     1      40.375 -13.949   7.747  1.00  0.00     0.192 HD
ENDROOT
BRANCH   3   7
HETATM    7  N   UNL     1      40.938 -15.549   6.549  1.00  0.00    -0.262 N 
HETATM    8  C   UNL     1      42.318 -15.674   6.672  1.00  0.00     0.272 C 
HETATM    9  O   UNL     1      43.008 -14.774   7.148  1.00  0.00    -0.266 OA
HETATM   10  H   UNL     1      40.469 -16.100   5.837  1.00  0.00     0.190 HD
BRANCH   8  11
HETATM   11  C   UNL     1      42.883 -16.918   6.152  1.00  0.00     0.061 A 
HETATM   12  C   UNL     1      43.076 -17.252   4.767  1.00  0.00     0.008 A 
HETATM   13  C   UNL     1      43.651 -18.523   4.712  1.00  0.00     0.043 A 
HETATM   14  C   UNL     1      42.810 -16.589   3.549  1.00  0.00     0.015 A 
HETATM   15  C   UNL     1      43.973 -19.160   3.507  1.00  0.00     0.030 A 
HETATM   16  N   UNL     1      43.811 -18.949   6.008  1.00  0.00    -0.364 N 
HETATM   17  C   UNL     1      43.696 -18.480   2.318  1.00  0.00     0.002 A 
HETATM   18  C   UNL     1      43.122 -17.212   2.335  1.00  0.00     0.001 A 
HETATM   19  H   UNL     1      44.219 -19.837   6.268  1.00  0.00     0.165 HD
HETATM   20  C   UNL     1      43.352 -17.998   6.883  1.00  0.00     0.106 A 
ENDBRANCH   8  11
ENDBRANCH   3   7
BRANCH   1  21
HETATM   21  C   UNL     1      39.987 -12.992   3.373  1.00  0.00     0.086 C 
HETATM   22  C   UNL     1      41.260 -12.374   2.784  1.00  0.00     0.026 C 
HETATM   23  C   UNL     1      42.071 -13.353   1.935  1.00  0.00     0.006 C 
HETATM   24  C   UNL     1      41.233 -14.028   0.838  1.00  0.00    -0.014 C 
HETATM   25  C   UNL     1      40.016 -14.714   1.484  1.00  0.00     0.006 C 
HETATM   26  C   UNL     1      39.166 -13.751   2.318  1.00  0.00     0.026 C 
BRANCH  24  27
HETATM   27  C   UNL     1      40.783 -13.073  -0.291  1.00  0.00     0.004 C 
BRANCH  27  28
HETATM   28  C   UNL     1      39.879 -13.730  -1.337  1.00  0.00    -0.004 C 
HETATM   29  C   UNL     1      40.423 -13.517  -2.743  1.00  0.00     0.005 C 
ENDBRANCH  27  28
ENDBRANCH  24  27
ENDBRANCH   1  21
TORSDOF 5
ENDMDL
MODEL 4
REMARK VINA RESULT:      -7.9      3.505      7.906
REMARK  5 active torsions:
REMARK  status: ('A' for Active; 'I' for Inactive)
REMARK    1  A    between atoms: C_2  and  C_3 
REMARK    2  A    between atoms: C_3  and  C_4 
REMARK    3  A    between atoms: C_7  and  N_8 
REMARK       I    between atoms: N_8  and  C_9 
REMARK       I    between atoms: C_9  and  N_10 
REMARK    4  A    between atoms: N_10  and  N_11 
REMARK       I    between atoms: N_11  and  C_12 
REMARK    5  A    between atoms: C_12  and  C_13 
ROOT
HETATM    1  N   UNL     1      42.053 -12.384   1.972  1.00  0.00    -0.337 N 
HETATM    2  C   UNL     1      42.046 -11.063   2.352  1.00  0.00     0.335 C 
HETATM    3  N   UNL     1      41.801 -10.183   1.335  1.00  0.00    -0.249 N 
HETATM    4  O   UNL     1      42.234 -10.675   3.500  1.00  0.00    -0.246 OA
HETATM    5  H   UNL     1      42.350 -12.511   1.014  1.00  0.00     0.164 HD
HETATM    6  H   UNL     1      41.777  -9.188   1.556  1.00  0.00     0.192 HD
ENDROOT
BRANCH   3   7
HETATM    7  N   UNL     1      41.302 -10.569   0.079  1.00  0.00    -0.262 N 
HETATM    8  C   UNL     1      39.930 -10.426  -0.101  1.00  0.00     0.272 C 
HETATM    9  O   UNL     1      39.233  -9.815   0.707  1.00  0.00    -0.266 OA
HETATM   10  H   UNL     1      41.762 -11.362  -0.358  1.00  0.00     0.190 HD
BRANCH   8  11
HETATM   11  C   UNL     1      39.380 -11.093  -1.280  1.00  0.00     0.061 A 
HETATM   12  C   UNL     1      39.284 -12.513  -1.487  1.00  0.00     0.008 A 
HETATM   13  C   UNL     1      38.689 -12.721  -2.733  1.00  0.00     0.043 A 
HETATM   14  C   UNL     1      39.653 -13.646  -0.729  1.00  0.00     0.015 A 
HETATM   15  C   UNL     1      38.445 -13.998  -3.255  1.00  0.00     0.030 A 
HETATM   16  N   UNL     1      38.424 -11.482  -3.265  1.00  0.00    -0.364 N 
HETATM   17  C   UNL     1      38.823 -15.099  -2.482  1.00  0.00     0.002 A 
HETATM   18  C   UNL     1      39.420 -14.929  -1.237  1.00  0.00     0.001 A 
HETATM   19  H   UNL     1      37.981 -11.332  -4.162  1.00  0.00     0.165 HD
HETATM   20  C   UNL     1      38.836 -10.496  -2.406  1.00  0.00     0.106 A 
ENDBRANCH   8  11
ENDBRANCH   3   7
BRANCH   1  21
HETATM   21  C   UNL     1      42.428 -13.415   2.936  1.00  0.00     0.086 C 
HETATM   22  C   UNL     1      41.191 -14.154   3.462  1.00  0.00     0.026 C 
HETATM   23  C   UNL     1      40.626 -15.170   2.470  1.00  0.00     0.006 C 
HETATM   24  C   UNL     1      41.684 -16.164   1.965  1.00  0.00    -0.014 C 
HETATM   25  C   UNL     1      42.863 -15.382   1.362  1.00  0.00     0.006 C 
HETATM   26  C   UNL     1      43.471 -14.376   2.344  1.00  0.00     0.026 C 
BRANCH  24  27
HETATM   27  C   UNL     1      42.182 -17.157   3.040  1.00  0.00     0.004 C 
BRANCH  27  28
HETATM   28  C   UNL     1      43.463 -17.898   2.655  1.00  0.00    -0.004 C 
HETATM   29  C   UNL     1      43.156 -19.309   2.173  1.00  0.00     0.005 C 
ENDBRANCH  27  28
ENDBRANCH  24  27
ENDBRANCH   1  21
TORSDOF 5
ENDMDL
MODEL 5
REMARK VINA RESULT:      -7.8      5.162      8.349
REMARK  5 active torsions:
REMARK  status: ('A' for Active; 'I' for Inactive)
REMARK    1  A    between atoms: C_2  and  C_3 
REMARK    2  A    between atoms: C_3  and  C_4 
REMARK    3  A    between atoms: C_7  and  N_8 
REMARK       I    between atoms: N_8  and  C_9 
REMARK       I    between atoms: C_9  and  N_10 
REMARK    4  A    between atoms: N_10  and  N_11 
REMARK       I    between atoms: N_11  and  C_12 
REMARK    5  A    between atoms: C_12  and  C_13 
ROOT
HETATM    1  N   UNL     1      44.351 -10.452   8.126  1.00  0.00    -0.337 N 
HETATM    2  C   UNL     1      45.433 -11.018   7.494  1.00  0.00     0.335 C 
HETATM    3  N   UNL     1      45.126 -12.075   6.684  1.00  0.00    -0.249 N 
HETATM    4  O   UNL     1      46.588 -10.625   7.620  1.00  0.00    -0.246 OA
HETATM    5  H   UNL     1      43.612 -11.120   8.302  1.00  0.00     0.164 HD
HETATM    6  H   UNL     1      45.887 -12.533   6.182  1.00  0.00     0.192 HD
ENDROOT
BRANCH   3   7
HETATM    7  N   UNL     1      43.817 -12.386   6.278  1.00  0.00    -0.262 N 
HETATM    8  C   UNL     1      43.499 -13.739   6.235  1.00  0.00     0.272 C 
HETATM    9  O   UNL     1      44.242 -14.594   6.714  1.00  0.00    -0.266 OA
HETATM   10  H   UNL     1      43.414 -11.777   5.573  1.00  0.00     0.190 HD
BRANCH   8  11
HETATM   11  C   UNL     1      42.254 -14.068   5.541  1.00  0.00     0.061 A 
HETATM   12  C   UNL     1      42.125 -14.891   4.369  1.00  0.00     0.008 A 
HETATM   13  C   UNL     1      40.769 -14.956   4.043  1.00  0.00     0.043 A 
HETATM   14  C   UNL     1      43.041 -15.585   3.549  1.00  0.00     0.015 A 
HETATM   15  C   UNL     1      40.285 -15.678   2.945  1.00  0.00     0.030 A 
HETATM   16  N   UNL     1      40.093 -14.212   4.979  1.00  0.00    -0.364 N 
HETATM   17  C   UNL     1      41.216 -16.354   2.150  1.00  0.00     0.002 A 
HETATM   18  C   UNL     1      42.575 -16.309   2.444  1.00  0.00     0.001 A 
HETATM   19  H   UNL     1      39.089 -14.094   4.994  1.00  0.00     0.165 HD
HETATM   20  C   UNL     1      40.971 -13.671   5.883  1.00  0.00     0.106 A 
ENDBRANCH   8  11
ENDBRANCH   3   7
BRANCH   1  21
HETATM   21  C   UNL     1      44.557  -9.398   9.116  1.00  0.00     0.086 C 
HETATM   22  C   UNL     1      43.296  -8.543   9.281  1.00  0.00     0.026 C 
HETATM   23  C   UNL     1      42.207  -9.224  10.110  1.00  0.00     0.006 C 
HETATM   24  C   UNL     1      42.715  -9.718  11.474  1.00  0.00    -0.014 C 
HETATM   25  C   UNL     1      43.922 -10.646  11.255  1.00  0.00     0.006 C 
HETATM   26  C   UNL     1      45.044  -9.981  10.453  1.00  0.00     0.026 C 
BRANCH  24  27
HETATM   27  C   UNL     1      43.072  -8.585  12.463  1.00  0.00     0.004 C 
BRANCH  27  28
HETATM   28  C   UNL     1      42.420  -8.734  13.839  1.00  0.00    -0.004 C 
HETATM   29  C   UNL     1      41.005  -9.283  13.718  1.00  0.00     0.005 C 
ENDBRANCH  27  28
ENDBRANCH  24  27
ENDBRANCH   1  21
TORSDOF 5
ENDMDL
MODEL 6
REMARK VINA RESULT:      -7.8      3.098      5.817
REMARK  5 active torsions:
REMARK  status: ('A' for Active; 'I' for Inactive)
REMARK    1  A    between atoms: C_2  and  C_3 
REMARK    2  A    between atoms: C_3  and  C_4 
REMARK    3  A    between atoms: C_7  and  N_8 
REMARK       I    between atoms: N_8  and  C_9 
REMARK       I    between atoms: C_9  and  N_10 
REMARK    4  A    between atoms: N_10  and  N_11 
REMARK       I    between atoms: N_11  and  C_12 
REMARK    5  A    between atoms: C_12  and  C_13 
ROOT
HETATM    1  N   UNL     1      42.771 -13.231   3.665  1.00  0.00    -0.337 N 
HETATM    2  C   UNL     1      42.319 -12.977   2.392  1.00  0.00     0.335 C 
HETATM    3  N   UNL     1      42.727 -13.885   1.455  1.00  0.00    -0.249 N 
HETATM    4  O   UNL     1      41.602 -12.029   2.091  1.00  0.00    -0.246 OA
HETATM    5  H   UNL     1      43.663 -13.707   3.673  1.00  0.00     0.164 HD
HETATM    6  H   UNL     1      42.418 -13.755   0.493  1.00  0.00     0.192 HD
ENDROOT
BRANCH   3   7
HETATM    7  N   UNL     1      43.298 -15.129   1.778  1.00  0.00    -0.262 N 
HETATM    8  C   UNL     1      42.404 -16.173   1.985  1.00  0.00     0.272 C 
HETATM    9  O   UNL     1      41.212 -16.068   1.705  1.00  0.00    -0.266 OA
HETATM   10  H   UNL     1      44.139 -15.097   2.347  1.00  0.00     0.190 HD
BRANCH   8  11
HETATM   11  C   UNL     1      42.973 -17.372   2.600  1.00  0.00     0.061 A 
HETATM   12  C   UNL     1      43.097 -17.628   4.009  1.00  0.00     0.008 A 
HETATM   13  C   UNL     1      43.680 -18.887   4.163  1.00  0.00     0.043 A 
HETATM   14  C   UNL     1      42.770 -16.901   5.174  1.00  0.00     0.015 A 
HETATM   15  C   UNL     1      43.950 -19.453   5.415  1.00  0.00     0.030 A 
HETATM   16  N   UNL     1      43.898 -19.387   2.902  1.00  0.00    -0.364 N 
HETATM   17  C   UNL     1      43.617 -18.708   6.550  1.00  0.00     0.002 A 
HETATM   18  C   UNL     1      43.036 -17.449   6.435  1.00  0.00     0.001 A 
HETATM   19  H   UNL     1      44.302 -20.294   2.712  1.00  0.00     0.165 HD
HETATM   20  C   UNL     1      43.482 -18.488   1.954  1.00  0.00     0.106 A 
ENDBRANCH   8  11
ENDBRANCH   3   7
BRANCH   1  21
HETATM   21  C   UNL     1      42.512 -12.267   4.733  1.00  0.00     0.086 C 
HETATM   22  C   UNL     1      42.433 -12.964   6.096  1.00  0.00     0.026 C 
HETATM   23  C   UNL     1      43.800 -13.348   6.661  1.00  0.00     0.006 C 
HETATM   24  C   UNL     1      44.781 -12.166   6.707  1.00  0.00    -0.014 C 
HETATM   25  C   UNL     1      44.901 -11.556   5.300  1.00  0.00     0.006 C 
HETATM   26  C   UNL     1      43.550 -11.132   4.720  1.00  0.00     0.026 C 
BRANCH  24  27
HETATM   27  C   UNL     1      44.410 -11.079   7.742  1.00  0.00     0.004 C 
BRANCH  27  28
HETATM   28  C   UNL     1      45.619 -10.394   8.383  1.00  0.00    -0.004 C 
HETATM   29  C   UNL     1      45.410  -8.889   8.478  1.00  0.00     0.005 C 
ENDBRANCH  27  28
ENDBRANCH  24  27
ENDBRANCH   1  21
TORSDOF 5
ENDMDL
MODEL 7
REMARK VINA RESULT:      -7.5      3.601      7.086
REMARK  5 active torsions:
REMARK  status: ('A' for Active; 'I' for Inactive)
REMARK    1  A    between atoms: C_2  and  C_3 
REMARK    2  A    between atoms: C_3  and  C_4 
REMARK    3  A    between atoms: C_7  and  N_8 
REMARK       I    between atoms: N_8  and  C_9 
REMARK       I    between atoms: C_9  and  N_10 
REMARK    4  A    between atoms: N_10  and  N_11 
REMARK       I    between atoms: N_11  and  C_12 
REMARK    5  A    between atoms: C_12  and  C_13 
ROOT
HETATM    1  N   UNL     1      40.597 -13.369   2.899  1.00  0.00    -0.337 N 
HETATM    2  C   UNL     1      39.683 -12.431   2.482  1.00  0.00     0.335 C 
HETATM    3  N   UNL     1      39.246 -11.589   3.467  1.00  0.00    -0.249 N 
HETATM    4  O   UNL     1      39.280 -12.326   1.328  1.00  0.00    -0.246 OA
HETATM    5  H   UNL     1      40.471 -13.630   3.868  1.00  0.00     0.164 HD
HETATM    6  H   UNL     1      38.571 -10.867   3.217  1.00  0.00     0.192 HD
ENDROOT
BRANCH   3   7
HETATM    7  N   UNL     1      39.872 -11.471   4.720  1.00  0.00    -0.262 N 
HETATM    8  C   UNL     1      40.531 -10.270   4.960  1.00  0.00     0.272 C 
HETATM    9  O   UNL     1      40.403  -9.303   4.213  1.00  0.00    -0.266 OA
HETATM   10  H   UNL     1      40.276 -12.323   5.097  1.00  0.00     0.190 HD
BRANCH   8  11
HETATM   11  C   UNL     1      41.416 -10.264   6.124  1.00  0.00     0.061 A 
HETATM   12  C   UNL     1      42.786 -10.697   6.154  1.00  0.00     0.008 A 
HETATM   13  C   UNL     1      43.262 -10.512   7.453  1.00  0.00     0.043 A 
HETATM   14  C   UNL     1      43.669 -11.237   5.193  1.00  0.00     0.015 A 
HETATM   15  C   UNL     1      44.570 -10.836   7.837  1.00  0.00     0.030 A 
HETATM   16  N   UNL     1      42.231  -9.980   8.188  1.00  0.00    -0.364 N 
HETATM   17  C   UNL     1      45.419 -11.370   6.864  1.00  0.00     0.002 A 
HETATM   18  C   UNL     1      44.978 -11.570   5.559  1.00  0.00     0.001 A 
HETATM   19  H   UNL     1      42.299  -9.732   9.166  1.00  0.00     0.165 HD
HETATM   20  C   UNL     1      41.116  -9.828   7.405  1.00  0.00     0.106 A 
ENDBRANCH   8  11
ENDBRANCH   3   7
BRANCH   1  21
HETATM   21  C   UNL     1      41.046 -14.407   1.974  1.00  0.00     0.086 C 
HETATM   22  C   UNL     1      42.576 -14.480   1.929  1.00  0.00     0.026 C 
HETATM   23  C   UNL     1      43.186 -15.181   3.143  1.00  0.00     0.006 C 
HETATM   24  C   UNL     1      42.580 -16.570   3.397  1.00  0.00    -0.014 C 
HETATM   25  C   UNL     1      41.053 -16.437   3.529  1.00  0.00     0.006 C 
HETATM   26  C   UNL     1      40.409 -15.765   2.313  1.00  0.00     0.026 C 
BRANCH  24  27
HETATM   27  C   UNL     1      42.944 -17.623   2.326  1.00  0.00     0.004 C 
BRANCH  27  28
HETATM   28  C   UNL     1      43.670 -18.850   2.882  1.00  0.00    -0.004 C 
HETATM   29  C   UNL     1      43.414 -20.077   2.018  1.00  0.00     0.005 C 
ENDBRANCH  27  28
ENDBRANCH  24  27
ENDBRANCH   1  21
TORSDOF 5
ENDMDL
MODEL 8
REMARK VINA RESULT:      -7.4      5.479      8.939
REMARK  5 active torsions:
REMARK  status: ('A' for Active; 'I' for Inactive)
REMARK    1  A    between atoms: C_2  and  C_3 
REMARK    2  A    between atoms: C_3  and  C_4 
REMARK    3  A    between atoms: C_7  and  N_8 
REMARK       I    between atoms: N_8  and  C_9 
REMARK       I    between atoms: C_9  and  N_10 
REMARK    4  A    between atoms: N_10  and  N_11 
REMARK       I    between atoms: N_11  and  C_12 
REMARK    5  A    between atoms: C_12  and  C_13 
ROOT
HETATM    1  N   UNL     1      44.932 -10.150   8.687  1.00  0.00    -0.337 N 
HETATM    2  C   UNL     1      45.869  -9.914   7.709  1.00  0.00     0.335 C 
HETATM    3  N   UNL     1      45.883 -10.839   6.703  1.00  0.00    -0.249 N 
HETATM    4  O   UNL     1      46.638  -8.958   7.708  1.00  0.00    -0.246 OA
HETATM    5  H   UNL     1      44.733 -11.134   8.804  1.00  0.00     0.164 HD
HETATM    6  H   UNL     1      46.553 -10.714   5.945  1.00  0.00     0.192 HD
ENDROOT
BRANCH   3   7
HETATM    7  N   UNL     1      44.857 -11.778   6.499  1.00  0.00    -0.262 N 
HETATM    8  C   UNL     1      44.323 -11.827   5.216  1.00  0.00     0.272 C 
HETATM    9  O   UNL     1      44.849 -11.236   4.274  1.00  0.00    -0.266 OA
HETATM   10  H   UNL     1      44.231 -11.930   7.284  1.00  0.00     0.190 HD
BRANCH   8  11
HETATM   11  C   UNL     1      43.078 -12.581   5.084  1.00  0.00     0.061 A 
HETATM   12  C   UNL     1      42.715 -13.761   5.820  1.00  0.00     0.008 A 
HETATM   13  C   UNL     1      41.444 -14.153   5.397  1.00  0.00     0.043 A 
HETATM   14  C   UNL     1      43.356 -14.540   6.808  1.00  0.00     0.015 A 
HETATM   15  C   UNL     1      40.783 -15.276   5.911  1.00  0.00     0.030 A 
HETATM   16  N   UNL     1      41.038 -13.247   4.447  1.00  0.00    -0.364 N 
HETATM   17  C   UNL     1      41.444 -16.028   6.887  1.00  0.00     0.002 A 
HETATM   18  C   UNL     1      42.713 -15.668   7.331  1.00  0.00     0.001 A 
HETATM   19  H   UNL     1      40.145 -13.279   3.975  1.00  0.00     0.165 HD
HETATM   20  C   UNL     1      42.009 -12.299   4.246  1.00  0.00     0.106 A 
ENDBRANCH   8  11
ENDBRANCH   3   7
BRANCH   1  21
HETATM   21  C   UNL     1      44.899  -9.308   9.880  1.00  0.00     0.086 C 
HETATM   22  C   UNL     1      43.654  -8.414   9.890  1.00  0.00     0.026 C 
HETATM   23  C   UNL     1      42.377  -9.158  10.278  1.00  0.00     0.006 C 
HETATM   24  C   UNL     1      42.511  -9.922  11.604  1.00  0.00    -0.014 C 
HETATM   25  C   UNL     1      43.715 -10.876  11.517  1.00  0.00     0.006 C 
HETATM   26  C   UNL     1      45.017 -10.154  11.159  1.00  0.00     0.026 C 
BRANCH  24  27
HETATM   27  C   UNL     1      42.625  -9.013  12.849  1.00  0.00     0.004 C 
BRANCH  27  28
HETATM   28  C   UNL     1      41.361  -8.977  13.710  1.00  0.00    -0.004 C 
HETATM   29  C   UNL     1      40.366 -10.041  13.268  1.00  0.00     0.005 C 
ENDBRANCH  27  28
ENDBRANCH  24  27
ENDBRANCH   1  21
TORSDOF 5
ENDMDL
MODEL 9
REMARK VINA RESULT:      -7.4      2.647      7.371
REMARK  5 active torsions:
REMARK  status: ('A' for Active; 'I' for Inactive)
REMARK    1  A    between atoms: C_2  and  C_3 
REMARK    2  A    between atoms: C_3  and  C_4 
REMARK    3  A    between atoms: C_7  and  N_8 
REMARK       I    between atoms: N_8  and  C_9 
REMARK       I    between atoms: C_9  and  N_10 
REMARK    4  A    between atoms: N_10  and  N_11 
REMARK       I    between atoms: N_11  and  C_12 
REMARK    5  A    between atoms: C_12  and  C_13 
ROOT
HETATM    1  N   UNL     1      41.228 -14.602   3.664  1.00  0.00    -0.337 N 
HETATM    2  C   UNL     1      40.760 -13.725   4.614  1.00  0.00     0.335 C 
HETATM    3  N   UNL     1      40.986 -12.408   4.328  1.00  0.00    -0.249 N 
HETATM    4  O   UNL     1      40.177 -14.065   5.638  1.00  0.00    -0.246 OA
HETATM    5  H   UNL     1      42.039 -14.248   3.176  1.00  0.00     0.164 HD
HETATM    6  H   UNL     1      40.656 -11.709   4.992  1.00  0.00     0.192 HD
ENDROOT
BRANCH   3   7
HETATM    7  N   UNL     1      41.382 -11.946   3.061  1.00  0.00    -0.262 N 
HETATM    8  C   UNL     1      40.355 -11.560   2.206  1.00  0.00     0.272 C 
HETATM    9  O   UNL     1      39.197 -11.436   2.602  1.00  0.00    -0.266 OA
HETATM   10  H   UNL     1      42.196 -12.399   2.657  1.00  0.00     0.190 HD
BRANCH   8  11
HETATM   11  C   UNL     1      40.742 -11.364   0.810  1.00  0.00     0.061 A 
HETATM   12  C   UNL     1      40.520 -12.284  -0.272  1.00  0.00     0.008 A 
HETATM   13  C   UNL     1      41.031 -11.705  -1.435  1.00  0.00     0.043 A 
HETATM   14  C   UNL     1      39.931 -13.564  -0.370  1.00  0.00     0.015 A 
HETATM   15  C   UNL     1      40.983 -12.337  -2.684  1.00  0.00     0.030 A 
HETATM   16  N   UNL     1      41.540 -10.478  -1.084  1.00  0.00    -0.364 N 
HETATM   17  C   UNL     1      40.396 -13.604  -2.748  1.00  0.00     0.002 A 
HETATM   18  C   UNL     1      39.877 -14.212  -1.610  1.00  0.00     0.001 A 
HETATM   19  H   UNL     1      41.966  -9.832  -1.735  1.00  0.00     0.165 HD
HETATM   20  C   UNL     1      41.377 -10.261   0.260  1.00  0.00     0.106 A 
ENDBRANCH   8  11
ENDBRANCH   3   7
BRANCH   1  21
HETATM   21  C   UNL     1      41.164 -16.041   3.910  1.00  0.00     0.086 C 
HETATM   22  C   UNL     1      41.293 -16.829   2.601  1.00  0.00     0.026 C 
HETATM   23  C   UNL     1      42.726 -16.899   2.075  1.00  0.00     0.006 C 
HETATM   24  C   UNL     1      43.723 -17.414   3.124  1.00  0.00    -0.014 C 
HETATM   25  C   UNL     1      43.626 -16.537   4.384  1.00  0.00     0.006 C 
HETATM   26  C   UNL     1      42.207 -16.473   4.954  1.00  0.00     0.026 C 
BRANCH  24  27
HETATM   27  C   UNL     1      43.546 -18.907   3.484  1.00  0.00     0.004 C 
BRANCH  27  28
HETATM   28  C   UNL     1      44.493 -19.397   4.581  1.00  0.00    -0.004 C 
HETATM   29  C   UNL     1      43.923 -20.617   5.292  1.00  0.00     0.005 C 
ENDBRANCH  27  28
ENDBRANCH  24  27
ENDBRANCH   1  21
TORSDOF 5
ENDMDL
MODEL 10
REMARK VINA RESULT:      -7.3      3.790      8.639
REMARK  5 active torsions:
REMARK  status: ('A' for Active; 'I' for Inactive)
REMARK    1  A    between atoms: C_2  and  C_3 
REMARK    2  A    between atoms: C_3  and  C_4 
REMARK    3  A    between atoms: C_7  and  N_8 
REMARK       I    between atoms: N_8  and  C_9 
REMARK       I    between atoms: C_9  and  N_10 
REMARK    4  A    between atoms: N_10  and  N_11 
REMARK       I    between atoms: N_11  and  C_12 
REMARK    5  A    between atoms: C_12  and  C_13 
ROOT
HETATM    1  N   UNL     1      41.792 -13.464   1.928  1.00  0.00    -0.337 N 
HETATM    2  C   UNL     1      41.823 -12.089   1.916  1.00  0.00     0.335 C 
HETATM    3  N   UNL     1      40.985 -11.513   1.002  1.00  0.00    -0.249 N 
HETATM    4  O   UNL     1      42.527 -11.408   2.654  1.00  0.00    -0.246 OA
HETATM    5  H   UNL     1      41.566 -13.855   1.024  1.00  0.00     0.164 HD
HETATM    6  H   UNL     1      40.958 -10.495   0.950  1.00  0.00     0.192 HD
ENDROOT
BRANCH   3   7
HETATM    7  N   UNL     1      39.961 -12.212   0.340  1.00  0.00    -0.262 N 
HETATM    8  C   UNL     1      40.110 -12.352  -1.035  1.00  0.00     0.272 C 
HETATM    9  O   UNL     1      41.161 -12.063  -1.604  1.00  0.00    -0.266 OA
HETATM   10  H   UNL     1      39.024 -12.084   0.710  1.00  0.00     0.190 HD
BRANCH   8  11
HETATM   11  C   UNL     1      38.920 -12.812  -1.750  1.00  0.00     0.061 A 
HETATM   12  C   UNL     1      37.848 -11.988  -2.239  1.00  0.00     0.008 A 
HETATM   13  C   UNL     1      36.924 -12.822  -2.869  1.00  0.00     0.043 A 
HETATM   14  C   UNL     1      37.576 -10.603  -2.199  1.00  0.00     0.015 A 
HETATM   15  C   UNL     1      35.747 -12.344  -3.460  1.00  0.00     0.030 A 
HETATM   16  N   UNL     1      37.410 -14.104  -2.778  1.00  0.00    -0.364 N 
HETATM   17  C   UNL     1      35.504 -10.969  -3.403  1.00  0.00     0.002 A 
HETATM   18  C   UNL     1      36.403 -10.107  -2.782  1.00  0.00     0.001 A 
HETATM   19  H   UNL     1      36.946 -14.916  -3.163  1.00  0.00     0.165 HD
HETATM   20  C   UNL     1      38.606 -14.114  -2.107  1.00  0.00     0.106 A 
ENDBRANCH   8  11
ENDBRANCH   3   7
BRANCH   1  21
HETATM   21  C   UNL     1      42.732 -14.203   2.768  1.00  0.00     0.086 C 
HETATM   22  C   UNL     1      41.993 -15.017   3.836  1.00  0.00     0.026 C 
HETATM   23  C   UNL     1      41.350 -16.292   3.289  1.00  0.00     0.006 C 
HETATM   24  C   UNL     1      42.340 -17.176   2.515  1.00  0.00    -0.014 C 
HETATM   25  C   UNL     1      42.988 -16.344   1.395  1.00  0.00     0.006 C 
HETATM   26  C   UNL     1      43.669 -15.076   1.916  1.00  0.00     0.026 C 
BRANCH  24  27
HETATM   27  C   UNL     1      43.422 -17.836   3.399  1.00  0.00     0.004 C 
BRANCH  27  28
HETATM   28  C   UNL     1      44.130 -19.019   2.736  1.00  0.00    -0.004 C 
HETATM   29  C   UNL     1      43.125 -19.990   2.133  1.00  0.00     0.005 C 
ENDBRANCH  27  28
ENDBRANCH  24  27
ENDBRANCH   1  21
TORSDOF 5
ENDMDL
