MODEL 1
REMARK VINA RESULT:      -8.2      0.000      0.000
REMARK  5 active torsions:
REMARK  status: ('A' for Active; 'I' for Inactive)
REMARK    1  A    between atoms: O_2  and  C_3 
REMARK    2  A    between atoms: C_7  and  C_8 
REMARK    3  A    between atoms: C_8  and  C_9 
REMARK       I    between atoms: C_9  and  N_10 
REMARK    4  A    between atoms: N_10  and  C_11 
REMARK    5  A    between atoms: C_11  and  C_12 
ROOT
HETATM    1  C   UNL     1      41.373 -15.074   6.369  1.00  0.00     0.222 C 
HETATM    2  N   UNL     1      42.561 -14.833   5.722  1.00  0.00    -0.354 N 
HETATM    3  O   UNL     1      41.227 -16.023   7.138  1.00  0.00    -0.273 OA
HETATM    4  H   UNL     1      42.721 -13.936   5.270  1.00  0.00     0.162 HD
ENDROOT
BRANCH   1   5
HETATM    5  C   UNL     1      40.231 -14.136   6.024  1.00  0.00     0.144 C 
BRANCH   5   6
HETATM    6  C   UNL     1      40.412 -13.403   4.736  1.00  0.00    -0.014 A 
HETATM    7  C   UNL     1      40.367 -13.922   3.402  1.00  0.00     0.006 A 
HETATM    8  C   UNL     1      40.587 -12.838   2.562  1.00  0.00     0.088 A 
HETATM    9  C   UNL     1      40.155 -15.182   2.815  1.00  0.00     0.017 A 
HETATM   10  C   UNL     1      40.601 -12.905   1.168  1.00  0.00     0.074 A 
HETATM   11  O   UNL     1      40.784 -11.707   3.291  1.00  0.00    -0.321 OA
HETATM   12  C   UNL     1      40.369 -14.161   0.600  1.00  0.00     0.070 A 
HETATM   13  C   UNL     1      40.157 -15.279   1.416  1.00  0.00     0.038 A 
HETATM   14  C   UNL     1      40.680 -12.055   4.597  1.00  0.00     0.151 A 
BRANCH  12  15
HETATM   15  O   UNL     1      40.329 -14.428  -0.744  1.00  0.00    -0.356 OA
HETATM   16  C   UNL     1      39.113 -14.127  -1.420  1.00  0.00     0.210 C 
ENDBRANCH  12  15
ENDBRANCH   5   6
ENDBRANCH   1   5
BRANCH   2  17
HETATM   17  C   UNL     1      43.742 -15.584   6.068  1.00  0.00     0.201 C 
BRANCH  17  18
HETATM   18  C   UNL     1      43.763 -16.841   5.274  1.00  0.00     0.123 A 
HETATM   19  N   UNL     1      44.079 -18.050   5.703  1.00  0.00    -0.232 NA
HETATM   20  C   UNL     1      43.912 -18.880   4.621  1.00  0.00     0.085 A 
HETATM   21  C   UNL     1      43.497 -18.163   3.505  1.00  0.00     0.062 A 
HETATM   22  C   UNL     1      44.094 -20.266   4.516  1.00  0.00     0.034 A 
HETATM   23  N   UNL     1      43.414 -16.868   3.945  1.00  0.00    -0.341 N 
HETATM   24  C   UNL     1      43.248 -18.753   2.263  1.00  0.00     0.032 A 
HETATM   25  H   UNL     1      43.134 -16.073   3.390  1.00  0.00     0.167 HD
HETATM   26  C   UNL     1      43.435 -20.137   2.178  1.00  0.00     0.002 A 
HETATM   27  C   UNL     1      43.849 -20.884   3.283  1.00  0.00     0.002 A 
ENDBRANCH  17  18
ENDBRANCH   2  17
TORSDOF 5
ENDMDL
MODEL 2
REMARK VINA RESULT:      -8.2      5.458      8.831
REMARK  5 active torsions:
REMARK  status: ('A' for Active; 'I' for Inactive)
REMARK    1  A    between atoms: O_2  and  C_3 
REMARK    2  A    between atoms: C_7  and  C_8 
REMARK    3  A    between atoms: C_8  and  C_9 
REMARK       I    between atoms: C_9  and  N_10 
REMARK    4  A    between atoms: N_10  and  C_11 
REMARK    5  A    between atoms: C_11  and  C_12 
ROOT
HETATM    1  C   UNL     1      43.926 -12.348   6.943  1.00  0.00     0.222 C 
HETATM    2  N   UNL     1      43.582 -11.436   7.912  1.00  0.00    -0.354 N 
HETATM    3  O   UNL     1      45.055 -12.391   6.456  1.00  0.00    -0.273 OA
HETATM    4  H   UNL     1      42.725 -11.560   8.445  1.00  0.00     0.162 HD
ENDROOT
BRANCH   1   5
HETATM    5  C   UNL     1      42.808 -13.253   6.461  1.00  0.00     0.144 C 
BRANCH   5   6
HETATM    6  C   UNL     1      43.070 -14.709   6.667  1.00  0.00    -0.014 A 
HETATM    7  C   UNL     1      43.223 -15.735   5.680  1.00  0.00     0.006 A 
HETATM    8  C   UNL     1      43.458 -16.910   6.382  1.00  0.00     0.088 A 
HETATM    9  C   UNL     1      43.199 -15.796   4.275  1.00  0.00     0.017 A 
HETATM   10  C   UNL     1      43.686 -18.154   5.793  1.00  0.00     0.074 A 
HETATM   11  O   UNL     1      43.435 -16.673   7.721  1.00  0.00    -0.321 OA
HETATM   12  C   UNL     1      43.680 -18.195   4.395  1.00  0.00     0.070 A 
HETATM   13  C   UNL     1      43.432 -17.032   3.654  1.00  0.00     0.038 A 
HETATM   14  C   UNL     1      43.199 -15.349   7.885  1.00  0.00     0.151 A 
BRANCH  12  15
HETATM   15  O   UNL     1      43.897 -19.314   3.633  1.00  0.00    -0.356 OA
HETATM   16  C   UNL     1      43.492 -19.248   2.271  1.00  0.00     0.210 C 
ENDBRANCH  12  15
ENDBRANCH   5   6
ENDBRANCH   1   5
BRANCH   2  17
HETATM   17  C   UNL     1      44.594 -10.615   8.528  1.00  0.00     0.201 C 
BRANCH  17  18
HETATM   18  C   UNL     1      44.072 -10.102   9.824  1.00  0.00     0.123 A 
HETATM   19  N   UNL     1      44.335  -8.934  10.383  1.00  0.00    -0.232 NA
HETATM   20  C   UNL     1      43.597  -8.906  11.541  1.00  0.00     0.085 A 
HETATM   21  C   UNL     1      42.876 -10.083  11.699  1.00  0.00     0.062 A 
HETATM   22  C   UNL     1      43.487  -7.900  12.511  1.00  0.00     0.034 A 
HETATM   23  N   UNL     1      43.199 -10.830  10.596  1.00  0.00    -0.341 N 
HETATM   24  C   UNL     1      42.036 -10.329  12.788  1.00  0.00     0.032 A 
HETATM   25  H   UNL     1      42.847 -11.751  10.384  1.00  0.00     0.167 HD
HETATM   26  C   UNL     1      41.939  -9.314  13.746  1.00  0.00     0.002 A 
HETATM   27  C   UNL     1      42.650  -8.119  13.614  1.00  0.00     0.002 A 
ENDBRANCH  17  18
ENDBRANCH   2  17
TORSDOF 5
ENDMDL
MODEL 3
REMARK VINA RESULT:      -8.1      4.433      7.686
REMARK  5 active torsions:
REMARK  status: ('A' for Active; 'I' for Inactive)
REMARK    1  A    between atoms: O_2  and  C_3 
REMARK    2  A    between atoms: C_7  and  C_8 
REMARK    3  A    between atoms: C_8  and  C_9 
REMARK       I    between atoms: C_9  and  N_10 
REMARK    4  A    between atoms: N_10  and  C_11 
REMARK    5  A    between atoms: C_11  and  C_12 
ROOT
HETATM    1  C   UNL     1      42.247 -13.098   6.162  1.00  0.00     0.222 C 
HETATM    2  N   UNL     1      43.326 -13.172   7.009  1.00  0.00    -0.354 N 
HETATM    3  O   UNL     1      41.993 -12.086   5.512  1.00  0.00    -0.273 OA
HETATM    4  H   UNL     1      43.634 -14.075   7.362  1.00  0.00     0.162 HD
ENDROOT
BRANCH   1   5
HETATM    5  C   UNL     1      41.347 -14.321   6.129  1.00  0.00     0.144 C 
BRANCH   5   6
HETATM    6  C   UNL     1      41.409 -15.089   4.851  1.00  0.00    -0.014 A 
HETATM    7  C   UNL     1      42.286 -16.165   4.500  1.00  0.00     0.006 A 
HETATM    8  C   UNL     1      41.937 -16.540   3.209  1.00  0.00     0.088 A 
HETATM    9  C   UNL     1      43.327 -16.868   5.134  1.00  0.00     0.017 A 
HETATM   10  C   UNL     1      42.537 -17.576   2.493  1.00  0.00     0.074 A 
HETATM   11  O   UNL     1      40.928 -15.753   2.745  1.00  0.00    -0.321 OA
HETATM   12  C   UNL     1      43.555 -18.278   3.144  1.00  0.00     0.070 A 
HETATM   13  C   UNL     1      43.944 -17.920   4.442  1.00  0.00     0.038 A 
HETATM   14  C   UNL     1      40.617 -14.882   3.737  1.00  0.00     0.151 A 
BRANCH  12  15
HETATM   15  O   UNL     1      44.254 -19.333   2.618  1.00  0.00    -0.356 OA
HETATM   16  C   UNL     1      43.493 -20.338   1.957  1.00  0.00     0.210 C 
ENDBRANCH  12  15
ENDBRANCH   5   6
ENDBRANCH   1   5
BRANCH   2  17
HETATM   17  C   UNL     1      44.311 -12.120   7.024  1.00  0.00     0.201 C 
BRANCH  17  18
HETATM   18  C   UNL     1      43.996 -11.182   8.134  1.00  0.00     0.123 A 
HETATM   19  N   UNL     1      44.691 -10.996   9.243  1.00  0.00    -0.232 NA
HETATM   20  C   UNL     1      44.028 -10.010   9.932  1.00  0.00     0.085 A 
HETATM   21  C   UNL     1      42.900  -9.591   9.237  1.00  0.00     0.062 A 
HETATM   22  C   UNL     1      44.335  -9.414  11.163  1.00  0.00     0.034 A 
HETATM   23  N   UNL     1      42.899 -10.355   8.098  1.00  0.00    -0.341 N 
HETATM   24  C   UNL     1      42.037  -8.596   9.702  1.00  0.00     0.032 A 
HETATM   25  H   UNL     1      42.216 -10.309   7.358  1.00  0.00     0.167 HD
HETATM   26  C   UNL     1      42.359  -8.013  10.932  1.00  0.00     0.002 A 
HETATM   27  C   UNL     1      43.487  -8.411  11.653  1.00  0.00     0.002 A 
ENDBRANCH  17  18
ENDBRANCH   2  17
TORSDOF 5
ENDMDL
MODEL 4
REMARK VINA RESULT:      -8.1      2.541      6.643
REMARK  5 active torsions:
REMARK  status: ('A' for Active; 'I' for Inactive)
REMARK    1  A    between atoms: O_2  and  C_3 
REMARK    2  A    between atoms: C_7  and  C_8 
REMARK    3  A    between atoms: C_8  and  C_9 
REMARK       I    between atoms: C_9  and  N_10 
REMARK    4  A    between atoms: N_10  and  C_11 
REMARK    5  A    between atoms: C_11  and  C_12 
ROOT
HETATM    1  C   UNL     1      41.529 -14.039   4.979  1.00  0.00     0.222 C 
HETATM    2  N   UNL     1      41.331 -13.386   3.786  1.00  0.00    -0.354 N 
HETATM    3  O   UNL     1      40.594 -14.384   5.700  1.00  0.00    -0.273 OA
HETATM    4  H   UNL     1      42.093 -13.307   3.117  1.00  0.00     0.162 HD
ENDROOT
BRANCH   1   5
HETATM    5  C   UNL     1      42.977 -14.247   5.385  1.00  0.00     0.144 C 
BRANCH   5   6
HETATM    6  C   UNL     1      43.322 -15.664   5.704  1.00  0.00    -0.014 A 
HETATM    7  C   UNL     1      43.412 -16.782   4.813  1.00  0.00     0.006 A 
HETATM    8  C   UNL     1      43.772 -17.870   5.597  1.00  0.00     0.088 A 
HETATM    9  C   UNL     1      43.238 -16.989   3.433  1.00  0.00     0.017 A 
HETATM   10  C   UNL     1      43.988 -19.161   5.112  1.00  0.00     0.074 A 
HETATM   11  O   UNL     1      43.885 -17.497   6.900  1.00  0.00    -0.321 OA
HETATM   12  C   UNL     1      43.831 -19.346   3.736  1.00  0.00     0.070 A 
HETATM   13  C   UNL     1      43.455 -18.274   2.915  1.00  0.00     0.038 A 
HETATM   14  C   UNL     1      43.611 -16.170   6.958  1.00  0.00     0.151 A 
BRANCH  12  15
HETATM   15  O   UNL     1      44.013 -20.530   3.069  1.00  0.00    -0.356 OA
HETATM   16  C   UNL     1      43.654 -20.549   1.692  1.00  0.00     0.210 C 
ENDBRANCH  12  15
ENDBRANCH   5   6
ENDBRANCH   1   5
BRANCH   2  17
HETATM   17  C   UNL     1      40.002 -13.248   3.246  1.00  0.00     0.201 C 
BRANCH  17  18
HETATM   18  C   UNL     1      40.087 -13.212   1.761  1.00  0.00     0.123 A 
HETATM   19  N   UNL     1      40.698 -12.306   1.019  1.00  0.00    -0.232 NA
HETATM   20  C   UNL     1      40.535 -12.723  -0.280  1.00  0.00     0.085 A 
HETATM   21  C   UNL     1      39.800 -13.901  -0.334  1.00  0.00     0.062 A 
HETATM   22  C   UNL     1      40.992 -12.145  -1.473  1.00  0.00     0.034 A 
HETATM   23  N   UNL     1      39.523 -14.190   0.977  1.00  0.00    -0.341 N 
HETATM   24  C   UNL     1      39.482 -14.553  -1.528  1.00  0.00     0.032 A 
HETATM   25  H   UNL     1      39.003 -14.989   1.308  1.00  0.00     0.167 HD
HETATM   26  C   UNL     1      39.947 -13.962  -2.708  1.00  0.00     0.002 A 
HETATM   27  C   UNL     1      40.690 -12.779  -2.685  1.00  0.00     0.002 A 
ENDBRANCH  17  18
ENDBRANCH   2  17
TORSDOF 5
ENDMDL
MODEL 5
REMARK VINA RESULT:      -8.1      4.238      7.760
REMARK  5 active torsions:
REMARK  status: ('A' for Active; 'I' for Inactive)
REMARK    1  A    between atoms: O_2  and  C_3 
REMARK    2  A    between atoms: C_7  and  C_8 
REMARK    3  A    between atoms: C_8  and  C_9 
REMARK       I    between atoms: C_9  and  N_10 
REMARK    4  A    between atoms: N_10  and  C_11 
REMARK    5  A    between atoms: C_11  and  C_12 
ROOT
HETATM    1  C   UNL     1      42.042 -13.451   6.041  1.00  0.00     0.222 C 
HETATM    2  N   UNL     1      43.268 -13.391   6.658  1.00  0.00    -0.354 N 
HETATM    3  O   UNL     1      41.552 -12.482   5.463  1.00  0.00    -0.273 OA
HETATM    4  H   UNL     1      43.740 -14.248   6.935  1.00  0.00     0.162 HD
ENDROOT
BRANCH   1   5
HETATM    5  C   UNL     1      41.298 -14.767   6.176  1.00  0.00     0.144 C 
BRANCH   5   6
HETATM    6  C   UNL     1      42.176 -15.972   6.118  1.00  0.00    -0.014 A 
HETATM    7  C   UNL     1      42.592 -16.717   4.967  1.00  0.00     0.006 A 
HETATM    8  C   UNL     1      43.406 -17.737   5.444  1.00  0.00     0.088 A 
HETATM    9  C   UNL     1      42.378 -16.635   3.580  1.00  0.00     0.017 A 
HETATM   10  C   UNL     1      44.041 -18.686   4.642  1.00  0.00     0.074 A 
HETATM   11  O   UNL     1      43.493 -17.677   6.800  1.00  0.00    -0.321 OA
HETATM   12  C   UNL     1      43.836 -18.577   3.263  1.00  0.00     0.070 A 
HETATM   13  C   UNL     1      43.011 -17.570   2.747  1.00  0.00     0.038 A 
HETATM   14  C   UNL     1      42.750 -16.616   7.198  1.00  0.00     0.151 A 
BRANCH  12  15
HETATM   15  O   UNL     1      44.382 -19.400   2.313  1.00  0.00    -0.356 OA
HETATM   16  C   UNL     1      43.563 -20.463   1.840  1.00  0.00     0.210 C 
ENDBRANCH  12  15
ENDBRANCH   5   6
ENDBRANCH   1   5
BRANCH   2  17
HETATM   17  C   UNL     1      44.111 -12.235   6.488  1.00  0.00     0.201 C 
BRANCH  17  18
HETATM   18  C   UNL     1      43.960 -11.350   7.674  1.00  0.00     0.123 A 
HETATM   19  N   UNL     1      44.796 -11.226   8.689  1.00  0.00    -0.232 NA
HETATM   20  C   UNL     1      44.245 -10.269   9.506  1.00  0.00     0.085 A 
HETATM   21  C   UNL     1      43.042  -9.806   8.987  1.00  0.00     0.062 A 
HETATM   22  C   UNL     1      44.720  -9.738  10.713  1.00  0.00     0.034 A 
HETATM   23  N   UNL     1      42.880 -10.512   7.823  1.00  0.00    -0.341 N 
HETATM   24  C   UNL     1      42.263  -8.828   9.609  1.00  0.00     0.032 A 
HETATM   25  H   UNL     1      42.106 -10.424   7.183  1.00  0.00     0.167 HD
HETATM   26  C   UNL     1      42.753  -8.309  10.813  1.00  0.00     0.002 A 
HETATM   27  C   UNL     1      43.960  -8.753  11.359  1.00  0.00     0.002 A 
ENDBRANCH  17  18
ENDBRANCH   2  17
TORSDOF 5
ENDMDL
MODEL 6
REMARK VINA RESULT:      -8.0      1.826      3.045
REMARK  5 active torsions:
REMARK  status: ('A' for Active; 'I' for Inactive)
REMARK    1  A    between atoms: O_2  and  C_3 
REMARK    2  A    between atoms: C_7  and  C_8 
REMARK    3  A    between atoms: C_8  and  C_9 
REMARK       I    between atoms: C_9  and  N_10 
REMARK    4  A    between atoms: N_10  and  C_11 
REMARK    5  A    between atoms: C_11  and  C_12 
ROOT
HETATM    1  C   UNL     1      42.527 -13.550   3.490  1.00  0.00     0.222 C 
HETATM    2  N   UNL     1      42.347 -14.397   4.557  1.00  0.00    -0.354 N 
HETATM    3  O   UNL     1      43.644 -13.212   3.103  1.00  0.00    -0.273 OA
HETATM    4  H   UNL     1      41.440 -14.826   4.719  1.00  0.00     0.162 HD
ENDROOT
BRANCH   1   5
HETATM    5  C   UNL     1      41.259 -13.001   2.862  1.00  0.00     0.144 C 
BRANCH   5   6
HETATM    6  C   UNL     1      40.634 -13.911   1.856  1.00  0.00    -0.014 A 
HETATM    7  C   UNL     1      40.352 -13.654   0.476  1.00  0.00     0.006 A 
HETATM    8  C   UNL     1      39.779 -14.817  -0.022  1.00  0.00     0.088 A 
HETATM    9  C   UNL     1      40.527 -12.572  -0.406  1.00  0.00     0.017 A 
HETATM   10  C   UNL     1      39.373 -14.999  -1.344  1.00  0.00     0.074 A 
HETATM   11  O   UNL     1      39.674 -15.750   0.962  1.00  0.00    -0.321 OA
HETATM   12  C   UNL     1      39.572 -13.922  -2.213  1.00  0.00     0.070 A 
HETATM   13  C   UNL     1      40.134 -12.728  -1.743  1.00  0.00     0.038 A 
HETATM   14  C   UNL     1      40.187 -15.198   2.089  1.00  0.00     0.151 A 
BRANCH  12  15
HETATM   15  O   UNL     1      39.254 -13.909  -3.547  1.00  0.00    -0.356 OA
HETATM   16  C   UNL     1      38.149 -14.709  -3.948  1.00  0.00     0.210 C 
ENDBRANCH  12  15
ENDBRANCH   5   6
ENDBRANCH   1   5
BRANCH   2  17
HETATM   17  C   UNL     1      43.477 -15.071   5.147  1.00  0.00     0.201 C 
BRANCH  17  18
HETATM   18  C   UNL     1      43.525 -16.467   4.634  1.00  0.00     0.123 A 
HETATM   19  N   UNL     1      43.276 -16.872   3.401  1.00  0.00    -0.232 NA
HETATM   20  C   UNL     1      43.488 -18.229   3.410  1.00  0.00     0.085 A 
HETATM   21  C   UNL     1      43.863 -18.665   4.675  1.00  0.00     0.062 A 
HETATM   22  C   UNL     1      43.383 -19.161   2.368  1.00  0.00     0.034 A 
HETATM   23  N   UNL     1      43.875 -17.525   5.437  1.00  0.00    -0.341 N 
HETATM   24  C   UNL     1      44.144 -20.000   4.975  1.00  0.00     0.032 A 
HETATM   25  H   UNL     1      44.111 -17.473   6.416  1.00  0.00     0.167 HD
HETATM   26  C   UNL     1      44.034 -20.915   3.923  1.00  0.00     0.002 A 
HETATM   27  C   UNL     1      43.661 -20.507   2.640  1.00  0.00     0.002 A 
ENDBRANCH  17  18
ENDBRANCH   2  17
TORSDOF 5
ENDMDL
MODEL 7
REMARK VINA RESULT:      -7.8      4.581      6.699
REMARK  5 active torsions:
REMARK  status: ('A' for Active; 'I' for Inactive)
REMARK    1  A    between atoms: O_2  and  C_3 
REMARK    2  A    between atoms: C_7  and  C_8 
REMARK    3  A    between atoms: C_8  and  C_9 
REMARK       I    between atoms: C_9  and  N_10 
REMARK    4  A    between atoms: N_10  and  C_11 
REMARK    5  A    between atoms: C_11  and  C_12 
ROOT
HETATM    1  C   UNL     1      42.989 -12.955   5.988  1.00  0.00     0.222 C 
HETATM    2  N   UNL     1      43.693 -14.088   6.318  1.00  0.00    -0.354 N 
HETATM    3  O   UNL     1      41.759 -12.929   5.979  1.00  0.00    -0.273 OA
HETATM    4  H   UNL     1      44.687 -14.026   6.527  1.00  0.00     0.162 HD
ENDROOT
BRANCH   1   5
HETATM    5  C   UNL     1      43.822 -11.758   5.569  1.00  0.00     0.144 C 
BRANCH   5   6
HETATM    6  C   UNL     1      44.670 -11.193   6.661  1.00  0.00    -0.014 A 
HETATM    7  C   UNL     1      44.253 -10.541   7.866  1.00  0.00     0.006 A 
HETATM    8  C   UNL     1      45.418 -10.212   8.546  1.00  0.00     0.088 A 
HETATM    9  C   UNL     1      43.022 -10.205   8.458  1.00  0.00     0.017 A 
HETATM   10  C   UNL     1      45.459  -9.578   9.789  1.00  0.00     0.074 A 
HETATM   11  O   UNL     1      46.509 -10.596   7.830  1.00  0.00    -0.321 OA
HETATM   12  C   UNL     1      44.228  -9.269  10.374  1.00  0.00     0.070 A 
HETATM   13  C   UNL     1      43.032  -9.573   9.711  1.00  0.00     0.038 A 
HETATM   14  C   UNL     1      46.051 -11.182   6.696  1.00  0.00     0.151 A 
BRANCH  12  15
HETATM   15  O   UNL     1      44.058  -8.662  11.591  1.00  0.00    -0.356 OA
HETATM   16  C   UNL     1      42.928  -9.066  12.355  1.00  0.00     0.210 C 
ENDBRANCH  12  15
ENDBRANCH   5   6
ENDBRANCH   1   5
BRANCH   2  17
HETATM   17  C   UNL     1      43.009 -15.240   6.849  1.00  0.00     0.201 C 
BRANCH  17  18
HETATM   18  C   UNL     1      43.263 -16.403   5.957  1.00  0.00     0.123 A 
HETATM   19  N   UNL     1      43.693 -17.601   6.312  1.00  0.00    -0.232 NA
HETATM   20  C   UNL     1      43.733 -18.337   5.152  1.00  0.00     0.085 A 
HETATM   21  C   UNL     1      43.329 -17.571   4.065  1.00  0.00     0.062 A 
HETATM   22  C   UNL     1      44.100 -19.674   4.949  1.00  0.00     0.034 A 
HETATM   23  N   UNL     1      43.040 -16.343   4.603  1.00  0.00    -0.341 N 
HETATM   24  C   UNL     1      43.270 -18.063   2.759  1.00  0.00     0.032 A 
HETATM   25  H   UNL     1      42.710 -15.539   4.092  1.00  0.00     0.167 HD
HETATM   26  C   UNL     1      43.640 -19.400   2.576  1.00  0.00     0.002 A 
HETATM   27  C   UNL     1      44.048 -20.195   3.650  1.00  0.00     0.002 A 
ENDBRANCH  17  18
ENDBRANCH   2  17
TORSDOF 5
ENDMDL
MODEL 8
REMARK VINA RESULT:      -7.8      1.025      1.558
REMARK  5 active torsions:
REMARK  status: ('A' for Active; 'I' for Inactive)
REMARK    1  A    between atoms: O_2  and  C_3 
REMARK    2  A    between atoms: C_7  and  C_8 
REMARK    3  A    between atoms: C_8  and  C_9 
REMARK       I    between atoms: C_9  and  N_10 
REMARK    4  A    between atoms: N_10  and  C_11 
REMARK    5  A    between atoms: C_11  and  C_12 
ROOT
HETATM    1  C   UNL     1      41.762 -13.710   5.923  1.00  0.00     0.222 C 
HETATM    2  N   UNL     1      42.021 -15.058   5.982  1.00  0.00    -0.354 N 
HETATM    3  O   UNL     1      42.649 -12.867   6.044  1.00  0.00    -0.273 OA
HETATM    4  H   UNL     1      41.320 -15.725   5.668  1.00  0.00     0.162 HD
ENDROOT
BRANCH   1   5
HETATM    5  C   UNL     1      40.302 -13.324   5.769  1.00  0.00     0.144 C 
BRANCH   5   6
HETATM    6  C   UNL     1      39.939 -12.844   4.402  1.00  0.00    -0.014 A 
HETATM    7  C   UNL     1      40.012 -13.555   3.160  1.00  0.00     0.006 A 
HETATM    8  C   UNL     1      39.556 -12.674   2.188  1.00  0.00     0.088 A 
HETATM    9  C   UNL     1      40.402 -14.844   2.756  1.00  0.00     0.017 A 
HETATM   10  C   UNL     1      39.444 -12.979   0.831  1.00  0.00     0.074 A 
HETATM   11  O   UNL     1      39.235 -11.476   2.747  1.00  0.00    -0.321 OA
HETATM   12  C   UNL     1      39.816 -14.272   0.448  1.00  0.00     0.070 A 
HETATM   13  C   UNL     1      40.293 -15.182   1.399  1.00  0.00     0.038 A 
HETATM   14  C   UNL     1      39.471 -11.585   4.078  1.00  0.00     0.151 A 
BRANCH  12  15
HETATM   15  O   UNL     1      39.764 -14.766  -0.830  1.00  0.00    -0.356 OA
HETATM   16  C   UNL     1      39.086 -13.971  -1.796  1.00  0.00     0.210 C 
ENDBRANCH  12  15
ENDBRANCH   5   6
ENDBRANCH   1   5
BRANCH   2  17
HETATM   17  C   UNL     1      43.381 -15.536   6.001  1.00  0.00     0.201 C 
BRANCH  17  18
HETATM   18  C   UNL     1      43.459 -16.796   5.213  1.00  0.00     0.123 A 
HETATM   19  N   UNL     1      43.251 -16.939   3.917  1.00  0.00    -0.232 NA
HETATM   20  C   UNL     1      43.477 -18.268   3.652  1.00  0.00     0.085 A 
HETATM   21  C   UNL     1      43.819 -18.954   4.812  1.00  0.00     0.062 A 
HETATM   22  C   UNL     1      43.413 -18.965   2.438  1.00  0.00     0.034 A 
HETATM   23  N   UNL     1      43.796 -17.995   5.792  1.00  0.00    -0.341 N 
HETATM   24  C   UNL     1      44.105 -20.321   4.839  1.00  0.00     0.032 A 
HETATM   25  H   UNL     1      44.002 -18.145   6.768  1.00  0.00     0.167 HD
HETATM   26  C   UNL     1      44.036 -21.000   3.618  1.00  0.00     0.002 A 
HETATM   27  C   UNL     1      43.697 -20.338   2.436  1.00  0.00     0.002 A 
ENDBRANCH  17  18
ENDBRANCH   2  17
TORSDOF 5
ENDMDL
MODEL 9
REMARK VINA RESULT:      -7.8      3.726      6.106
REMARK  5 active torsions:
REMARK  status: ('A' for Active; 'I' for Inactive)
REMARK    1  A    between atoms: O_2  and  C_3 
REMARK    2  A    between atoms: C_7  and  C_8 
REMARK    3  A    between atoms: C_8  and  C_9 
REMARK       I    between atoms: C_9  and  N_10 
REMARK    4  A    between atoms: N_10  and  C_11 
REMARK    5  A    between atoms: C_11  and  C_12 
ROOT
HETATM    1  C   UNL     1      43.107 -12.581   2.987  1.00  0.00     0.222 C 
HETATM    2  N   UNL     1      43.233 -13.923   3.253  1.00  0.00    -0.354 N 
HETATM    3  O   UNL     1      42.338 -12.153   2.128  1.00  0.00    -0.273 OA
HETATM    4  H   UNL     1      43.704 -14.231   4.100  1.00  0.00     0.162 HD
ENDROOT
BRANCH   1   5
HETATM    5  C   UNL     1      44.029 -11.663   3.770  1.00  0.00     0.144 C 
BRANCH   5   6
HETATM    6  C   UNL     1      43.465 -11.202   5.074  1.00  0.00    -0.014 A 
HETATM    7  C   UNL     1      44.152 -10.975   6.310  1.00  0.00     0.006 A 
HETATM    8  C   UNL     1      43.186 -10.549   7.213  1.00  0.00     0.088 A 
HETATM    9  C   UNL     1      45.481 -11.074   6.760  1.00  0.00     0.017 A 
HETATM   10  C   UNL     1      43.439 -10.196   8.539  1.00  0.00     0.074 A 
HETATM   11  O   UNL     1      41.962 -10.524   6.618  1.00  0.00    -0.321 OA
HETATM   12  C   UNL     1      44.768 -10.280   8.965  1.00  0.00     0.070 A 
HETATM   13  C   UNL     1      45.767 -10.719   8.087  1.00  0.00     0.038 A 
HETATM   14  C   UNL     1      42.138 -10.920   5.334  1.00  0.00     0.151 A 
BRANCH  12  15
HETATM   15  O   UNL     1      45.220  -9.964  10.220  1.00  0.00    -0.356 OA
HETATM   16  C   UNL     1      44.281  -9.364  11.105  1.00  0.00     0.210 C 
ENDBRANCH  12  15
ENDBRANCH   5   6
ENDBRANCH   1   5
BRANCH   2  17
HETATM   17  C   UNL     1      42.322 -14.869   2.659  1.00  0.00     0.201 C 
BRANCH  17  18
HETATM   18  C   UNL     1      42.788 -16.247   2.973  1.00  0.00     0.123 A 
HETATM   19  N   UNL     1      43.320 -16.670   4.106  1.00  0.00    -0.232 NA
HETATM   20  C   UNL     1      43.548 -18.013   3.927  1.00  0.00     0.085 A 
HETATM   21  C   UNL     1      43.158 -18.417   2.656  1.00  0.00     0.062 A 
HETATM   22  C   UNL     1      44.085 -18.958   4.812  1.00  0.00     0.034 A 
HETATM   23  N   UNL     1      42.682 -17.274   2.067  1.00  0.00    -0.341 N 
HETATM   24  C   UNL     1      43.274 -19.732   2.199  1.00  0.00     0.032 A 
HETATM   25  H   UNL     1      42.309 -17.204   1.132  1.00  0.00     0.167 HD
HETATM   26  C   UNL     1      43.812 -20.662   3.096  1.00  0.00     0.002 A 
HETATM   27  C   UNL     1      44.210 -20.286   4.381  1.00  0.00     0.002 A 
ENDBRANCH  17  18
ENDBRANCH   2  17
TORSDOF 5
ENDMDL
MODEL 10
REMARK VINA RESULT:      -7.7      2.993      7.166
REMARK  5 active torsions:
REMARK  status: ('A' for Active; 'I' for Inactive)
REMARK    1  A    between atoms: O_2  and  C_3 
REMARK    2  A    between atoms: C_7  and  C_8 
REMARK    3  A    between atoms: C_8  and  C_9 
REMARK       I    between atoms: C_9  and  N_10 
REMARK    4  A    between atoms: N_10  and  C_11 
REMARK    5  A    between atoms: C_11  and  C_12 
ROOT
HETATM    1  C   UNL     1      41.613 -12.667   3.283  1.00  0.00     0.222 C 
HETATM    2  N   UNL     1      41.864 -11.761   2.281  1.00  0.00    -0.354 N 
HETATM    3  O   UNL     1      40.510 -12.762   3.818  1.00  0.00    -0.273 OA
HETATM    4  H   UNL     1      42.705 -11.849   1.715  1.00  0.00     0.162 HD
ENDROOT
BRANCH   1   5
HETATM    5  C   UNL     1      42.800 -13.497   3.736  1.00  0.00     0.144 C 
BRANCH   5   6
HETATM    6  C   UNL     1      42.939 -14.802   3.025  1.00  0.00    -0.014 A 
HETATM    7  C   UNL     1      43.326 -16.072   3.561  1.00  0.00     0.006 A 
HETATM    8  C   UNL     1      43.294 -16.964   2.496  1.00  0.00     0.088 A 
HETATM    9  C   UNL     1      43.688 -16.566   4.827  1.00  0.00     0.017 A 
HETATM   10  C   UNL     1      43.585 -18.325   2.592  1.00  0.00     0.074 A 
HETATM   11  O   UNL     1      42.939 -16.320   1.352  1.00  0.00    -0.321 OA
HETATM   12  C   UNL     1      43.923 -18.804   3.861  1.00  0.00     0.070 A 
HETATM   13  C   UNL     1      43.979 -17.932   4.956  1.00  0.00     0.038 A 
HETATM   14  C   UNL     1      42.729 -15.021   1.676  1.00  0.00     0.151 A 
BRANCH  12  15
HETATM   15  O   UNL     1      44.226 -20.107   4.162  1.00  0.00    -0.356 OA
HETATM   16  C   UNL     1      43.972 -20.530   5.497  1.00  0.00     0.210 C 
ENDBRANCH  12  15
ENDBRANCH   5   6
ENDBRANCH   1   5
BRANCH   2  17
HETATM   17  C   UNL     1      40.783 -11.012   1.690  1.00  0.00     0.201 C 
BRANCH  17  18
HETATM   18  C   UNL     1      40.274 -11.756   0.507  1.00  0.00     0.123 A 
HETATM   19  N   UNL     1      40.964 -12.544  -0.298  1.00  0.00    -0.232 NA
HETATM   20  C   UNL     1      40.056 -13.028  -1.209  1.00  0.00     0.085 A 
HETATM   21  C   UNL     1      38.787 -12.518  -0.963  1.00  0.00     0.062 A 
HETATM   22  C   UNL     1      40.243 -13.915  -2.278  1.00  0.00     0.034 A 
HETATM   23  N   UNL     1      38.953 -11.708   0.131  1.00  0.00    -0.341 N 
HETATM   24  C   UNL     1      37.668 -12.841  -1.733  1.00  0.00     0.032 A 
HETATM   25  H   UNL     1      38.226 -11.177   0.587  1.00  0.00     0.167 HD
HETATM   26  C   UNL     1      37.873 -13.728  -2.796  1.00  0.00     0.002 A 
HETATM   27  C   UNL     1      39.136 -14.259  -3.066  1.00  0.00     0.002 A 
ENDBRANCH  17  18
ENDBRANCH   2  17
TORSDOF 5
ENDMDL
