MODEL 1
REMARK VINA RESULT:      -7.9      0.000      0.000
REMARK  2 active torsions:
REMARK  status: ('A' for Active; 'I' for Inactive)
REMARK    1  A    between atoms: C_12  and  C_13 
REMARK    2  A    between atoms: C_16  and  O_17 
ROOT
HETATM    1  C   UNL     1      43.872 -12.393   6.019  1.00  0.00     0.002 A 
HETATM    2  C   UNL     1      42.733 -13.169   5.816  1.00  0.00     0.026 A 
HETATM    3  C   UNL     1      42.039 -13.134   4.597  1.00  0.00     0.036 A 
HETATM    4  C   UNL     1      42.504 -12.300   3.554  1.00  0.00     0.053 A 
HETATM    5  N   UNL     1      41.897 -12.222   2.279  1.00  0.00    -0.356 N 
HETATM    6  C   UNL     1      41.230 -13.238   1.634  1.00  0.00     0.041 A 
HETATM    7  C   UNL     1      40.800 -14.411   2.126  1.00  0.00     0.056 A 
HETATM    8  C   UNL     1      40.166 -15.139   1.019  1.00  0.00     0.251 A 
HETATM    9  O   UNL     1      39.615 -16.220   1.086  1.00  0.00    -0.268 OA
HETATM   10  N   UNL     1      40.291 -14.365  -0.105  1.00  0.00    -0.351 N 
HETATM   11  C   UNL     1      40.932 -13.122   0.162  1.00  0.00     0.180 A 
HETATM   12  C   UNL     1      40.809 -14.965   3.502  1.00  0.00     0.134 C 
HETATM   13  N   UNL     1      40.847 -13.892   4.518  1.00  0.00    -0.278 NA
HETATM   14  C   UNL     1      43.646 -11.510   3.787  1.00  0.00     0.031 A 
HETATM   15  C   UNL     1      44.325 -11.557   5.006  1.00  0.00     0.002 A 
HETATM   16  H   UNL     1      42.300 -11.515   1.672  1.00  0.00     0.166 HD
HETATM   17  H   UNL     1      39.903 -14.661  -0.990  1.00  0.00     0.163 HD
HETATM   18  H   UNL     1      40.112 -13.225   4.282  1.00  0.00     0.128 HD
ENDROOT
BRANCH  12  19
HETATM   19  C   UNL     1      41.847 -16.046   3.785  1.00  0.00    -0.035 A 
HETATM   20  C   UNL     1      42.045 -16.590   5.067  1.00  0.00     0.012 A 
HETATM   21  C   UNL     1      42.999 -17.589   5.285  1.00  0.00     0.037 A 
HETATM   22  C   UNL     1      43.757 -18.057   4.218  1.00  0.00     0.065 A 
HETATM   23  C   UNL     1      43.571 -17.551   2.939  1.00  0.00     0.037 A 
HETATM   24  C   UNL     1      42.618 -16.554   2.723  1.00  0.00     0.012 A 
BRANCH  22  25
HETATM   25  O   UNL     1      44.700 -19.028   4.388  1.00  0.00    -0.361 OA
HETATM   26  H   UNL     1      45.486 -18.783   3.875  1.00  0.00     0.217 HD
ENDBRANCH  22  25
ENDBRANCH  12  19
TORSDOF 2
ENDMDL
MODEL 2
REMARK VINA RESULT:      -7.8      2.854      4.483
REMARK  2 active torsions:
REMARK  status: ('A' for Active; 'I' for Inactive)
REMARK    1  A    between atoms: C_12  and  C_13 
REMARK    2  A    between atoms: C_16  and  O_17 
ROOT
HETATM    1  C   UNL     1      38.923 -10.094   4.477  1.00  0.00     0.002 A 
HETATM    2  C   UNL     1      39.364 -11.212   5.182  1.00  0.00     0.026 A 
HETATM    3  C   UNL     1      39.452 -12.469   4.565  1.00  0.00     0.036 A 
HETATM    4  C   UNL     1      39.090 -12.606   3.206  1.00  0.00     0.053 A 
HETATM    5  N   UNL     1      39.178 -13.821   2.486  1.00  0.00    -0.356 N 
HETATM    6  C   UNL     1      40.092 -14.827   2.701  1.00  0.00     0.041 A 
HETATM    7  C   UNL     1      40.920 -15.007   3.742  1.00  0.00     0.056 A 
HETATM    8  C   UNL     1      41.700 -16.222   3.471  1.00  0.00     0.251 A 
HETATM    9  O   UNL     1      42.520 -16.734   4.207  1.00  0.00    -0.268 OA
HETATM   10  N   UNL     1      41.317 -16.688   2.241  1.00  0.00    -0.351 N 
HETATM   11  C   UNL     1      40.285 -15.897   1.659  1.00  0.00     0.180 A 
HETATM   12  C   UNL     1      41.073 -14.267   5.018  1.00  0.00     0.134 C 
HETATM   13  N   UNL     1      39.829 -13.558   5.387  1.00  0.00    -0.278 NA
HETATM   14  C   UNL     1      38.629 -11.468   2.518  1.00  0.00     0.031 A 
HETATM   15  C   UNL     1      38.548 -10.223   3.145  1.00  0.00     0.002 A 
HETATM   16  H   UNL     1      38.802 -13.771   1.544  1.00  0.00     0.166 HD
HETATM   17  H   UNL     1      41.709 -17.536   1.857  1.00  0.00     0.163 HD
HETATM   18  H   UNL     1      39.066 -14.231   5.319  1.00  0.00     0.128 HD
ENDROOT
BRANCH  12  19
HETATM   19  C   UNL     1      42.293 -13.358   5.128  1.00  0.00    -0.035 A 
HETATM   20  C   UNL     1      42.731 -12.545   4.067  1.00  0.00     0.012 A 
HETATM   21  C   UNL     1      43.849 -11.717   4.211  1.00  0.00     0.037 A 
HETATM   22  C   UNL     1      44.531 -11.689   5.421  1.00  0.00     0.065 A 
HETATM   23  C   UNL     1      44.111 -12.468   6.491  1.00  0.00     0.037 A 
HETATM   24  C   UNL     1      42.994 -13.294   6.347  1.00  0.00     0.012 A 
BRANCH  22  25
HETATM   25  O   UNL     1      45.626 -10.897   5.602  1.00  0.00    -0.361 OA
HETATM   26  H   UNL     1      45.427 -10.254   6.301  1.00  0.00     0.217 HD
ENDBRANCH  22  25
ENDBRANCH  12  19
TORSDOF 2
ENDMDL
MODEL 3
REMARK VINA RESULT:      -7.7      8.821     11.362
REMARK  2 active torsions:
REMARK  status: ('A' for Active; 'I' for Inactive)
REMARK    1  A    between atoms: C_12  and  C_13 
REMARK    2  A    between atoms: C_16  and  O_17 
ROOT
HETATM    1  C   UNL     1      38.424  -6.276  11.241  1.00  0.00     0.002 A 
HETATM    2  C   UNL     1      38.839  -7.517  11.717  1.00  0.00     0.026 A 
HETATM    3  C   UNL     1      39.802  -8.273  11.030  1.00  0.00     0.036 A 
HETATM    4  C   UNL     1      40.363  -7.766   9.836  1.00  0.00     0.053 A 
HETATM    5  N   UNL     1      41.363  -8.434   9.091  1.00  0.00    -0.356 N 
HETATM    6  C   UNL     1      42.334  -9.267   9.600  1.00  0.00     0.041 A 
HETATM    7  C   UNL     1      42.418  -9.817  10.822  1.00  0.00     0.056 A 
HETATM    8  C   UNL     1      43.656 -10.607  10.857  1.00  0.00     0.251 A 
HETATM    9  O   UNL     1      44.051 -11.290  11.781  1.00  0.00    -0.268 OA
HETATM   10  N   UNL     1      44.276 -10.449   9.646  1.00  0.00    -0.351 N 
HETATM   11  C   UNL     1      43.523  -9.635   8.752  1.00  0.00     0.180 A 
HETATM   12  C   UNL     1      41.488  -9.797  11.977  1.00  0.00     0.134 C 
HETATM   13  N   UNL     1      40.094  -9.557  11.548  1.00  0.00    -0.278 NA
HETATM   14  C   UNL     1      39.916  -6.519   9.362  1.00  0.00     0.031 A 
HETATM   15  C   UNL     1      38.957  -5.778  10.058  1.00  0.00     0.002 A 
HETATM   16  H   UNL     1      41.600  -7.978   8.215  1.00  0.00     0.166 HD
HETATM   17  H   UNL     1      45.142 -10.926   9.436  1.00  0.00     0.163 HD
HETATM   18  H   UNL     1      39.894 -10.210  10.791  1.00  0.00     0.128 HD
ENDROOT
BRANCH  12  19
HETATM   19  C   UNL     1      41.882  -8.895  13.143  1.00  0.00    -0.035 A 
HETATM   20  C   UNL     1      42.925  -7.955  13.056  1.00  0.00     0.012 A 
HETATM   21  C   UNL     1      43.248  -7.139  14.145  1.00  0.00     0.037 A 
HETATM   22  C   UNL     1      42.524  -7.252  15.325  1.00  0.00     0.065 A 
HETATM   23  C   UNL     1      41.479  -8.158  15.433  1.00  0.00     0.037 A 
HETATM   24  C   UNL     1      41.156  -8.972  14.346  1.00  0.00     0.012 A 
BRANCH  22  25
HETATM   25  O   UNL     1      42.809  -6.476  16.410  1.00  0.00    -0.361 OA
HETATM   26  H   UNL     1      43.371  -5.740  16.121  1.00  0.00     0.217 HD
ENDBRANCH  22  25
ENDBRANCH  12  19
TORSDOF 2
ENDMDL
MODEL 4
REMARK VINA RESULT:      -7.4     15.076     16.545
REMARK  2 active torsions:
REMARK  status: ('A' for Active; 'I' for Inactive)
REMARK    1  A    between atoms: C_12  and  C_13 
REMARK    2  A    between atoms: C_16  and  O_17 
ROOT
HETATM    1  C   UNL     1      45.346 -28.553  -3.711  1.00  0.00     0.002 A 
HETATM    2  C   UNL     1      46.001 -28.114  -2.562  1.00  0.00     0.026 A 
HETATM    3  C   UNL     1      45.457 -28.338  -1.288  1.00  0.00     0.036 A 
HETATM    4  C   UNL     1      44.227 -29.024  -1.166  1.00  0.00     0.053 A 
HETATM    5  N   UNL     1      43.616 -29.330   0.073  1.00  0.00    -0.356 N 
HETATM    6  C   UNL     1      44.268 -29.580   1.260  1.00  0.00     0.041 A 
HETATM    7  C   UNL     1      45.555 -29.366   1.577  1.00  0.00     0.056 A 
HETATM    8  C   UNL     1      45.742 -29.823   2.960  1.00  0.00     0.251 A 
HETATM    9  O   UNL     1      46.763 -29.748   3.614  1.00  0.00    -0.268 OA
HETATM   10  N   UNL     1      44.544 -30.332   3.388  1.00  0.00    -0.351 N 
HETATM   11  C   UNL     1      43.522 -30.215   2.403  1.00  0.00     0.180 A 
HETATM   12  C   UNL     1      46.662 -28.728   0.824  1.00  0.00     0.134 C 
HETATM   13  N   UNL     1      46.153 -27.780  -0.190  1.00  0.00    -0.278 NA
HETATM   14  C   UNL     1      43.574 -29.442  -2.340  1.00  0.00     0.031 A 
HETATM   15  C   UNL     1      44.128 -29.212  -3.601  1.00  0.00     0.002 A 
HETATM   16  H   UNL     1      42.696 -29.751  -0.013  1.00  0.00     0.166 HD
HETATM   17  H   UNL     1      44.432 -30.686   4.328  1.00  0.00     0.163 HD
HETATM   18  H   UNL     1      45.484 -27.168   0.277  1.00  0.00     0.128 HD
ENDROOT
BRANCH  12  19
HETATM   19  C   UNL     1      47.710 -29.670   0.239  1.00  0.00    -0.035 A 
HETATM   20  C   UNL     1      47.554 -31.068   0.232  1.00  0.00     0.012 A 
HETATM   21  C   UNL     1      48.533 -31.897  -0.323  1.00  0.00     0.037 A 
HETATM   22  C   UNL     1      49.672 -31.332  -0.885  1.00  0.00     0.065 A 
HETATM   23  C   UNL     1      49.844 -29.955  -0.908  1.00  0.00     0.037 A 
HETATM   24  C   UNL     1      48.866 -29.128  -0.354  1.00  0.00     0.012 A 
BRANCH  22  25
HETATM   25  O   UNL     1      50.651 -32.106  -1.436  1.00  0.00    -0.361 OA
HETATM   26  H   UNL     1      51.476 -31.946  -0.950  1.00  0.00     0.217 HD
ENDBRANCH  22  25
ENDBRANCH  12  19
TORSDOF 2
ENDMDL
MODEL 5
REMARK VINA RESULT:      -7.4      3.277      5.500
REMARK  2 active torsions:
REMARK  status: ('A' for Active; 'I' for Inactive)
REMARK    1  A    between atoms: C_12  and  C_13 
REMARK    2  A    between atoms: C_16  and  O_17 
ROOT
HETATM    1  C   UNL     1      42.344 -16.761   2.218  1.00  0.00     0.002 A 
HETATM    2  C   UNL     1      41.083 -16.202   2.017  1.00  0.00     0.026 A 
HETATM    3  C   UNL     1      40.679 -15.056   2.718  1.00  0.00     0.036 A 
HETATM    4  C   UNL     1      41.565 -14.454   3.641  1.00  0.00     0.053 A 
HETATM    5  N   UNL     1      41.265 -13.279   4.368  1.00  0.00    -0.356 N 
HETATM    6  C   UNL     1      40.457 -12.247   3.947  1.00  0.00     0.041 A 
HETATM    7  C   UNL     1      39.606 -12.213   2.909  1.00  0.00     0.056 A 
HETATM    8  C   UNL     1      39.005 -10.873   2.887  1.00  0.00     0.251 A 
HETATM    9  O   UNL     1      38.149 -10.477   2.120  1.00  0.00    -0.268 OA
HETATM   10  N   UNL     1      39.571 -10.153   3.906  1.00  0.00    -0.351 N 
HETATM   11  C   UNL     1      40.495 -10.925   4.666  1.00  0.00     0.180 A 
HETATM   12  C   UNL     1      39.185 -13.258   1.945  1.00  0.00     0.134 C 
HETATM   13  N   UNL     1      39.351 -14.614   2.508  1.00  0.00    -0.278 NA
HETATM   14  C   UNL     1      42.826 -15.046   3.842  1.00  0.00     0.031 A 
HETATM   15  C   UNL     1      43.214 -16.187   3.136  1.00  0.00     0.002 A 
HETATM   16  H   UNL     1      41.972 -13.023   5.051  1.00  0.00     0.166 HD
HETATM   17  H   UNL     1      39.287  -9.202   4.095  1.00  0.00     0.163 HD
HETATM   18  H   UNL     1      38.913 -14.616   3.429  1.00  0.00     0.128 HD
ENDROOT
BRANCH  12  19
HETATM   19  C   UNL     1      39.771 -13.155   0.540  1.00  0.00    -0.035 A 
HETATM   20  C   UNL     1      40.663 -12.135   0.164  1.00  0.00     0.012 A 
HETATM   21  C   UNL     1      41.187 -12.081  -1.131  1.00  0.00     0.037 A 
HETATM   22  C   UNL     1      40.830 -13.054  -2.056  1.00  0.00     0.065 A 
HETATM   23  C   UNL     1      39.966 -14.083  -1.707  1.00  0.00     0.037 A 
HETATM   24  C   UNL     1      39.443 -14.136  -0.414  1.00  0.00     0.012 A 
BRANCH  22  25
HETATM   25  O   UNL     1      41.317 -13.037  -3.330  1.00  0.00    -0.361 OA
HETATM   26  H   UNL     1      41.387 -13.953  -3.644  1.00  0.00     0.217 HD
ENDBRANCH  22  25
ENDBRANCH  12  19
TORSDOF 2
ENDMDL
MODEL 6
REMARK VINA RESULT:      -7.3     14.772     16.167
REMARK  2 active torsions:
REMARK  status: ('A' for Active; 'I' for Inactive)
REMARK    1  A    between atoms: C_12  and  C_13 
REMARK    2  A    between atoms: C_16  and  O_17 
ROOT
HETATM    1  C   UNL     1      48.974 -30.547   4.405  1.00  0.00     0.002 A 
HETATM    2  C   UNL     1      48.082 -29.580   3.945  1.00  0.00     0.026 A 
HETATM    3  C   UNL     1      48.129 -29.123   2.619  1.00  0.00     0.036 A 
HETATM    4  C   UNL     1      49.094 -29.654   1.732  1.00  0.00     0.053 A 
HETATM    5  N   UNL     1      49.199 -29.285   0.371  1.00  0.00    -0.356 N 
HETATM    6  C   UNL     1      48.163 -28.892  -0.446  1.00  0.00     0.041 A 
HETATM    7  C   UNL     1      46.911 -28.542  -0.111  1.00  0.00     0.056 A 
HETATM    8  C   UNL     1      46.201 -28.227  -1.358  1.00  0.00     0.251 A 
HETATM    9  O   UNL     1      45.059 -27.825  -1.457  1.00  0.00    -0.268 OA
HETATM   10  N   UNL     1      47.072 -28.450  -2.392  1.00  0.00    -0.351 N 
HETATM   11  C   UNL     1      48.359 -28.855  -1.938  1.00  0.00     0.180 A 
HETATM   12  C   UNL     1      46.254 -28.375   1.208  1.00  0.00     0.134 C 
HETATM   13  N   UNL     1      47.238 -28.080   2.271  1.00  0.00    -0.278 NA
HETATM   14  C   UNL     1      49.997 -30.615   2.223  1.00  0.00     0.031 A 
HETATM   15  C   UNL     1      49.937 -31.060   3.546  1.00  0.00     0.002 A 
HETATM   16  H   UNL     1      49.996 -29.693  -0.108  1.00  0.00     0.166 HD
HETATM   17  H   UNL     1      46.802 -28.273  -3.350  1.00  0.00     0.163 HD
HETATM   18  H   UNL     1      47.827 -27.317   1.935  1.00  0.00     0.128 HD
ENDROOT
BRANCH  12  19
HETATM   19  C   UNL     1      45.289 -29.481   1.626  1.00  0.00    -0.035 A 
HETATM   20  C   UNL     1      45.360 -30.785   1.106  1.00  0.00     0.012 A 
HETATM   21  C   UNL     1      44.464 -31.774   1.522  1.00  0.00     0.037 A 
HETATM   22  C   UNL     1      43.494 -31.466   2.468  1.00  0.00     0.065 A 
HETATM   23  C   UNL     1      43.412 -30.192   3.012  1.00  0.00     0.037 A 
HETATM   24  C   UNL     1      44.308 -29.205   2.596  1.00  0.00     0.012 A 
BRANCH  22  25
HETATM   25  O   UNL     1      42.599 -32.401   2.900  1.00  0.00    -0.361 OA
HETATM   26  H   UNL     1      41.950 -31.962   3.472  1.00  0.00     0.217 HD
ENDBRANCH  22  25
ENDBRANCH  12  19
TORSDOF 2
ENDMDL
MODEL 7
REMARK VINA RESULT:      -7.2      2.970      5.856
REMARK  2 active torsions:
REMARK  status: ('A' for Active; 'I' for Inactive)
REMARK    1  A    between atoms: C_12  and  C_13 
REMARK    2  A    between atoms: C_16  and  O_17 
ROOT
HETATM    1  C   UNL     1      41.835 -17.205   2.271  1.00  0.00     0.002 A 
HETATM    2  C   UNL     1      40.931 -16.382   2.940  1.00  0.00     0.026 A 
HETATM    3  C   UNL     1      41.335 -15.597   4.030  1.00  0.00     0.036 A 
HETATM    4  C   UNL     1      42.682 -15.639   4.458  1.00  0.00     0.053 A 
HETATM    5  N   UNL     1      43.195 -14.860   5.522  1.00  0.00    -0.356 N 
HETATM    6  C   UNL     1      42.753 -13.613   5.901  1.00  0.00     0.041 A 
HETATM    7  C   UNL     1      41.632 -12.969   5.539  1.00  0.00     0.056 A 
HETATM    8  C   UNL     1      41.646 -11.663   6.211  1.00  0.00     0.251 A 
HETATM    9  O   UNL     1      40.776 -10.817   6.166  1.00  0.00    -0.268 OA
HETATM   10  N   UNL     1      42.817 -11.580   6.919  1.00  0.00    -0.351 N 
HETATM   11  C   UNL     1      43.596 -12.767   6.818  1.00  0.00     0.180 A 
HETATM   12  C   UNL     1      40.478 -13.390   4.708  1.00  0.00     0.134 C 
HETATM   13  N   UNL     1      40.327 -14.861   4.696  1.00  0.00    -0.278 NA
HETATM   14  C   UNL     1      43.574 -16.491   3.780  1.00  0.00     0.031 A 
HETATM   15  C   UNL     1      43.156 -17.265   2.695  1.00  0.00     0.002 A 
HETATM   16  H   UNL     1      44.160 -15.068   5.758  1.00  0.00     0.166 HD
HETATM   17  H   UNL     1      43.030 -10.769   7.483  1.00  0.00     0.163 HD
HETATM   18  H   UNL     1      40.352 -15.176   5.666  1.00  0.00     0.128 HD
ENDROOT
BRANCH  12  19
HETATM   19  C   UNL     1      40.412 -12.806   3.300  1.00  0.00    -0.035 A 
HETATM   20  C   UNL     1      41.548 -12.329   2.623  1.00  0.00     0.012 A 
HETATM   21  C   UNL     1      41.447 -11.810   1.328  1.00  0.00     0.037 A 
HETATM   22  C   UNL     1      40.209 -11.773   0.699  1.00  0.00     0.065 A 
HETATM   23  C   UNL     1      39.074 -12.252   1.337  1.00  0.00     0.037 A 
HETATM   24  C   UNL     1      39.175 -12.771   2.629  1.00  0.00     0.012 A 
BRANCH  22  25
HETATM   25  O   UNL     1      40.068 -11.273  -0.562  1.00  0.00    -0.361 OA
HETATM   26  H   UNL     1      40.162 -10.308  -0.521  1.00  0.00     0.217 HD
ENDBRANCH  22  25
ENDBRANCH  12  19
TORSDOF 2
ENDMDL
MODEL 8
REMARK VINA RESULT:      -7.2     15.086     16.654
REMARK  2 active torsions:
REMARK  status: ('A' for Active; 'I' for Inactive)
REMARK    1  A    between atoms: C_12  and  C_13 
REMARK    2  A    between atoms: C_16  and  O_17 
ROOT
HETATM    1  C   UNL     1      47.289 -27.789  -1.786  1.00  0.00     0.002 A 
HETATM    2  C   UNL     1      47.641 -27.747  -0.438  1.00  0.00     0.026 A 
HETATM    3  C   UNL     1      46.771 -28.223   0.553  1.00  0.00     0.036 A 
HETATM    4  C   UNL     1      45.516 -28.757   0.182  1.00  0.00     0.053 A 
HETATM    5  N   UNL     1      44.585 -29.294   1.102  1.00  0.00    -0.356 N 
HETATM    6  C   UNL     1      44.887 -29.922   2.289  1.00  0.00     0.041 A 
HETATM    7  C   UNL     1      46.055 -29.959   2.950  1.00  0.00     0.056 A 
HETATM    8  C   UNL     1      45.846 -30.778   4.152  1.00  0.00     0.251 A 
HETATM    9  O   UNL     1      46.661 -31.002   5.024  1.00  0.00    -0.268 OA
HETATM   10  N   UNL     1      44.551 -31.226   4.122  1.00  0.00    -0.351 N 
HETATM   11  C   UNL     1      43.833 -30.732   2.996  1.00  0.00     0.180 A 
HETATM   12  C   UNL     1      47.354 -29.292   2.694  1.00  0.00     0.134 C 
HETATM   13  N   UNL     1      47.183 -28.059   1.897  1.00  0.00    -0.278 NA
HETATM   14  C   UNL     1      45.172 -28.773  -1.183  1.00  0.00     0.031 A 
HETATM   15  C   UNL     1      46.051 -28.296  -2.159  1.00  0.00     0.002 A 
HETATM   16  H   UNL     1      43.698 -29.560   0.685  1.00  0.00     0.166 HD
HETATM   17  H   UNL     1      44.177 -31.794   4.869  1.00  0.00     0.163 HD
HETATM   18  H   UNL     1      46.449 -27.509   2.345  1.00  0.00     0.128 HD
ENDROOT
BRANCH  12  19
HETATM   19  C   UNL     1      48.466 -30.174   2.134  1.00  0.00    -0.035 A 
HETATM   20  C   UNL     1      48.219 -31.221   1.227  1.00  0.00     0.012 A 
HETATM   21  C   UNL     1      49.267 -32.000   0.727  1.00  0.00     0.037 A 
HETATM   22  C   UNL     1      50.571 -31.732   1.126  1.00  0.00     0.065 A 
HETATM   23  C   UNL     1      50.845 -30.695   2.006  1.00  0.00     0.037 A 
HETATM   24  C   UNL     1      49.799 -29.917   2.503  1.00  0.00     0.012 A 
BRANCH  22  25
HETATM   25  O   UNL     1      51.621 -32.471   0.664  1.00  0.00    -0.361 OA
HETATM   26  H   UNL     1      51.361 -33.405   0.664  1.00  0.00     0.217 HD
ENDBRANCH  22  25
ENDBRANCH  12  19
TORSDOF 2
ENDMDL
MODEL 9
REMARK VINA RESULT:      -7.1      2.978      4.885
REMARK  2 active torsions:
REMARK  status: ('A' for Active; 'I' for Inactive)
REMARK    1  A    between atoms: C_12  and  C_13 
REMARK    2  A    between atoms: C_16  and  O_17 
ROOT
HETATM    1  C   UNL     1      43.042 -16.452   4.374  1.00  0.00     0.002 A 
HETATM    2  C   UNL     1      43.297 -15.110   4.102  1.00  0.00     0.026 A 
HETATM    3  C   UNL     1      42.852 -14.514   2.912  1.00  0.00     0.036 A 
HETATM    4  C   UNL     1      42.130 -15.285   1.974  1.00  0.00     0.053 A 
HETATM    5  N   UNL     1      41.609 -14.769   0.764  1.00  0.00    -0.356 N 
HETATM    6  C   UNL     1      41.178 -13.479   0.551  1.00  0.00     0.041 A 
HETATM    7  C   UNL     1      41.363 -12.391   1.315  1.00  0.00     0.056 A 
HETATM    8  C   UNL     1      40.687 -11.271   0.647  1.00  0.00     0.251 A 
HETATM    9  O   UNL     1      40.673 -10.113   1.012  1.00  0.00    -0.268 OA
HETATM   10  N   UNL     1      40.088 -11.770  -0.480  1.00  0.00    -0.351 N 
HETATM   11  C   UNL     1      40.346 -13.159  -0.662  1.00  0.00     0.180 A 
HETATM   12  C   UNL     1      42.141 -12.182   2.561  1.00  0.00     0.134 C 
HETATM   13  N   UNL     1      43.234 -13.170   2.690  1.00  0.00    -0.278 NA
HETATM   14  C   UNL     1      41.899 -16.644   2.259  1.00  0.00     0.031 A 
HETATM   15  C   UNL     1      42.348 -17.223   3.449  1.00  0.00     0.002 A 
HETATM   16  H   UNL     1      41.189 -15.470   0.162  1.00  0.00     0.166 HD
HETATM   17  H   UNL     1      39.580 -11.167  -1.113  1.00  0.00     0.163 HD
HETATM   18  H   UNL     1      43.745 -13.172   1.807  1.00  0.00     0.128 HD
ENDROOT
BRANCH  12  19
HETATM   19  C   UNL     1      41.333 -12.066   3.849  1.00  0.00    -0.035 A 
HETATM   20  C   UNL     1      40.111 -12.736   4.041  1.00  0.00     0.012 A 
HETATM   21  C   UNL     1      39.404 -12.612   5.241  1.00  0.00     0.037 A 
HETATM   22  C   UNL     1      39.920 -11.823   6.262  1.00  0.00     0.065 A 
HETATM   23  C   UNL     1      41.132 -11.165   6.107  1.00  0.00     0.037 A 
HETATM   24  C   UNL     1      41.838 -11.289   4.909  1.00  0.00     0.012 A 
BRANCH  22  25
HETATM   25  O   UNL     1      39.262 -11.674   7.447  1.00  0.00    -0.361 OA
HETATM   26  H   UNL     1      39.254 -10.732   7.676  1.00  0.00     0.217 HD
ENDBRANCH  22  25
ENDBRANCH  12  19
TORSDOF 2
ENDMDL
MODEL 10
REMARK VINA RESULT:      -7.0      2.830      5.242
REMARK  2 active torsions:
REMARK  status: ('A' for Active; 'I' for Inactive)
REMARK    1  A    between atoms: C_12  and  C_13 
REMARK    2  A    between atoms: C_16  and  O_17 
ROOT
HETATM    1  C   UNL     1      42.850 -17.339   5.673  1.00  0.00     0.002 A 
HETATM    2  C   UNL     1      41.786 -16.438   5.649  1.00  0.00     0.026 A 
HETATM    3  C   UNL     1      41.935 -15.129   6.129  1.00  0.00     0.036 A 
HETATM    4  C   UNL     1      43.185 -14.712   6.643  1.00  0.00     0.053 A 
HETATM    5  N   UNL     1      43.445 -13.405   7.116  1.00  0.00    -0.356 N 
HETATM    6  C   UNL     1      42.857 -12.245   6.664  1.00  0.00     0.041 A 
HETATM    7  C   UNL     1      41.776 -12.098   5.881  1.00  0.00     0.056 A 
HETATM    8  C   UNL     1      41.579 -10.656   5.681  1.00  0.00     0.251 A 
HETATM    9  O   UNL     1      40.673 -10.128   5.068  1.00  0.00    -0.268 OA
HETATM   10  N   UNL     1      42.597 -10.010   6.333  1.00  0.00    -0.351 N 
HETATM   11  C   UNL     1      43.463 -10.912   7.014  1.00  0.00     0.180 A 
HETATM   12  C   UNL     1      40.820 -13.086   5.326  1.00  0.00     0.134 C 
HETATM   13  N   UNL     1      40.776 -14.317   6.142  1.00  0.00    -0.278 NA
HETATM   14  C   UNL     1      44.240 -15.643   6.675  1.00  0.00     0.031 A 
HETATM   15  C   UNL     1      44.076 -16.944   6.192  1.00  0.00     0.002 A 
HETATM   16  H   UNL     1      44.366 -13.290   7.529  1.00  0.00     0.166 HD
HETATM   17  H   UNL     1      42.650  -9.001   6.350  1.00  0.00     0.163 HD
HETATM   18  H   UNL     1      40.651 -14.032   7.113  1.00  0.00     0.128 HD
ENDROOT
BRANCH  12  19
HETATM   19  C   UNL     1      40.963 -13.400   3.839  1.00  0.00    -0.035 A 
HETATM   20  C   UNL     1      42.199 -13.351   3.170  1.00  0.00     0.012 A 
HETATM   21  C   UNL     1      42.290 -13.656   1.808  1.00  0.00     0.037 A 
HETATM   22  C   UNL     1      41.146 -14.022   1.109  1.00  0.00     0.065 A 
HETATM   23  C   UNL     1      39.917 -14.096   1.749  1.00  0.00     0.037 A 
HETATM   24  C   UNL     1      39.826 -13.791   3.108  1.00  0.00     0.012 A 
BRANCH  22  25
HETATM   25  O   UNL     1      41.192 -14.326  -0.220  1.00  0.00    -0.361 OA
HETATM   26  H   UNL     1      40.284 -14.455  -0.536  1.00  0.00     0.217 HD
ENDBRANCH  22  25
ENDBRANCH  12  19
TORSDOF 2
ENDMDL
