MODEL 1
REMARK VINA RESULT:      -9.3      0.000      0.000
REMARK  6 active torsions:
REMARK  status: ('A' for Active; 'I' for Inactive)
REMARK    1  A    between atoms: O_2  and  C_3 
REMARK    2  A    between atoms: C_6  and  C_7 
REMARK    3  A    between atoms: C_13  and  C_14 
REMARK       I    between atoms: C_14  and  N_15 
REMARK    4  A    between atoms: N_15  and  C_16 
REMARK    5  A    between atoms: C_18  and  O_19 
REMARK    6  A    between atoms: C_24  and  C_25 
ROOT
HETATM    1  C   UNL     1      41.399 -15.176   5.596  1.00  0.00     0.118 C 
HETATM    2  N   UNL     1      40.873 -14.521   4.382  1.00  0.00    -0.365 N 
HETATM    3  C   UNL     1      41.632 -13.570   3.758  1.00  0.00     0.138 A 
HETATM    4  N   UNL     1      42.771 -13.068   4.350  1.00  0.00    -0.240 N 
HETATM    5  N   UNL     1      43.436 -12.194   3.583  1.00  0.00    -0.181 NA
HETATM    6  C   UNL     1      42.653 -12.065   2.510  1.00  0.00     0.160 A 
HETATM    7  C   UNL     1      41.507 -12.898   2.554  1.00  0.00     0.096 A 
HETATM    8  C   UNL     1      43.236 -13.434   5.676  1.00  0.00     0.221 C 
HETATM    9  C   UNL     1      42.088 -14.106   6.457  1.00  0.00     0.066 C 
HETATM   10  H   UNL     1      39.867 -14.344   4.448  1.00  0.00     0.161 HD
ENDROOT
BRANCH   7  11
HETATM   11  C   UNL     1      40.485 -12.991   1.523  1.00  0.00     0.261 C 
HETATM   12  N   UNL     1      40.956 -13.449   0.307  1.00  0.00    -0.323 N 
HETATM   13  H   UNL     1      41.963 -13.559   0.248  1.00  0.00     0.169 HD
HETATM   14  O   UNL     1      39.328 -12.673   1.769  1.00  0.00    -0.267 OA
BRANCH  12  15
HETATM   15  C   UNL     1      40.211 -13.759  -0.848  1.00  0.00     0.037 A 
HETATM   16  C   UNL     1      39.541 -14.970  -1.042  1.00  0.00     0.066 A 
HETATM   17  C   UNL     1      38.849 -15.199  -2.231  1.00  0.00     0.067 A 
HETATM   18  C   UNL     1      38.816 -14.244  -3.238  1.00  0.00     0.036 A 
HETATM   19  C   UNL     1      39.479 -13.034  -3.053  1.00  0.00     0.005 A 
HETATM   20  C   UNL     1      40.170 -12.791  -1.862  1.00  0.00     0.029 A 
BRANCH  17  21
HETATM   21  O   UNL     1      38.182 -16.371  -2.446  1.00  0.00    -0.361 OA
HETATM   22  H   UNL     1      37.718 -16.615  -1.627  1.00  0.00     0.217 HD
ENDBRANCH  17  21
ENDBRANCH  12  15
ENDBRANCH   7  11
BRANCH   1  23
HETATM   23  C   UNL     1      42.309 -16.364   5.289  1.00  0.00    -0.035 A 
HETATM   24  C   UNL     1      42.879 -17.166   6.290  1.00  0.00     0.012 A 
HETATM   25  C   UNL     1      43.652 -18.285   5.965  1.00  0.00     0.037 A 
HETATM   26  C   UNL     1      43.870 -18.635   4.633  1.00  0.00     0.068 A 
HETATM   27  C   UNL     1      43.367 -17.817   3.625  1.00  0.00     0.037 A 
HETATM   28  C   UNL     1      42.602 -16.690   3.951  1.00  0.00     0.012 A 
BRANCH  26  29
HETATM   29  O   UNL     1      44.608 -19.767   4.437  1.00  0.00    -0.356 OA
HETATM   30  C   UNL     1      44.253 -20.881   5.250  1.00  0.00     0.210 C 
ENDBRANCH  26  29
ENDBRANCH   1  23
BRANCH   8  31
HETATM   31  C   UNL     1      43.739 -12.241   6.460  1.00  0.00     0.409 C 
HETATM   32  F   UNL     1      42.919 -11.171   6.356  1.00  0.00    -0.169 F 
HETATM   33  F   UNL     1      43.781 -12.561   7.785  1.00  0.00    -0.169 F 
HETATM   34  F   UNL     1      44.989 -11.858   6.131  1.00  0.00    -0.169 F 
ENDBRANCH   8  31
TORSDOF 6
ENDMDL
MODEL 2
REMARK VINA RESULT:      -8.9      4.014      7.170
REMARK  6 active torsions:
REMARK  status: ('A' for Active; 'I' for Inactive)
REMARK    1  A    between atoms: O_2  and  C_3 
REMARK    2  A    between atoms: C_6  and  C_7 
REMARK    3  A    between atoms: C_13  and  C_14 
REMARK       I    between atoms: C_14  and  N_15 
REMARK    4  A    between atoms: N_15  and  C_16 
REMARK    5  A    between atoms: C_18  and  O_19 
REMARK    6  A    between atoms: C_24  and  C_25 
ROOT
HETATM    1  C   UNL     1      43.450 -15.778   2.572  1.00  0.00     0.118 C 
HETATM    2  N   UNL     1      43.537 -14.872   3.735  1.00  0.00    -0.365 N 
HETATM    3  C   UNL     1      42.423 -14.665   4.501  1.00  0.00     0.138 A 
HETATM    4  N   UNL     1      41.185 -15.113   4.092  1.00  0.00    -0.240 N 
HETATM    5  N   UNL     1      40.210 -14.890   4.982  1.00  0.00    -0.181 NA
HETATM    6  C   UNL     1      40.823 -14.198   5.945  1.00  0.00     0.160 A 
HETATM    7  C   UNL     1      42.209 -14.023   5.709  1.00  0.00     0.096 A 
HETATM    8  C   UNL     1      40.930 -15.772   2.824  1.00  0.00     0.221 C 
HETATM    9  C   UNL     1      42.110 -15.520   1.864  1.00  0.00     0.066 C 
HETATM   10  H   UNL     1      44.128 -14.059   3.544  1.00  0.00     0.161 HD
ENDROOT
BRANCH   7  11
HETATM   11  C   UNL     1      43.140 -13.332   6.588  1.00  0.00     0.261 C 
HETATM   12  N   UNL     1      43.448 -12.049   6.179  1.00  0.00    -0.323 N 
HETATM   13  H   UNL     1      43.081 -11.785   5.271  1.00  0.00     0.169 HD
HETATM   14  O   UNL     1      43.580 -13.892   7.585  1.00  0.00    -0.267 OA
BRANCH  12  15
HETATM   15  C   UNL     1      44.218 -11.085   6.862  1.00  0.00     0.037 A 
HETATM   16  C   UNL     1      45.615 -11.043   6.838  1.00  0.00     0.066 A 
HETATM   17  C   UNL     1      46.293 -10.066   7.567  1.00  0.00     0.067 A 
HETATM   18  C   UNL     1      45.605  -9.131   8.327  1.00  0.00     0.036 A 
HETATM   19  C   UNL     1      44.213  -9.164   8.356  1.00  0.00     0.005 A 
HETATM   20  C   UNL     1      43.522 -10.134   7.623  1.00  0.00     0.029 A 
BRANCH  17  21
HETATM   21  O   UNL     1      47.657  -9.998   7.558  1.00  0.00    -0.361 OA
HETATM   22  H   UNL     1      47.929  -9.229   8.088  1.00  0.00     0.217 HD
ENDBRANCH  17  21
ENDBRANCH  12  15
ENDBRANCH   7  11
BRANCH   1  23
HETATM   23  C   UNL     1      43.651 -17.246   2.940  1.00  0.00    -0.035 A 
HETATM   24  C   UNL     1      44.202 -17.656   4.164  1.00  0.00     0.012 A 
HETATM   25  C   UNL     1      44.306 -19.012   4.489  1.00  0.00     0.037 A 
HETATM   26  C   UNL     1      43.859 -19.992   3.604  1.00  0.00     0.068 A 
HETATM   27  C   UNL     1      43.369 -19.609   2.359  1.00  0.00     0.037 A 
HETATM   28  C   UNL     1      43.274 -18.252   2.028  1.00  0.00     0.012 A 
BRANCH  26  29
HETATM   29  O   UNL     1      43.978 -21.280   4.044  1.00  0.00    -0.356 OA
HETATM   30  C   UNL     1      44.084 -21.439   5.455  1.00  0.00     0.210 C 
ENDBRANCH  26  29
ENDBRANCH   1  23
BRANCH   8  31
HETATM   31  C   UNL     1      39.649 -15.294   2.173  1.00  0.00     0.409 C 
HETATM   32  F   UNL     1      39.602 -15.583   0.852  1.00  0.00    -0.169 F 
HETATM   33  F   UNL     1      38.590 -15.938   2.740  1.00  0.00    -0.169 F 
HETATM   34  F   UNL     1      39.412 -13.978   2.334  1.00  0.00    -0.169 F 
ENDBRANCH   8  31
TORSDOF 6
ENDMDL
MODEL 3
REMARK VINA RESULT:      -8.8      3.921      7.188
REMARK  6 active torsions:
REMARK  status: ('A' for Active; 'I' for Inactive)
REMARK    1  A    between atoms: O_2  and  C_3 
REMARK    2  A    between atoms: C_6  and  C_7 
REMARK    3  A    between atoms: C_13  and  C_14 
REMARK       I    between atoms: C_14  and  N_15 
REMARK    4  A    between atoms: N_15  and  C_16 
REMARK    5  A    between atoms: C_18  and  O_19 
REMARK    6  A    between atoms: C_24  and  C_25 
ROOT
HETATM    1  C   UNL     1      43.426 -15.685   2.065  1.00  0.00     0.118 C 
HETATM    2  N   UNL     1      43.616 -14.396   2.761  1.00  0.00    -0.365 N 
HETATM    3  C   UNL     1      42.569 -13.852   3.452  1.00  0.00     0.138 A 
HETATM    4  N   UNL     1      41.297 -14.371   3.340  1.00  0.00    -0.240 N 
HETATM    5  N   UNL     1      40.398 -13.769   4.129  1.00  0.00    -0.181 NA
HETATM    6  C   UNL     1      41.095 -12.779   4.692  1.00  0.00     0.160 A 
HETATM    7  C   UNL     1      42.460 -12.774   4.313  1.00  0.00     0.096 A 
HETATM    8  C   UNL     1      40.934 -15.469   2.462  1.00  0.00     0.221 C 
HETATM    9  C   UNL     1      42.038 -15.671   1.405  1.00  0.00     0.066 C 
HETATM   10  H   UNL     1      44.201 -13.753   2.221  1.00  0.00     0.161 HD
ENDROOT
BRANCH   7  11
HETATM   11  C   UNL     1      43.467 -11.831   4.778  1.00  0.00     0.261 C 
HETATM   12  N   UNL     1      43.350 -11.501   6.114  1.00  0.00    -0.323 N 
HETATM   13  H   UNL     1      42.523 -11.864   6.577  1.00  0.00     0.169 HD
HETATM   14  O   UNL     1      44.315 -11.401   4.004  1.00  0.00    -0.267 OA
BRANCH  12  15
HETATM   15  C   UNL     1      44.225 -10.716   6.891  1.00  0.00     0.037 A 
HETATM   16  C   UNL     1      45.619 -10.802   6.823  1.00  0.00     0.066 A 
HETATM   17  C   UNL     1      46.405 -10.002   7.651  1.00  0.00     0.067 A 
HETATM   18  C   UNL     1      45.830  -9.120   8.554  1.00  0.00     0.036 A 
HETATM   19  C   UNL     1      44.443  -9.026   8.628  1.00  0.00     0.005 A 
HETATM   20  C   UNL     1      43.644  -9.817   7.798  1.00  0.00     0.029 A 
BRANCH  17  21
HETATM   21  O   UNL     1      47.769 -10.062   7.602  1.00  0.00    -0.361 OA
HETATM   22  H   UNL     1      48.093 -10.394   8.457  1.00  0.00     0.217 HD
ENDBRANCH  17  21
ENDBRANCH  12  15
ENDBRANCH   7  11
BRANCH   1  23
HETATM   23  C   UNL     1      43.635 -16.893   2.977  1.00  0.00    -0.035 A 
HETATM   24  C   UNL     1      43.583 -18.216   2.511  1.00  0.00     0.012 A 
HETATM   25  C   UNL     1      43.848 -19.291   3.365  1.00  0.00     0.037 A 
HETATM   26  C   UNL     1      44.177 -19.073   4.702  1.00  0.00     0.068 A 
HETATM   27  C   UNL     1      44.171 -17.773   5.199  1.00  0.00     0.037 A 
HETATM   28  C   UNL     1      43.895 -16.696   4.347  1.00  0.00     0.012 A 
BRANCH  26  29
HETATM   29  O   UNL     1      44.451 -20.196   5.430  1.00  0.00    -0.356 OA
HETATM   30  C   UNL     1      43.788 -21.382   5.004  1.00  0.00     0.210 C 
ENDBRANCH  26  29
ENDBRANCH   1  23
BRANCH   8  31
HETATM   31  C   UNL     1      39.612 -15.234   1.761  1.00  0.00     0.409 C 
HETATM   32  F   UNL     1      39.519 -13.990   1.238  1.00  0.00    -0.169 F 
HETATM   33  F   UNL     1      39.501 -16.097   0.712  1.00  0.00    -0.169 F 
HETATM   34  F   UNL     1      38.534 -15.455   2.539  1.00  0.00    -0.169 F 
ENDBRANCH   8  31
TORSDOF 6
ENDMDL
MODEL 4
REMARK VINA RESULT:      -8.8      3.921      7.216
REMARK  6 active torsions:
REMARK  status: ('A' for Active; 'I' for Inactive)
REMARK    1  A    between atoms: O_2  and  C_3 
REMARK    2  A    between atoms: C_6  and  C_7 
REMARK    3  A    between atoms: C_13  and  C_14 
REMARK       I    between atoms: C_14  and  N_15 
REMARK    4  A    between atoms: N_15  and  C_16 
REMARK    5  A    between atoms: C_18  and  O_19 
REMARK    6  A    between atoms: C_24  and  C_25 
ROOT
HETATM    1  C   UNL     1      43.467 -15.503   2.243  1.00  0.00     0.118 C 
HETATM    2  N   UNL     1      43.589 -14.217   2.960  1.00  0.00    -0.365 N 
HETATM    3  C   UNL     1      42.501 -13.716   3.618  1.00  0.00     0.138 A 
HETATM    4  N   UNL     1      41.251 -14.275   3.454  1.00  0.00    -0.240 N 
HETATM    5  N   UNL     1      40.305 -13.712   4.216  1.00  0.00    -0.181 NA
HETATM    6  C   UNL     1      40.947 -12.707   4.815  1.00  0.00     0.160 A 
HETATM    7  C   UNL     1      42.325 -12.653   4.487  1.00  0.00     0.096 A 
HETATM    8  C   UNL     1      40.956 -15.373   2.551  1.00  0.00     0.221 C 
HETATM    9  C   UNL     1      42.105 -15.526   1.533  1.00  0.00     0.066 C 
HETATM   10  H   UNL     1      44.172 -13.549   2.449  1.00  0.00     0.161 HD
ENDROOT
BRANCH   7  11
HETATM   11  C   UNL     1      43.282 -11.684   4.999  1.00  0.00     0.261 C 
HETATM   12  N   UNL     1      43.100 -11.368   6.331  1.00  0.00    -0.323 N 
HETATM   13  H   UNL     1      42.266 -11.759   6.757  1.00  0.00     0.169 HD
HETATM   14  O   UNL     1      44.148 -11.222   4.264  1.00  0.00    -0.267 OA
BRANCH  12  15
HETATM   15  C   UNL     1      43.918 -10.563   7.149  1.00  0.00     0.037 A 
HETATM   16  C   UNL     1      43.563  -9.284   7.588  1.00  0.00     0.066 A 
HETATM   17  C   UNL     1      44.450  -8.549   8.374  1.00  0.00     0.067 A 
HETATM   18  C   UNL     1      45.690  -9.062   8.729  1.00  0.00     0.036 A 
HETATM   19  C   UNL     1      46.050 -10.336   8.299  1.00  0.00     0.005 A 
HETATM   20  C   UNL     1      45.167 -11.085   7.516  1.00  0.00     0.029 A 
BRANCH  17  21
HETATM   21  O   UNL     1      44.129  -7.299   8.820  1.00  0.00    -0.361 OA
HETATM   22  H   UNL     1      44.422  -6.651   8.157  1.00  0.00     0.217 HD
ENDBRANCH  17  21
ENDBRANCH  12  15
ENDBRANCH   7  11
BRANCH   1  23
HETATM   23  C   UNL     1      43.683 -16.715   3.148  1.00  0.00    -0.035 A 
HETATM   24  C   UNL     1      43.881 -16.606   4.533  1.00  0.00     0.012 A 
HETATM   25  C   UNL     1      44.007 -17.744   5.335  1.00  0.00     0.037 A 
HETATM   26  C   UNL     1      43.933 -19.019   4.776  1.00  0.00     0.068 A 
HETATM   27  C   UNL     1      43.802 -19.148   3.396  1.00  0.00     0.037 A 
HETATM   28  C   UNL     1      43.686 -18.008   2.591  1.00  0.00     0.012 A 
BRANCH  26  29
HETATM   29  O   UNL     1      44.033 -20.055   5.660  1.00  0.00    -0.356 OA
HETATM   30  C   UNL     1      43.896 -21.357   5.099  1.00  0.00     0.210 C 
ENDBRANCH  26  29
ENDBRANCH   1  23
BRANCH   8  31
HETATM   31  C   UNL     1      39.654 -15.172   1.804  1.00  0.00     0.409 C 
HETATM   32  F   UNL     1      39.566 -13.946   1.239  1.00  0.00    -0.169 F 
HETATM   33  F   UNL     1      39.582 -16.069   0.780  1.00  0.00    -0.169 F 
HETATM   34  F   UNL     1      38.555 -15.379   2.556  1.00  0.00    -0.169 F 
ENDBRANCH   8  31
TORSDOF 6
ENDMDL
MODEL 5
REMARK VINA RESULT:      -8.4      3.889      7.788
REMARK  6 active torsions:
REMARK  status: ('A' for Active; 'I' for Inactive)
REMARK    1  A    between atoms: O_2  and  C_3 
REMARK    2  A    between atoms: C_6  and  C_7 
REMARK    3  A    between atoms: C_13  and  C_14 
REMARK       I    between atoms: C_14  and  N_15 
REMARK    4  A    between atoms: N_15  and  C_16 
REMARK    5  A    between atoms: C_18  and  O_19 
REMARK    6  A    between atoms: C_24  and  C_25 
ROOT
HETATM    1  C   UNL     1      43.280 -14.031   2.473  1.00  0.00     0.118 C 
HETATM    2  N   UNL     1      43.496 -13.278   3.725  1.00  0.00    -0.365 N 
HETATM    3  C   UNL     1      42.425 -13.002   4.529  1.00  0.00     0.138 A 
HETATM    4  N   UNL     1      41.135 -13.226   4.096  1.00  0.00    -0.240 N 
HETATM    5  N   UNL     1      40.204 -12.967   5.023  1.00  0.00    -0.181 NA
HETATM    6  C   UNL     1      40.910 -12.476   6.043  1.00  0.00     0.160 A 
HETATM    7  C   UNL     1      42.307 -12.471   5.802  1.00  0.00     0.096 A 
HETATM    8  C   UNL     1      40.786 -13.702   2.770  1.00  0.00     0.221 C 
HETATM    9  C   UNL     1      41.988 -13.514   1.822  1.00  0.00     0.066 C 
HETATM   10  H   UNL     1      44.195 -12.539   3.611  1.00  0.00     0.161 HD
ENDROOT
BRANCH   7  11
HETATM   11  C   UNL     1      43.328 -12.016   6.733  1.00  0.00     0.261 C 
HETATM   12  N   UNL     1      42.940 -10.938   7.506  1.00  0.00    -0.323 N 
HETATM   13  H   UNL     1      42.045 -10.530   7.259  1.00  0.00     0.169 HD
HETATM   14  O   UNL     1      44.417 -12.576   6.778  1.00  0.00    -0.267 OA
BRANCH  12  15
HETATM   15  C   UNL     1      43.643 -10.340   8.571  1.00  0.00     0.037 A 
HETATM   16  C   UNL     1      43.124 -10.187   9.860  1.00  0.00     0.066 A 
HETATM   17  C   UNL     1      43.885  -9.557  10.845  1.00  0.00     0.067 A 
HETATM   18  C   UNL     1      45.154  -9.070  10.569  1.00  0.00     0.036 A 
HETATM   19  C   UNL     1      45.680  -9.219   9.289  1.00  0.00     0.005 A 
HETATM   20  C   UNL     1      44.930  -9.855   8.295  1.00  0.00     0.029 A 
BRANCH  17  21
HETATM   21  O   UNL     1      43.405  -9.398  12.113  1.00  0.00    -0.361 OA
HETATM   22  H   UNL     1      42.469  -9.139  12.058  1.00  0.00     0.217 HD
ENDBRANCH  17  21
ENDBRANCH  12  15
ENDBRANCH   7  11
BRANCH   1  23
HETATM   23  C   UNL     1      43.274 -15.545   2.679  1.00  0.00    -0.035 A 
HETATM   24  C   UNL     1      43.089 -16.455   1.627  1.00  0.00     0.012 A 
HETATM   25  C   UNL     1      43.159 -17.834   1.847  1.00  0.00     0.037 A 
HETATM   26  C   UNL     1      43.419 -18.339   3.120  1.00  0.00     0.068 A 
HETATM   27  C   UNL     1      43.542 -17.455   4.189  1.00  0.00     0.037 A 
HETATM   28  C   UNL     1      43.462 -16.074   3.970  1.00  0.00     0.012 A 
BRANCH  26  29
HETATM   29  O   UNL     1      43.500 -19.699   3.208  1.00  0.00    -0.356 OA
HETATM   30  C   UNL     1      43.539 -20.394   1.965  1.00  0.00     0.210 C 
ENDBRANCH  26  29
ENDBRANCH   1  23
BRANCH   8  31
HETATM   31  C   UNL     1      39.584 -12.983   2.197  1.00  0.00     0.409 C 
HETATM   32  F   UNL     1      38.434 -13.316   2.826  1.00  0.00    -0.169 F 
HETATM   33  F   UNL     1      39.738 -11.640   2.373  1.00  0.00    -0.169 F 
HETATM   34  F   UNL     1      39.417 -13.166   0.872  1.00  0.00    -0.169 F 
ENDBRANCH   8  31
TORSDOF 6
ENDMDL
MODEL 6
REMARK VINA RESULT:      -8.0      3.271      7.113
REMARK  6 active torsions:
REMARK  status: ('A' for Active; 'I' for Inactive)
REMARK    1  A    between atoms: O_2  and  C_3 
REMARK    2  A    between atoms: C_6  and  C_7 
REMARK    3  A    between atoms: C_13  and  C_14 
REMARK       I    between atoms: C_14  and  N_15 
REMARK    4  A    between atoms: N_15  and  C_16 
REMARK    5  A    between atoms: C_18  and  O_19 
REMARK    6  A    between atoms: C_24  and  C_25 
ROOT
HETATM    1  C   UNL     1      43.348 -12.067   3.417  1.00  0.00     0.118 C 
HETATM    2  N   UNL     1      43.234 -13.512   3.696  1.00  0.00    -0.365 N 
HETATM    3  C   UNL     1      43.106 -13.932   4.991  1.00  0.00     0.138 A 
HETATM    4  N   UNL     1      43.291 -13.059   6.042  1.00  0.00    -0.240 N 
HETATM    5  N   UNL     1      43.066 -13.608   7.243  1.00  0.00    -0.181 NA
HETATM    6  C   UNL     1      42.822 -14.889   6.958  1.00  0.00     0.160 A 
HETATM    7  C   UNL     1      42.830 -15.160   5.567  1.00  0.00     0.096 A 
HETATM    8  C   UNL     1      43.686 -11.670   5.896  1.00  0.00     0.221 C 
HETATM    9  C   UNL     1      44.264 -11.445   4.483  1.00  0.00     0.066 C 
HETATM   10  H   UNL     1      43.837 -14.068   3.084  1.00  0.00     0.161 HD
ENDROOT
BRANCH   7  11
HETATM   11  C   UNL     1      42.578 -16.455   4.953  1.00  0.00     0.261 C 
HETATM   12  N   UNL     1      43.711 -17.229   4.794  1.00  0.00    -0.323 N 
HETATM   13  H   UNL     1      44.585 -16.766   5.019  1.00  0.00     0.169 HD
HETATM   14  O   UNL     1      41.441 -16.772   4.624  1.00  0.00    -0.267 OA
BRANCH  12  15
HETATM   15  C   UNL     1      43.791 -18.563   4.345  1.00  0.00     0.037 A 
HETATM   16  C   UNL     1      43.680 -18.942   3.004  1.00  0.00     0.066 A 
HETATM   17  C   UNL     1      43.746 -20.291   2.656  1.00  0.00     0.067 A 
HETATM   18  C   UNL     1      43.915 -21.273   3.620  1.00  0.00     0.036 A 
HETATM   19  C   UNL     1      44.029 -20.905   4.958  1.00  0.00     0.005 A 
HETATM   20  C   UNL     1      43.971 -19.556   5.319  1.00  0.00     0.029 A 
BRANCH  17  21
HETATM   21  O   UNL     1      43.645 -20.690   1.354  1.00  0.00    -0.361 OA
HETATM   22  H   UNL     1      43.377 -21.625   1.338  1.00  0.00     0.217 HD
ENDBRANCH  17  21
ENDBRANCH  12  15
ENDBRANCH   7  11
BRANCH   1  23
HETATM   23  C   UNL     1      41.994 -11.367   3.319  1.00  0.00    -0.035 A 
HETATM   24  C   UNL     1      40.835 -12.012   2.860  1.00  0.00     0.012 A 
HETATM   25  C   UNL     1      39.601 -11.355   2.851  1.00  0.00     0.037 A 
HETATM   26  C   UNL     1      39.491 -10.042   3.303  1.00  0.00     0.068 A 
HETATM   27  C   UNL     1      40.639  -9.363   3.702  1.00  0.00     0.037 A 
HETATM   28  C   UNL     1      41.877 -10.017   3.701  1.00  0.00     0.012 A 
BRANCH  26  29
HETATM   29  O   UNL     1      38.230  -9.516   3.281  1.00  0.00    -0.356 OA
HETATM   30  C   UNL     1      37.736  -9.158   1.994  1.00  0.00     0.210 C 
ENDBRANCH  26  29
ENDBRANCH   1  23
BRANCH   8  31
HETATM   31  C   UNL     1      44.714 -11.251   6.925  1.00  0.00     0.409 C 
HETATM   32  F   UNL     1      45.854 -11.974   6.841  1.00  0.00    -0.169 F 
HETATM   33  F   UNL     1      45.069  -9.954   6.702  1.00  0.00    -0.169 F 
HETATM   34  F   UNL     1      44.267 -11.300   8.195  1.00  0.00    -0.169 F 
ENDBRANCH   8  31
TORSDOF 6
ENDMDL
MODEL 7
REMARK VINA RESULT:      -8.0      3.548      6.717
REMARK  6 active torsions:
REMARK  status: ('A' for Active; 'I' for Inactive)
REMARK    1  A    between atoms: O_2  and  C_3 
REMARK    2  A    between atoms: C_6  and  C_7 
REMARK    3  A    between atoms: C_13  and  C_14 
REMARK       I    between atoms: C_14  and  N_15 
REMARK    4  A    between atoms: N_15  and  C_16 
REMARK    5  A    between atoms: C_18  and  O_19 
REMARK    6  A    between atoms: C_24  and  C_25 
ROOT
HETATM    1  C   UNL     1      40.563 -11.868   5.773  1.00  0.00     0.118 C 
HETATM    2  N   UNL     1      40.705 -13.193   5.136  1.00  0.00    -0.365 N 
HETATM    3  C   UNL     1      41.119 -13.264   3.835  1.00  0.00     0.138 A 
HETATM    4  N   UNL     1      41.203 -12.133   3.053  1.00  0.00    -0.240 N 
HETATM    5  N   UNL     1      41.687 -12.362   1.825  1.00  0.00    -0.181 NA
HETATM    6  C   UNL     1      41.828 -13.689   1.791  1.00  0.00     0.160 A 
HETATM    7  C   UNL     1      41.492 -14.316   3.016  1.00  0.00     0.096 A 
HETATM    8  C   UNL     1      40.817 -10.803   3.489  1.00  0.00     0.221 C 
HETATM    9  C   UNL     1      39.934 -10.910   4.749  1.00  0.00     0.066 C 
HETATM   10  H   UNL     1      39.964 -13.837   5.425  1.00  0.00     0.161 HD
ENDROOT
BRANCH   7  11
HETATM   11  C   UNL     1      41.565 -15.744   3.287  1.00  0.00     0.261 C 
HETATM   12  N   UNL     1      42.779 -16.314   2.956  1.00  0.00    -0.323 N 
HETATM   13  H   UNL     1      43.425 -15.703   2.470  1.00  0.00     0.169 HD
HETATM   14  O   UNL     1      40.601 -16.333   3.763  1.00  0.00    -0.267 OA
BRANCH  12  15
HETATM   15  C   UNL     1      43.208 -17.635   3.199  1.00  0.00     0.037 A 
HETATM   16  C   UNL     1      43.177 -18.653   2.241  1.00  0.00     0.066 A 
HETATM   17  C   UNL     1      43.599 -19.938   2.581  1.00  0.00     0.067 A 
HETATM   18  C   UNL     1      44.048 -20.232   3.860  1.00  0.00     0.036 A 
HETATM   19  C   UNL     1      44.085 -19.224   4.819  1.00  0.00     0.005 A 
HETATM   20  C   UNL     1      43.671 -17.930   4.489  1.00  0.00     0.029 A 
BRANCH  17  21
HETATM   21  O   UNL     1      43.582 -20.952   1.665  1.00  0.00    -0.361 OA
HETATM   22  H   UNL     1      44.054 -21.714   2.042  1.00  0.00     0.217 HD
ENDBRANCH  17  21
ENDBRANCH  12  15
ENDBRANCH   7  11
BRANCH   1  23
HETATM   23  C   UNL     1      41.874 -11.338   6.351  1.00  0.00    -0.035 A 
HETATM   24  C   UNL     1      42.009 -10.041   6.868  1.00  0.00     0.012 A 
HETATM   25  C   UNL     1      43.208  -9.618   7.450  1.00  0.00     0.037 A 
HETATM   26  C   UNL     1      44.300 -10.480   7.535  1.00  0.00     0.068 A 
HETATM   27  C   UNL     1      44.207 -11.750   6.971  1.00  0.00     0.037 A 
HETATM   28  C   UNL     1      43.010 -12.170   6.379  1.00  0.00     0.012 A 
BRANCH  26  29
HETATM   29  O   UNL     1      45.405  -9.971   8.156  1.00  0.00    -0.356 OA
HETATM   30  C   UNL     1      45.282  -8.632   8.627  1.00  0.00     0.210 C 
ENDBRANCH  26  29
ENDBRANCH   1  23
BRANCH   8  31
HETATM   31  C   UNL     1      40.066 -10.040   2.419  1.00  0.00     0.409 C 
HETATM   32  F   UNL     1      40.889  -9.525   1.477  1.00  0.00    -0.169 F 
HETATM   33  F   UNL     1      39.227 -10.893   1.765  1.00  0.00    -0.169 F 
HETATM   34  F   UNL     1      39.288  -9.049   2.898  1.00  0.00    -0.169 F 
ENDBRANCH   8  31
TORSDOF 6
ENDMDL
MODEL 8
REMARK VINA RESULT:      -8.0      4.205      7.959
REMARK  6 active torsions:
REMARK  status: ('A' for Active; 'I' for Inactive)
REMARK    1  A    between atoms: O_2  and  C_3 
REMARK    2  A    between atoms: C_6  and  C_7 
REMARK    3  A    between atoms: C_13  and  C_14 
REMARK       I    between atoms: C_14  and  N_15 
REMARK    4  A    between atoms: N_15  and  C_16 
REMARK    5  A    between atoms: C_18  and  O_19 
REMARK    6  A    between atoms: C_24  and  C_25 
ROOT
HETATM    1  C   UNL     1      38.294 -12.080   2.915  1.00  0.00     0.118 C 
HETATM    2  N   UNL     1      38.990 -13.382   2.922  1.00  0.00    -0.365 N 
HETATM    3  C   UNL     1      39.751 -13.736   1.843  1.00  0.00     0.138 A 
HETATM    4  N   UNL     1      39.713 -13.003   0.676  1.00  0.00    -0.240 N 
HETATM    5  N   UNL     1      40.564 -13.439  -0.262  1.00  0.00    -0.181 NA
HETATM    6  C   UNL     1      41.093 -14.535   0.286  1.00  0.00     0.160 A 
HETATM    7  C   UNL     1      40.629 -14.778   1.603  1.00  0.00     0.096 A 
HETATM    8  C   UNL     1      38.848 -11.858   0.454  1.00  0.00     0.221 C 
HETATM    9  C   UNL     1      37.722 -11.851   1.508  1.00  0.00     0.066 C 
HETATM   10  H   UNL     1      38.421 -14.117   3.351  1.00  0.00     0.161 HD
ENDROOT
BRANCH   7  11
HETATM   11  C   UNL     1      41.041 -15.882   2.458  1.00  0.00     0.261 C 
HETATM   12  N   UNL     1      42.194 -16.515   2.038  1.00  0.00    -0.323 N 
HETATM   13  H   UNL     1      42.550 -16.211   1.138  1.00  0.00     0.169 HD
HETATM   14  O   UNL     1      40.379 -16.178   3.446  1.00  0.00    -0.267 OA
BRANCH  12  15
HETATM   15  C   UNL     1      42.913 -17.531   2.698  1.00  0.00     0.037 A 
HETATM   16  C   UNL     1      43.039 -18.837   2.216  1.00  0.00     0.066 A 
HETATM   17  C   UNL     1      43.749 -19.785   2.953  1.00  0.00     0.067 A 
HETATM   18  C   UNL     1      44.332 -19.458   4.168  1.00  0.00     0.036 A 
HETATM   19  C   UNL     1      44.214 -18.160   4.656  1.00  0.00     0.005 A 
HETATM   20  C   UNL     1      43.511 -17.200   3.923  1.00  0.00     0.029 A 
BRANCH  17  21
HETATM   21  O   UNL     1      43.891 -21.067   2.504  1.00  0.00    -0.361 OA
HETATM   22  H   UNL     1      43.984 -21.654   3.273  1.00  0.00     0.217 HD
ENDBRANCH  17  21
ENDBRANCH  12  15
ENDBRANCH   7  11
BRANCH   1  23
HETATM   23  C   UNL     1      39.176 -10.927   3.390  1.00  0.00    -0.035 A 
HETATM   24  C   UNL     1      40.480 -11.115   3.875  1.00  0.00     0.012 A 
HETATM   25  C   UNL     1      41.279 -10.026   4.235  1.00  0.00     0.037 A 
HETATM   26  C   UNL     1      40.800  -8.722   4.115  1.00  0.00     0.068 A 
HETATM   27  C   UNL     1      39.488  -8.517   3.697  1.00  0.00     0.037 A 
HETATM   28  C   UNL     1      38.683  -9.608   3.347  1.00  0.00     0.012 A 
BRANCH  26  29
HETATM   29  O   UNL     1      41.681  -7.738   4.462  1.00  0.00    -0.356 OA
HETATM   30  C   UNL     1      41.228  -6.405   4.248  1.00  0.00     0.210 C 
ENDBRANCH  26  29
ENDBRANCH   1  23
BRANCH   8  31
HETATM   31  C   UNL     1      38.234 -11.859  -0.930  1.00  0.00     0.409 C 
HETATM   32  F   UNL     1      37.838 -13.093  -1.318  1.00  0.00    -0.169 F 
HETATM   33  F   UNL     1      37.112 -11.085  -0.923  1.00  0.00    -0.169 F 
HETATM   34  F   UNL     1      39.035 -11.345  -1.884  1.00  0.00    -0.169 F 
ENDBRANCH   8  31
TORSDOF 6
ENDMDL
MODEL 9
REMARK VINA RESULT:      -7.9      4.144      8.023
REMARK  6 active torsions:
REMARK  status: ('A' for Active; 'I' for Inactive)
REMARK    1  A    between atoms: O_2  and  C_3 
REMARK    2  A    between atoms: C_6  and  C_7 
REMARK    3  A    between atoms: C_13  and  C_14 
REMARK       I    between atoms: C_14  and  N_15 
REMARK    4  A    between atoms: N_15  and  C_16 
REMARK    5  A    between atoms: C_18  and  O_19 
REMARK    6  A    between atoms: C_24  and  C_25 
ROOT
HETATM    1  C   UNL     1      39.519 -14.536   2.504  1.00  0.00     0.118 C 
HETATM    2  N   UNL     1      39.380 -13.729   3.733  1.00  0.00    -0.365 N 
HETATM    3  C   UNL     1      40.466 -13.563   4.546  1.00  0.00     0.138 A 
HETATM    4  N   UNL     1      41.617 -14.296   4.353  1.00  0.00    -0.240 N 
HETATM    5  N   UNL     1      42.611 -13.970   5.190  1.00  0.00    -0.181 NA
HETATM    6  C   UNL     1      42.050 -13.069   5.999  1.00  0.00     0.160 A 
HETATM    7  C   UNL     1      40.709 -12.767   5.652  1.00  0.00     0.096 A 
HETATM    8  C   UNL     1      41.773 -15.329   3.344  1.00  0.00     0.221 C 
HETATM    9  C   UNL     1      40.384 -15.763   2.833  1.00  0.00     0.066 C 
HETATM   10  H   UNL     1      38.476 -13.880   4.188  1.00  0.00     0.161 HD
ENDROOT
BRANCH   7  11
HETATM   11  C   UNL     1      39.850 -11.811   6.334  1.00  0.00     0.261 C 
HETATM   12  N   UNL     1      40.537 -10.798   6.974  1.00  0.00    -0.323 N 
HETATM   13  H   UNL     1      41.546 -10.900   6.984  1.00  0.00     0.169 HD
HETATM   14  O   UNL     1      38.632 -11.949   6.311  1.00  0.00    -0.267 OA
BRANCH  12  15
HETATM   15  C   UNL     1      40.004  -9.664   7.619  1.00  0.00     0.037 A 
HETATM   16  C   UNL     1      39.507  -9.672   8.925  1.00  0.00     0.066 A 
HETATM   17  C   UNL     1      38.973  -8.505   9.473  1.00  0.00     0.067 A 
HETATM   18  C   UNL     1      38.918  -7.328   8.740  1.00  0.00     0.036 A 
HETATM   19  C   UNL     1      39.413  -7.310   7.439  1.00  0.00     0.005 A 
HETATM   20  C   UNL     1      39.957  -8.471   6.882  1.00  0.00     0.029 A 
BRANCH  17  21
HETATM   21  O   UNL     1      38.484  -8.483  10.748  1.00  0.00    -0.361 OA
HETATM   22  H   UNL     1      37.701  -9.059  10.787  1.00  0.00     0.217 HD
ENDBRANCH  17  21
ENDBRANCH  12  15
ENDBRANCH   7  11
BRANCH   1  23
HETATM   23  C   UNL     1      40.055 -13.735   1.319  1.00  0.00    -0.035 A 
HETATM   24  C   UNL     1      40.164 -14.267   0.025  1.00  0.00     0.012 A 
HETATM   25  C   UNL     1      40.596 -13.479  -1.045  1.00  0.00     0.037 A 
HETATM   26  C   UNL     1      40.926 -12.138  -0.853  1.00  0.00     0.068 A 
HETATM   27  C   UNL     1      40.887 -11.608   0.434  1.00  0.00     0.037 A 
HETATM   28  C   UNL     1      40.464 -12.400   1.508  1.00  0.00     0.012 A 
BRANCH  26  29
HETATM   29  O   UNL     1      41.300 -11.458  -1.977  1.00  0.00    -0.356 OA
HETATM   30  C   UNL     1      40.997 -12.099  -3.212  1.00  0.00     0.210 C 
ENDBRANCH  26  29
ENDBRANCH   1  23
BRANCH   8  31
HETATM   31  C   UNL     1      42.510 -16.542   3.870  1.00  0.00     0.409 C 
HETATM   32  F   UNL     1      42.408 -17.607   3.042  1.00  0.00    -0.169 F 
HETATM   33  F   UNL     1      43.840 -16.256   3.958  1.00  0.00    -0.169 F 
HETATM   34  F   UNL     1      42.130 -16.920   5.106  1.00  0.00    -0.169 F 
ENDBRANCH   8  31
TORSDOF 6
ENDMDL
MODEL 10
REMARK VINA RESULT:      -7.9      4.315      6.932
REMARK  6 active torsions:
REMARK  status: ('A' for Active; 'I' for Inactive)
REMARK    1  A    between atoms: O_2  and  C_3 
REMARK    2  A    between atoms: C_6  and  C_7 
REMARK    3  A    between atoms: C_13  and  C_14 
REMARK       I    between atoms: C_14  and  N_15 
REMARK    4  A    between atoms: N_15  and  C_16 
REMARK    5  A    between atoms: C_18  and  O_19 
REMARK    6  A    between atoms: C_24  and  C_25 
ROOT
HETATM    1  C   UNL     1      42.208  -8.654   7.566  1.00  0.00     0.118 C 
HETATM    2  N   UNL     1      41.932  -9.701   6.562  1.00  0.00    -0.365 N 
HETATM    3  C   UNL     1      42.595 -10.894   6.644  1.00  0.00     0.138 A 
HETATM    4  N   UNL     1      43.655 -11.059   7.510  1.00  0.00    -0.240 N 
HETATM    5  N   UNL     1      44.154 -12.302   7.519  1.00  0.00    -0.181 NA
HETATM    6  C   UNL     1      43.455 -12.923   6.567  1.00  0.00     0.160 A 
HETATM    7  C   UNL     1      42.462 -12.100   5.979  1.00  0.00     0.096 A 
HETATM    8  C   UNL     1      44.200 -10.008   8.349  1.00  0.00     0.221 C 
HETATM    9  C   UNL     1      43.721  -8.635   7.834  1.00  0.00     0.066 C 
HETATM   10  H   UNL     1      41.797  -9.307   5.627  1.00  0.00     0.161 HD
ENDROOT
BRANCH   7  11
HETATM   11  C   UNL     1      41.534 -12.505   4.934  1.00  0.00     0.261 C 
HETATM   12  N   UNL     1      42.080 -13.371   4.006  1.00  0.00    -0.323 N 
HETATM   13  H   UNL     1      43.076 -13.533   4.101  1.00  0.00     0.169 HD
HETATM   14  O   UNL     1      40.386 -12.077   4.928  1.00  0.00    -0.267 OA
BRANCH  12  15
HETATM   15  C   UNL     1      41.422 -14.032   2.949  1.00  0.00     0.037 A 
HETATM   16  C   UNL     1      41.530 -13.656   1.607  1.00  0.00     0.066 A 
HETATM   17  C   UNL     1      40.821 -14.355   0.631  1.00  0.00     0.067 A 
HETATM   18  C   UNL     1      39.998 -15.421   0.967  1.00  0.00     0.036 A 
HETATM   19  C   UNL     1      39.886 -15.804   2.300  1.00  0.00     0.005 A 
HETATM   20  C   UNL     1      40.598 -15.116   3.287  1.00  0.00     0.029 A 
BRANCH  17  21
HETATM   21  O   UNL     1      40.910 -14.013  -0.688  1.00  0.00    -0.361 OA
HETATM   22  H   UNL     1      40.036 -14.134  -1.097  1.00  0.00     0.217 HD
ENDBRANCH  17  21
ENDBRANCH  12  15
ENDBRANCH   7  11
BRANCH   1  23
HETATM   23  C   UNL     1      41.384  -8.817   8.842  1.00  0.00    -0.035 A 
HETATM   24  C   UNL     1      40.109  -9.405   8.856  1.00  0.00     0.012 A 
HETATM   25  C   UNL     1      39.417  -9.597  10.056  1.00  0.00     0.037 A 
HETATM   26  C   UNL     1      39.981  -9.212  11.271  1.00  0.00     0.068 A 
HETATM   27  C   UNL     1      41.216  -8.570  11.273  1.00  0.00     0.037 A 
HETATM   28  C   UNL     1      41.905  -8.368  10.071  1.00  0.00     0.012 A 
BRANCH  26  29
HETATM   29  O   UNL     1      39.229  -9.482  12.379  1.00  0.00    -0.356 OA
HETATM   30  C   UNL     1      39.607 -10.645  13.109  1.00  0.00     0.210 C 
ENDBRANCH  26  29
ENDBRANCH   1  23
BRANCH   8  31
HETATM   31  C   UNL     1      45.714 -10.024   8.385  1.00  0.00     0.409 C 
HETATM   32  F   UNL     1      46.241  -8.785   8.517  1.00  0.00    -0.169 F 
HETATM   33  F   UNL     1      46.130 -10.732   9.473  1.00  0.00    -0.169 F 
HETATM   34  F   UNL     1      46.279 -10.620   7.317  1.00  0.00    -0.169 F 
ENDBRANCH   8  31
TORSDOF 6
ENDMDL
