MODEL 1
REMARK VINA RESULT:      -8.5      0.000      0.000
REMARK  8 active torsions:
REMARK  status: ('A' for Active; 'I' for Inactive)
REMARK    1  A    between atoms: C_2  and  N_3 
REMARK    2  A    between atoms: C_9  and  C_10 
REMARK    3  A    between atoms: C_16  and  C_17 
REMARK       I    between atoms: C_17  and  N_18 
REMARK    4  A    between atoms: N_18  and  C_19 
REMARK    5  A    between atoms: C_19  and  C_20 
REMARK    6  A    between atoms: C_20  and  C_21 
REMARK    7  A    between atoms: C_23  and  O_24 
REMARK    8  A    between atoms: C_25  and  O_26 
ROOT
HETATM    1  N   UNL     1      39.870 -13.714   0.501  1.00  0.00    -0.248 N 
HETATM    2  N   UNL     1      40.138 -15.023   0.274  1.00  0.00    -0.182 NA
HETATM    3  C   UNL     1      40.445 -15.496   1.487  1.00  0.00     0.155 A 
HETATM    4  C   UNL     1      40.339 -14.521   2.501  1.00  0.00     0.046 A 
HETATM    5  C   UNL     1      39.977 -13.365   1.824  1.00  0.00     0.159 A 
HETATM    6  N   UNL     1      39.785 -12.142   2.355  1.00  0.00    -0.228 NA
HETATM    7  C   UNL     1      39.981 -12.072   3.695  1.00  0.00     0.077 A 
HETATM    8  C   UNL     1      40.356 -13.156   4.480  1.00  0.00     0.051 A 
HETATM    9  C   UNL     1      40.527 -14.413   3.884  1.00  0.00     0.049 A 
ENDROOT
BRANCH   9  10
HETATM   10  C   UNL     1      40.948 -15.540   4.736  1.00  0.00     0.252 C 
HETATM   11  N   UNL     1      42.175 -15.436   5.362  1.00  0.00    -0.357 N 
HETATM   12  H   UNL     1      42.818 -14.729   5.028  1.00  0.00     0.162 HD
HETATM   13  O   UNL     1      40.228 -16.529   4.809  1.00  0.00    -0.268 OA
BRANCH  11  14
HETATM   14  C   UNL     1      42.746 -16.607   6.008  1.00  0.00     0.127 C 
BRANCH  14  15
HETATM   15  C   UNL     1      44.089 -17.014   5.406  1.00  0.00     0.058 C 
BRANCH  15  16
HETATM   16  C   UNL     1      43.896 -18.027   4.302  1.00  0.00    -0.054 A 
HETATM   17  C   UNL     1      44.183 -19.384   4.529  1.00  0.00     0.046 A 
HETATM   18  C   UNL     1      43.937 -20.315   3.526  1.00  0.00     0.099 A 
HETATM   19  C   UNL     1      43.411 -19.911   2.303  1.00  0.00     0.098 A 
HETATM   20  C   UNL     1      43.124 -18.576   2.060  1.00  0.00     0.040 A 
HETATM   21  C   UNL     1      43.364 -17.633   3.062  1.00  0.00     0.010 A 
BRANCH  18  22
HETATM   22  O   UNL     1      44.186 -21.649   3.700  1.00  0.00    -0.358 OA
HETATM   23  H   UNL     1      45.083 -21.743   4.064  1.00  0.00     0.218 HD
ENDBRANCH  18  22
BRANCH  19  24
HETATM   24  O   UNL     1      43.161 -20.835   1.329  1.00  0.00    -0.358 OA
HETATM   25  H   UNL     1      42.328 -20.532   0.916  1.00  0.00     0.218 HD
ENDBRANCH  19  24
ENDBRANCH  15  16
ENDBRANCH  14  15
ENDBRANCH  11  14
ENDBRANCH   9  10
BRANCH   7  26
HETATM   26  C   UNL     1      39.785 -10.719   4.243  1.00  0.00     0.033 A 
HETATM   27  S   UNL     1      40.939  -9.467   3.988  1.00  0.00    -0.100 SA
HETATM   28  C   UNL     1      40.027  -8.334   4.881  1.00  0.00     0.050 A 
HETATM   29  C   UNL     1      38.871  -8.883   5.384  1.00  0.00     0.008 A 
HETATM   30  C   UNL     1      38.739 -10.257   5.026  1.00  0.00     0.021 A 
ENDBRANCH   7  26
BRANCH   1  31
HETATM   31  C   UNL     1      39.549 -12.843  -0.625  1.00  0.00     0.104 C 
HETATM   32  C   UNL     1      38.687 -13.554  -1.669  1.00  0.00     0.034 C 
HETATM   33  C   UNL     1      40.798 -12.225  -1.252  1.00  0.00     0.034 C 
ENDBRANCH   1  31
TORSDOF 8
ENDMDL
MODEL 2
REMARK VINA RESULT:      -8.4      3.181      5.313
REMARK  8 active torsions:
REMARK  status: ('A' for Active; 'I' for Inactive)
REMARK    1  A    between atoms: C_2  and  N_3 
REMARK    2  A    between atoms: C_9  and  C_10 
REMARK    3  A    between atoms: C_16  and  C_17 
REMARK       I    between atoms: C_17  and  N_18 
REMARK    4  A    between atoms: N_18  and  C_19 
REMARK    5  A    between atoms: C_19  and  C_20 
REMARK    6  A    between atoms: C_20  and  C_21 
REMARK    7  A    between atoms: C_23  and  O_24 
REMARK    8  A    between atoms: C_25  and  O_26 
ROOT
HETATM    1  N   UNL     1      44.195 -10.612   7.509  1.00  0.00    -0.248 N 
HETATM    2  N   UNL     1      44.977 -11.718   7.536  1.00  0.00    -0.182 NA
HETATM    3  C   UNL     1      44.227 -12.649   6.937  1.00  0.00     0.155 A 
HETATM    4  C   UNL     1      42.986 -12.151   6.486  1.00  0.00     0.046 A 
HETATM    5  C   UNL     1      42.989 -10.822   6.887  1.00  0.00     0.159 A 
HETATM    6  N   UNL     1      42.001  -9.922   6.717  1.00  0.00    -0.228 NA
HETATM    7  C   UNL     1      40.901 -10.405   6.087  1.00  0.00     0.077 A 
HETATM    8  C   UNL     1      40.775 -11.718   5.649  1.00  0.00     0.051 A 
HETATM    9  C   UNL     1      41.837 -12.613   5.834  1.00  0.00     0.049 A 
ENDROOT
BRANCH   9  10
HETATM   10  C   UNL     1      41.667 -14.005   5.381  1.00  0.00     0.252 C 
HETATM   11  N   UNL     1      42.390 -14.402   4.272  1.00  0.00    -0.357 N 
HETATM   12  H   UNL     1      42.800 -13.680   3.692  1.00  0.00     0.162 HD
HETATM   13  O   UNL     1      40.865 -14.725   5.964  1.00  0.00    -0.268 OA
BRANCH  11  14
HETATM   14  C   UNL     1      42.079 -15.673   3.638  1.00  0.00     0.127 C 
BRANCH  14  15
HETATM   15  C   UNL     1      43.248 -16.224   2.822  1.00  0.00     0.058 C 
BRANCH  15  16
HETATM   16  C   UNL     1      43.435 -17.700   3.084  1.00  0.00    -0.054 A 
HETATM   17  C   UNL     1      43.215 -18.633   2.057  1.00  0.00     0.046 A 
HETATM   18  C   UNL     1      43.456 -19.983   2.293  1.00  0.00     0.099 A 
HETATM   19  C   UNL     1      43.912 -20.410   3.536  1.00  0.00     0.098 A 
HETATM   20  C   UNL     1      44.132 -19.504   4.562  1.00  0.00     0.040 A 
HETATM   21  C   UNL     1      43.896 -18.145   4.335  1.00  0.00     0.010 A 
BRANCH  18  22
HETATM   22  O   UNL     1      43.271 -20.931   1.324  1.00  0.00    -0.358 OA
HETATM   23  H   UNL     1      43.747 -20.644   0.526  1.00  0.00     0.218 HD
ENDBRANCH  18  22
BRANCH  19  24
HETATM   24  O   UNL     1      44.158 -21.736   3.754  1.00  0.00    -0.358 OA
HETATM   25  H   UNL     1      43.543 -22.198   3.151  1.00  0.00     0.218 HD
ENDBRANCH  19  24
ENDBRANCH  15  16
ENDBRANCH  14  15
ENDBRANCH  11  14
ENDBRANCH   9  10
BRANCH   7  26
HETATM   26  C   UNL     1      39.830  -9.405   5.935  1.00  0.00     0.033 A 
HETATM   27  S   UNL     1      39.755  -8.006   6.935  1.00  0.00    -0.100 SA
HETATM   28  C   UNL     1      38.339  -7.437   6.168  1.00  0.00     0.050 A 
HETATM   29  C   UNL     1      37.909  -8.290   5.180  1.00  0.00     0.008 A 
HETATM   30  C   UNL     1      38.761  -9.426   5.054  1.00  0.00     0.021 A 
ENDBRANCH   7  26
BRANCH   1  31
HETATM   31  C   UNL     1      44.668  -9.384   8.140  1.00  0.00     0.104 C 
HETATM   32  C   UNL     1      46.190  -9.257   8.071  1.00  0.00     0.034 C 
HETATM   33  C   UNL     1      44.155  -9.236   9.572  1.00  0.00     0.034 C 
ENDBRANCH   1  31
TORSDOF 8
ENDMDL
MODEL 3
REMARK VINA RESULT:      -8.2      3.432      5.222
REMARK  8 active torsions:
REMARK  status: ('A' for Active; 'I' for Inactive)
REMARK    1  A    between atoms: C_2  and  N_3 
REMARK    2  A    between atoms: C_9  and  C_10 
REMARK    3  A    between atoms: C_16  and  C_17 
REMARK       I    between atoms: C_17  and  N_18 
REMARK    4  A    between atoms: N_18  and  C_19 
REMARK    5  A    between atoms: C_19  and  C_20 
REMARK    6  A    between atoms: C_20  and  C_21 
REMARK    7  A    between atoms: C_23  and  O_24 
REMARK    8  A    between atoms: C_25  and  O_26 
ROOT
HETATM    1  N   UNL     1      40.244 -11.591   5.338  1.00  0.00    -0.248 N 
HETATM    2  N   UNL     1      39.524 -12.660   4.918  1.00  0.00    -0.182 NA
HETATM    3  C   UNL     1      40.310 -13.702   5.211  1.00  0.00     0.155 A 
HETATM    4  C   UNL     1      41.509 -13.325   5.852  1.00  0.00     0.046 A 
HETATM    5  C   UNL     1      41.443 -11.940   5.908  1.00  0.00     0.159 A 
HETATM    6  N   UNL     1      42.375 -11.103   6.404  1.00  0.00    -0.228 NA
HETATM    7  C   UNL     1      43.483 -11.717   6.887  1.00  0.00     0.077 A 
HETATM    8  C   UNL     1      43.671 -13.094   6.877  1.00  0.00     0.051 A 
HETATM    9  C   UNL     1      42.665 -13.925   6.365  1.00  0.00     0.049 A 
ENDROOT
BRANCH   9  10
HETATM   10  C   UNL     1      42.900 -15.380   6.346  1.00  0.00     0.252 C 
HETATM   11  N   UNL     1      43.600 -15.893   5.271  1.00  0.00    -0.357 N 
HETATM   12  H   UNL     1      43.703 -15.308   4.450  1.00  0.00     0.162 HD
HETATM   13  O   UNL     1      42.428 -16.070   7.241  1.00  0.00    -0.268 OA
BRANCH  11  14
HETATM   14  C   UNL     1      43.647 -17.333   5.074  1.00  0.00     0.127 C 
BRANCH  14  15
HETATM   15  C   UNL     1      43.544 -17.729   3.602  1.00  0.00     0.058 C 
BRANCH  15  16
HETATM   16  C   UNL     1      42.729 -16.718   2.831  1.00  0.00    -0.054 A 
HETATM   17  C   UNL     1      41.333 -16.672   2.982  1.00  0.00     0.046 A 
HETATM   18  C   UNL     1      40.601 -15.693   2.318  1.00  0.00     0.099 A 
HETATM   19  C   UNL     1      41.244 -14.762   1.508  1.00  0.00     0.098 A 
HETATM   20  C   UNL     1      42.621 -14.794   1.344  1.00  0.00     0.040 A 
HETATM   21  C   UNL     1      43.365 -15.771   2.010  1.00  0.00     0.010 A 
BRANCH  18  22
HETATM   22  O   UNL     1      39.243 -15.596   2.442  1.00  0.00    -0.358 OA
HETATM   23  H   UNL     1      38.861 -16.476   2.276  1.00  0.00     0.218 HD
ENDBRANCH  18  22
BRANCH  19  24
HETATM   24  O   UNL     1      40.519 -13.796   0.870  1.00  0.00    -0.358 OA
HETATM   25  H   UNL     1      41.185 -13.135   0.595  1.00  0.00     0.218 HD
ENDBRANCH  19  24
ENDBRANCH  15  16
ENDBRANCH  14  15
ENDBRANCH  11  14
ENDBRANCH   9  10
BRANCH   7  26
HETATM   26  C   UNL     1      44.493 -10.777   7.402  1.00  0.00     0.033 A 
HETATM   27  S   UNL     1      44.049  -9.399   8.334  1.00  0.00    -0.100 SA
HETATM   28  C   UNL     1      45.671  -8.894   8.506  1.00  0.00     0.050 A 
HETATM   29  C   UNL     1      46.545  -9.736   7.861  1.00  0.00     0.008 A 
HETATM   30  C   UNL     1      45.866 -10.812   7.218  1.00  0.00     0.021 A 
ENDBRANCH   7  26
BRANCH   1  31
HETATM   31  C   UNL     1      39.719 -10.246   5.123  1.00  0.00     0.104 C 
HETATM   32  C   UNL     1      39.054  -9.685   6.380  1.00  0.00     0.034 C 
HETATM   33  C   UNL     1      38.788 -10.176   3.914  1.00  0.00     0.034 C 
ENDBRANCH   1  31
TORSDOF 8
ENDMDL
MODEL 4
REMARK VINA RESULT:      -8.1      1.561      4.201
REMARK  8 active torsions:
REMARK  status: ('A' for Active; 'I' for Inactive)
REMARK    1  A    between atoms: C_2  and  N_3 
REMARK    2  A    between atoms: C_9  and  C_10 
REMARK    3  A    between atoms: C_16  and  C_17 
REMARK       I    between atoms: C_17  and  N_18 
REMARK    4  A    between atoms: N_18  and  C_19 
REMARK    5  A    between atoms: C_19  and  C_20 
REMARK    6  A    between atoms: C_20  and  C_21 
REMARK    7  A    between atoms: C_23  and  O_24 
REMARK    8  A    between atoms: C_25  and  O_26 
ROOT
HETATM    1  N   UNL     1      40.078 -10.402   4.512  1.00  0.00    -0.248 N 
HETATM    2  N   UNL     1      40.389 -10.479   5.829  1.00  0.00    -0.182 NA
HETATM    3  C   UNL     1      40.656 -11.776   6.014  1.00  0.00     0.155 A 
HETATM    4  C   UNL     1      40.562 -12.533   4.827  1.00  0.00     0.046 A 
HETATM    5  C   UNL     1      40.169 -11.610   3.867  1.00  0.00     0.159 A 
HETATM    6  N   UNL     1      39.912 -11.853   2.567  1.00  0.00    -0.228 NA
HETATM    7  C   UNL     1      40.058 -13.149   2.196  1.00  0.00     0.077 A 
HETATM    8  C   UNL     1      40.435 -14.165   3.066  1.00  0.00     0.051 A 
HETATM    9  C   UNL     1      40.709 -13.860   4.406  1.00  0.00     0.049 A 
ENDROOT
BRANCH   9  10
HETATM   10  C   UNL     1      41.084 -14.960   5.313  1.00  0.00     0.252 C 
HETATM   11  N   UNL     1      42.408 -15.353   5.316  1.00  0.00    -0.357 N 
HETATM   12  H   UNL     1      42.994 -15.050   4.547  1.00  0.00     0.162 HD
HETATM   13  O   UNL     1      40.211 -15.508   5.975  1.00  0.00    -0.268 OA
BRANCH  11  14
HETATM   14  C   UNL     1      42.785 -16.582   5.997  1.00  0.00     0.127 C 
BRANCH  14  15
HETATM   15  C   UNL     1      44.127 -17.132   5.519  1.00  0.00     0.058 C 
BRANCH  15  16
HETATM   16  C   UNL     1      43.931 -18.114   4.387  1.00  0.00    -0.054 A 
HETATM   17  C   UNL     1      44.164 -19.484   4.593  1.00  0.00     0.046 A 
HETATM   18  C   UNL     1      43.915 -20.385   3.563  1.00  0.00     0.099 A 
HETATM   19  C   UNL     1      43.439 -19.936   2.334  1.00  0.00     0.098 A 
HETATM   20  C   UNL     1      43.206 -18.587   2.113  1.00  0.00     0.040 A 
HETATM   21  C   UNL     1      43.450 -17.675   3.142  1.00  0.00     0.010 A 
BRANCH  18  22
HETATM   22  O   UNL     1      44.112 -21.730   3.715  1.00  0.00    -0.358 OA
HETATM   23  H   UNL     1      44.636 -22.046   2.958  1.00  0.00     0.218 HD
ENDBRANCH  18  22
BRANCH  19  24
HETATM   24  O   UNL     1      43.185 -20.830   1.333  1.00  0.00    -0.358 OA
HETATM   25  H   UNL     1      42.781 -21.595   1.788  1.00  0.00     0.218 HD
ENDBRANCH  19  24
ENDBRANCH  15  16
ENDBRANCH  14  15
ENDBRANCH  11  14
ENDBRANCH   9  10
BRANCH   7  26
HETATM   26  C   UNL     1      39.748 -13.388   0.776  1.00  0.00     0.033 A 
HETATM   27  S   UNL     1      39.000 -12.182  -0.198  1.00  0.00    -0.100 SA
HETATM   28  C   UNL     1      38.996 -13.186  -1.579  1.00  0.00     0.050 A 
HETATM   29  C   UNL     1      39.536 -14.423  -1.319  1.00  0.00     0.008 A 
HETATM   30  C   UNL     1      39.957 -14.542   0.038  1.00  0.00     0.021 A 
ENDBRANCH   7  26
BRANCH   1  31
HETATM   31  C   UNL     1      39.665  -9.122   3.947  1.00  0.00     0.104 C 
HETATM   32  C   UNL     1      40.499  -7.961   4.492  1.00  0.00     0.034 C 
HETATM   33  C   UNL     1      38.168  -8.870   4.121  1.00  0.00     0.034 C 
ENDBRANCH   1  31
TORSDOF 8
ENDMDL
MODEL 5
REMARK VINA RESULT:      -8.1      3.003      4.587
REMARK  8 active torsions:
REMARK  status: ('A' for Active; 'I' for Inactive)
REMARK    1  A    between atoms: C_2  and  N_3 
REMARK    2  A    between atoms: C_9  and  C_10 
REMARK    3  A    between atoms: C_16  and  C_17 
REMARK       I    between atoms: C_17  and  N_18 
REMARK    4  A    between atoms: N_18  and  C_19 
REMARK    5  A    between atoms: C_19  and  C_20 
REMARK    6  A    between atoms: C_20  and  C_21 
REMARK    7  A    between atoms: C_23  and  O_24 
REMARK    8  A    between atoms: C_25  and  O_26 
ROOT
HETATM    1  N   UNL     1      39.833 -10.028   4.843  1.00  0.00    -0.248 N 
HETATM    2  N   UNL     1      38.925 -10.703   4.096  1.00  0.00    -0.182 NA
HETATM    3  C   UNL     1      39.453 -11.926   3.990  1.00  0.00     0.155 A 
HETATM    4  C   UNL     1      40.669 -12.065   4.691  1.00  0.00     0.046 A 
HETATM    5  C   UNL     1      40.898 -10.804   5.225  1.00  0.00     0.159 A 
HETATM    6  N   UNL     1      41.959 -10.414   5.958  1.00  0.00    -0.228 NA
HETATM    7  C   UNL     1      42.884 -11.383   6.170  1.00  0.00     0.077 A 
HETATM    8  C   UNL     1      42.773 -12.679   5.678  1.00  0.00     0.051 A 
HETATM    9  C   UNL     1      41.642 -13.041   4.936  1.00  0.00     0.049 A 
ENDROOT
BRANCH   9  10
HETATM   10  C   UNL     1      41.562 -14.415   4.407  1.00  0.00     0.252 C 
HETATM   11  N   UNL     1      41.993 -14.620   3.111  1.00  0.00    -0.357 N 
HETATM   12  H   UNL     1      42.109 -13.807   2.517  1.00  0.00     0.162 HD
HETATM   13  O   UNL     1      41.075 -15.294   5.109  1.00  0.00    -0.268 OA
BRANCH  11  14
HETATM   14  C   UNL     1      41.710 -15.888   2.459  1.00  0.00     0.127 C 
BRANCH  14  15
HETATM   15  C   UNL     1      42.971 -16.570   1.928  1.00  0.00     0.058 C 
BRANCH  15  16
HETATM   16  C   UNL     1      43.359 -17.736   2.805  1.00  0.00    -0.054 A 
HETATM   17  C   UNL     1      43.427 -19.033   2.268  1.00  0.00     0.046 A 
HETATM   18  C   UNL     1      43.851 -20.087   3.070  1.00  0.00     0.099 A 
HETATM   19  C   UNL     1      44.205 -19.864   4.398  1.00  0.00     0.098 A 
HETATM   20  C   UNL     1      44.141 -18.592   4.945  1.00  0.00     0.040 A 
HETATM   21  C   UNL     1      43.720 -17.525   4.147  1.00  0.00     0.010 A 
BRANCH  18  22
HETATM   22  O   UNL     1      43.948 -21.366   2.593  1.00  0.00    -0.358 OA
HETATM   23  H   UNL     1      43.143 -21.847   2.853  1.00  0.00     0.218 HD
ENDBRANCH  18  22
BRANCH  19  24
HETATM   24  O   UNL     1      44.631 -20.904   5.174  1.00  0.00    -0.358 OA
HETATM   25  H   UNL     1      45.330 -21.333   4.641  1.00  0.00     0.218 HD
ENDBRANCH  19  24
ENDBRANCH  15  16
ENDBRANCH  14  15
ENDBRANCH  11  14
ENDBRANCH   9  10
BRANCH   7  26
HETATM   26  C   UNL     1      44.042 -10.922   6.954  1.00  0.00     0.033 A 
HETATM   27  S   UNL     1      43.853  -9.897   8.324  1.00  0.00    -0.100 SA
HETATM   28  C   UNL     1      45.534  -9.844   8.616  1.00  0.00     0.050 A 
HETATM   29  C   UNL     1      46.242 -10.572   7.691  1.00  0.00     0.008 A 
HETATM   30  C   UNL     1      45.385 -11.183   6.729  1.00  0.00     0.021 A 
ENDBRANCH   7  26
BRANCH   1  31
HETATM   31  C   UNL     1      39.619  -8.611   5.120  1.00  0.00     0.104 C 
HETATM   32  C   UNL     1      38.135  -8.276   5.273  1.00  0.00     0.034 C 
HETATM   33  C   UNL     1      40.297  -7.711   4.087  1.00  0.00     0.034 C 
ENDBRANCH   1  31
TORSDOF 8
ENDMDL
MODEL 6
REMARK VINA RESULT:      -8.1      3.426      5.525
REMARK  8 active torsions:
REMARK  status: ('A' for Active; 'I' for Inactive)
REMARK    1  A    between atoms: C_2  and  N_3 
REMARK    2  A    between atoms: C_9  and  C_10 
REMARK    3  A    between atoms: C_16  and  C_17 
REMARK       I    between atoms: C_17  and  N_18 
REMARK    4  A    between atoms: N_18  and  C_19 
REMARK    5  A    between atoms: C_19  and  C_20 
REMARK    6  A    between atoms: C_20  and  C_21 
REMARK    7  A    between atoms: C_23  and  O_24 
REMARK    8  A    between atoms: C_25  and  O_26 
ROOT
HETATM    1  N   UNL     1      43.869 -10.379   8.168  1.00  0.00    -0.248 N 
HETATM    2  N   UNL     1      44.782 -11.376   8.075  1.00  0.00    -0.182 NA
HETATM    3  C   UNL     1      44.343 -12.109   7.047  1.00  0.00     0.155 A 
HETATM    4  C   UNL     1      43.182 -11.578   6.447  1.00  0.00     0.046 A 
HETATM    5  C   UNL     1      42.888 -10.457   7.211  1.00  0.00     0.159 A 
HETATM    6  N   UNL     1      41.843  -9.622   7.056  1.00  0.00    -0.228 NA
HETATM    7  C   UNL     1      41.007  -9.947   6.039  1.00  0.00     0.077 A 
HETATM    8  C   UNL     1      41.188 -11.050   5.213  1.00  0.00     0.051 A 
HETATM    9  C   UNL     1      42.301 -11.880   5.402  1.00  0.00     0.049 A 
ENDROOT
BRANCH   9  10
HETATM   10  C   UNL     1      42.456 -13.056   4.527  1.00  0.00     0.252 C 
HETATM   11  N   UNL     1      41.944 -14.256   4.983  1.00  0.00    -0.357 N 
HETATM   12  H   UNL     1      41.714 -14.329   5.966  1.00  0.00     0.162 HD
HETATM   13  O   UNL     1      43.068 -12.935   3.472  1.00  0.00    -0.268 OA
BRANCH  11  14
HETATM   14  C   UNL     1      42.281 -15.485   4.283  1.00  0.00     0.127 C 
BRANCH  14  15
HETATM   15  C   UNL     1      43.446 -16.231   4.932  1.00  0.00     0.058 C 
BRANCH  15  16
HETATM   16  C   UNL     1      43.639 -17.584   4.289  1.00  0.00    -0.054 A 
HETATM   17  C   UNL     1      44.096 -18.671   5.054  1.00  0.00     0.046 A 
HETATM   18  C   UNL     1      44.206 -19.927   4.466  1.00  0.00     0.099 A 
HETATM   19  C   UNL     1      43.867 -20.111   3.129  1.00  0.00     0.098 A 
HETATM   20  C   UNL     1      43.417 -19.049   2.358  1.00  0.00     0.040 A 
HETATM   21  C   UNL     1      43.300 -17.784   2.940  1.00  0.00     0.010 A 
BRANCH  18  22
HETATM   22  O   UNL     1      44.633 -21.020   5.169  1.00  0.00    -0.358 OA
HETATM   23  H   UNL     1      43.848 -21.493   5.497  1.00  0.00     0.218 HD
ENDBRANCH  18  22
BRANCH  19  24
HETATM   24  O   UNL     1      43.966 -21.350   2.564  1.00  0.00    -0.358 OA
HETATM   25  H   UNL     1      44.330 -21.912   3.276  1.00  0.00     0.218 HD
ENDBRANCH  19  24
ENDBRANCH  15  16
ENDBRANCH  14  15
ENDBRANCH  11  14
ENDBRANCH   9  10
BRANCH   7  26
HETATM   26  C   UNL     1      39.863  -9.030   5.908  1.00  0.00     0.033 A 
HETATM   27  S   UNL     1      38.644  -9.275   4.717  1.00  0.00    -0.100 SA
HETATM   28  C   UNL     1      37.776  -7.888   5.205  1.00  0.00     0.050 A 
HETATM   29  C   UNL     1      38.394  -7.231   6.242  1.00  0.00     0.008 A 
HETATM   30  C   UNL     1      39.599  -7.882   6.638  1.00  0.00     0.021 A 
ENDBRANCH   7  26
BRANCH   1  31
HETATM   31  C   UNL     1      43.989  -9.395   9.240  1.00  0.00     0.104 C 
HETATM   32  C   UNL     1      44.629  -8.095   8.753  1.00  0.00     0.034 C 
HETATM   33  C   UNL     1      44.716  -9.957  10.461  1.00  0.00     0.034 C 
ENDBRANCH   1  31
TORSDOF 8
ENDMDL
MODEL 7
REMARK VINA RESULT:      -8.0      1.701      2.280
REMARK  8 active torsions:
REMARK  status: ('A' for Active; 'I' for Inactive)
REMARK    1  A    between atoms: C_2  and  N_3 
REMARK    2  A    between atoms: C_9  and  C_10 
REMARK    3  A    between atoms: C_16  and  C_17 
REMARK       I    between atoms: C_17  and  N_18 
REMARK    4  A    between atoms: N_18  and  C_19 
REMARK    5  A    between atoms: C_19  and  C_20 
REMARK    6  A    between atoms: C_20  and  C_21 
REMARK    7  A    between atoms: C_23  and  O_24 
REMARK    8  A    between atoms: C_25  and  O_26 
ROOT
HETATM    1  N   UNL     1      38.794 -12.962  -0.994  1.00  0.00    -0.248 N 
HETATM    2  N   UNL     1      39.359 -14.152  -1.314  1.00  0.00    -0.182 NA
HETATM    3  C   UNL     1      39.947 -14.537  -0.177  1.00  0.00     0.155 A 
HETATM    4  C   UNL     1      39.737 -13.633   0.886  1.00  0.00     0.046 A 
HETATM    5  C   UNL     1      38.993 -12.608   0.317  1.00  0.00     0.159 A 
HETATM    6  N   UNL     1      38.567 -11.483   0.924  1.00  0.00    -0.228 NA
HETATM    7  C   UNL     1      38.926 -11.375   2.227  1.00  0.00     0.077 A 
HETATM    8  C   UNL     1      39.678 -12.328   2.904  1.00  0.00     0.051 A 
HETATM    9  C   UNL     1      40.084 -13.490   2.235  1.00  0.00     0.049 A 
ENDROOT
BRANCH   9  10
HETATM   10  C   UNL     1      40.900 -14.473   2.970  1.00  0.00     0.252 C 
HETATM   11  N   UNL     1      42.267 -14.273   2.987  1.00  0.00    -0.357 N 
HETATM   12  H   UNL     1      42.659 -13.626   2.314  1.00  0.00     0.162 HD
HETATM   13  O   UNL     1      40.348 -15.439   3.482  1.00  0.00    -0.268 OA
BRANCH  11  14
HETATM   14  C   UNL     1      43.135 -15.331   3.480  1.00  0.00     0.127 C 
BRANCH  14  15
HETATM   15  C   UNL     1      43.240 -16.506   2.509  1.00  0.00     0.058 C 
BRANCH  15  16
HETATM   16  C   UNL     1      43.494 -17.795   3.254  1.00  0.00    -0.054 A 
HETATM   17  C   UNL     1      43.604 -19.007   2.552  1.00  0.00     0.046 A 
HETATM   18  C   UNL     1      43.903 -20.177   3.242  1.00  0.00     0.099 A 
HETATM   19  C   UNL     1      44.093 -20.152   4.621  1.00  0.00     0.098 A 
HETATM   20  C   UNL     1      43.986 -18.965   5.331  1.00  0.00     0.040 A 
HETATM   21  C   UNL     1      43.688 -17.784   4.646  1.00  0.00     0.010 A 
BRANCH  18  22
HETATM   22  O   UNL     1      44.035 -21.380   2.605  1.00  0.00    -0.358 OA
HETATM   23  H   UNL     1      44.686 -21.273   1.890  1.00  0.00     0.218 HD
ENDBRANCH  18  22
BRANCH  19  24
HETATM   24  O   UNL     1      44.400 -21.303   5.288  1.00  0.00    -0.358 OA
HETATM   25  H   UNL     1      44.696 -21.000   6.169  1.00  0.00     0.218 HD
ENDBRANCH  19  24
ENDBRANCH  15  16
ENDBRANCH  14  15
ENDBRANCH  11  14
ENDBRANCH   9  10
BRANCH   7  26
HETATM   26  C   UNL     1      38.465 -10.126   2.857  1.00  0.00     0.033 A 
HETATM   27  S   UNL     1      37.809  -8.836   1.926  1.00  0.00    -0.100 SA
HETATM   28  C   UNL     1      37.555  -7.863   3.306  1.00  0.00     0.050 A 
HETATM   29  C   UNL     1      37.970  -8.485   4.459  1.00  0.00     0.008 A 
HETATM   30  C   UNL     1      38.503  -9.781   4.199  1.00  0.00     0.021 A 
ENDBRANCH   7  26
BRANCH   1  31
HETATM   31  C   UNL     1      38.101 -12.198  -2.025  1.00  0.00     0.104 C 
HETATM   32  C   UNL     1      37.103 -13.059  -2.801  1.00  0.00     0.034 C 
HETATM   33  C   UNL     1      39.071 -11.479  -2.962  1.00  0.00     0.034 C 
ENDBRANCH   1  31
TORSDOF 8
ENDMDL
MODEL 8
REMARK VINA RESULT:      -7.8      3.720      7.205
REMARK  8 active torsions:
REMARK  status: ('A' for Active; 'I' for Inactive)
REMARK    1  A    between atoms: C_2  and  N_3 
REMARK    2  A    between atoms: C_9  and  C_10 
REMARK    3  A    between atoms: C_16  and  C_17 
REMARK       I    between atoms: C_17  and  N_18 
REMARK    4  A    between atoms: N_18  and  C_19 
REMARK    5  A    between atoms: C_19  and  C_20 
REMARK    6  A    between atoms: C_20  and  C_21 
REMARK    7  A    between atoms: C_23  and  O_24 
REMARK    8  A    between atoms: C_25  and  O_26 
ROOT
HETATM    1  N   UNL     1      42.981 -16.043   5.074  1.00  0.00    -0.248 N 
HETATM    2  N   UNL     1      42.037 -16.560   4.249  1.00  0.00    -0.182 NA
HETATM    3  C   UNL     1      41.295 -15.499   3.916  1.00  0.00     0.155 A 
HETATM    4  C   UNL     1      41.768 -14.296   4.481  1.00  0.00     0.046 A 
HETATM    5  C   UNL     1      42.861 -14.686   5.243  1.00  0.00     0.159 A 
HETATM    6  N   UNL     1      43.638 -13.896   6.009  1.00  0.00    -0.228 NA
HETATM    7  C   UNL     1      43.281 -12.588   6.015  1.00  0.00     0.077 A 
HETATM    8  C   UNL     1      42.201 -12.079   5.303  1.00  0.00     0.051 A 
HETATM    9  C   UNL     1      41.432 -12.937   4.506  1.00  0.00     0.049 A 
ENDROOT
BRANCH   9  10
HETATM   10  C   UNL     1      40.279 -12.375   3.780  1.00  0.00     0.252 C 
HETATM   11  N   UNL     1      40.422 -12.178   2.420  1.00  0.00    -0.357 N 
HETATM   12  H   UNL     1      41.359 -12.196   2.036  1.00  0.00     0.162 HD
HETATM   13  O   UNL     1      39.277 -12.059   4.411  1.00  0.00    -0.268 OA
BRANCH  11  14
HETATM   14  C   UNL     1      39.421 -11.406   1.703  1.00  0.00     0.127 C 
BRANCH  14  15
HETATM   15  C   UNL     1      39.968 -10.777   0.423  1.00  0.00     0.058 C 
BRANCH  15  16
HETATM   16  C   UNL     1      39.645 -11.638  -0.776  1.00  0.00    -0.054 A 
HETATM   17  C   UNL     1      40.679 -12.139  -1.586  1.00  0.00     0.046 A 
HETATM   18  C   UNL     1      40.373 -12.984  -2.647  1.00  0.00     0.099 A 
HETATM   19  C   UNL     1      39.052 -13.334  -2.909  1.00  0.00     0.098 A 
HETATM   20  C   UNL     1      38.018 -12.847  -2.123  1.00  0.00     0.040 A 
HETATM   21  C   UNL     1      38.316 -12.000  -1.052  1.00  0.00     0.010 A 
BRANCH  18  22
HETATM   22  O   UNL     1      41.342 -13.509  -3.456  1.00  0.00    -0.358 OA
HETATM   23  H   UNL     1      40.916 -14.129  -4.074  1.00  0.00     0.218 HD
ENDBRANCH  18  22
BRANCH  19  24
HETATM   24  O   UNL     1      38.762 -14.175  -3.945  1.00  0.00    -0.358 OA
HETATM   25  H   UNL     1      37.791 -14.280  -3.908  1.00  0.00     0.218 HD
ENDBRANCH  19  24
ENDBRANCH  15  16
ENDBRANCH  14  15
ENDBRANCH  11  14
ENDBRANCH   9  10
BRANCH   7  26
HETATM   26  C   UNL     1      44.134 -11.754   6.877  1.00  0.00     0.033 A 
HETATM   27  S   UNL     1      45.734 -11.319   6.412  1.00  0.00    -0.100 SA
HETATM   28  C   UNL     1      45.996 -10.433   7.848  1.00  0.00     0.050 A 
HETATM   29  C   UNL     1      44.905 -10.469   8.683  1.00  0.00     0.008 A 
HETATM   30  C   UNL     1      43.839 -11.238   8.129  1.00  0.00     0.021 A 
ENDBRANCH   7  26
BRANCH   1  31
HETATM   31  C   UNL     1      43.954 -16.934   5.696  1.00  0.00     0.104 C 
HETATM   32  C   UNL     1      44.303 -18.118   4.793  1.00  0.00     0.034 C 
HETATM   33  C   UNL     1      43.511 -17.396   7.084  1.00  0.00     0.034 C 
ENDBRANCH   1  31
TORSDOF 8
ENDMDL
MODEL 9
REMARK VINA RESULT:      -7.8      3.510      8.290
REMARK  8 active torsions:
REMARK  status: ('A' for Active; 'I' for Inactive)
REMARK    1  A    between atoms: C_2  and  N_3 
REMARK    2  A    between atoms: C_9  and  C_10 
REMARK    3  A    between atoms: C_16  and  C_17 
REMARK       I    between atoms: C_17  and  N_18 
REMARK    4  A    between atoms: N_18  and  C_19 
REMARK    5  A    between atoms: C_19  and  C_20 
REMARK    6  A    between atoms: C_20  and  C_21 
REMARK    7  A    between atoms: C_23  and  O_24 
REMARK    8  A    between atoms: C_25  and  O_26 
ROOT
HETATM    1  N   UNL     1      40.180 -13.195   4.142  1.00  0.00    -0.248 N 
HETATM    2  N   UNL     1      39.412 -12.292   3.485  1.00  0.00    -0.182 NA
HETATM    3  C   UNL     1      39.445 -12.714   2.217  1.00  0.00     0.155 A 
HETATM    4  C   UNL     1      40.190 -13.901   2.050  1.00  0.00     0.046 A 
HETATM    5  C   UNL     1      40.669 -14.181   3.322  1.00  0.00     0.159 A 
HETATM    6  N   UNL     1      41.468 -15.206   3.679  1.00  0.00    -0.228 NA
HETATM    7  C   UNL     1      41.824 -16.025   2.659  1.00  0.00     0.077 A 
HETATM    8  C   UNL     1      41.419 -15.842   1.342  1.00  0.00     0.051 A 
HETATM    9  C   UNL     1      40.574 -14.771   1.023  1.00  0.00     0.049 A 
ENDROOT
BRANCH   9  10
HETATM   10  C   UNL     1      40.178 -14.587  -0.385  1.00  0.00     0.252 C 
HETATM   11  N   UNL     1      40.833 -13.605  -1.103  1.00  0.00    -0.357 N 
HETATM   12  H   UNL     1      41.363 -12.914  -0.585  1.00  0.00     0.162 HD
HETATM   13  O   UNL     1      39.263 -15.264  -0.838  1.00  0.00    -0.268 OA
BRANCH  11  14
HETATM   14  C   UNL     1      40.321 -13.215  -2.407  1.00  0.00     0.127 C 
BRANCH  14  15
HETATM   15  C   UNL     1      39.541 -11.902  -2.363  1.00  0.00     0.058 C 
BRANCH  15  16
HETATM   16  C   UNL     1      40.418 -10.773  -1.875  1.00  0.00    -0.054 A 
HETATM   17  C   UNL     1      40.809 -10.715  -0.526  1.00  0.00     0.046 A 
HETATM   18  C   UNL     1      41.671  -9.709  -0.104  1.00  0.00     0.099 A 
HETATM   19  C   UNL     1      42.146  -8.763  -1.007  1.00  0.00     0.098 A 
HETATM   20  C   UNL     1      41.770  -8.804  -2.341  1.00  0.00     0.040 A 
HETATM   21  C   UNL     1      40.907  -9.813  -2.777  1.00  0.00     0.010 A 
BRANCH  18  22
HETATM   22  O   UNL     1      42.092  -9.614   1.194  1.00  0.00    -0.358 OA
HETATM   23  H   UNL     1      42.353  -8.692   1.361  1.00  0.00     0.218 HD
ENDBRANCH  18  22
BRANCH  19  24
HETATM   24  O   UNL     1      43.003  -7.787  -0.585  1.00  0.00    -0.358 OA
HETATM   25  H   UNL     1      43.456  -7.494  -1.400  1.00  0.00     0.218 HD
ENDBRANCH  19  24
ENDBRANCH  15  16
ENDBRANCH  14  15
ENDBRANCH  11  14
ENDBRANCH   9  10
BRANCH   7  26
HETATM   26  C   UNL     1      42.715 -17.122   3.076  1.00  0.00     0.033 A 
HETATM   27  S   UNL     1      43.497 -17.114   4.609  1.00  0.00    -0.100 SA
HETATM   28  C   UNL     1      44.271 -18.607   4.311  1.00  0.00     0.050 A 
HETATM   29  C   UNL     1      43.963 -19.108   3.068  1.00  0.00     0.008 A 
HETATM   30  C   UNL     1      43.078 -18.248   2.355  1.00  0.00     0.021 A 
ENDBRANCH   7  26
BRANCH   1  31
HETATM   31  C   UNL     1      40.428 -13.020   5.569  1.00  0.00     0.104 C 
HETATM   32  C   UNL     1      39.416 -12.073   6.213  1.00  0.00     0.034 C 
HETATM   33  C   UNL     1      41.866 -12.588   5.856  1.00  0.00     0.034 C 
ENDBRANCH   1  31
TORSDOF 8
ENDMDL
MODEL 10
REMARK VINA RESULT:      -7.8      3.314      8.380
REMARK  8 active torsions:
REMARK  status: ('A' for Active; 'I' for Inactive)
REMARK    1  A    between atoms: C_2  and  N_3 
REMARK    2  A    between atoms: C_9  and  C_10 
REMARK    3  A    between atoms: C_16  and  C_17 
REMARK       I    between atoms: C_17  and  N_18 
REMARK    4  A    between atoms: N_18  and  C_19 
REMARK    5  A    between atoms: C_19  and  C_20 
REMARK    6  A    between atoms: C_20  and  C_21 
REMARK    7  A    between atoms: C_23  and  O_24 
REMARK    8  A    between atoms: C_25  and  O_26 
ROOT
HETATM    1  N   UNL     1      42.994 -14.101   5.189  1.00  0.00    -0.248 N 
HETATM    2  N   UNL     1      42.404 -12.960   4.756  1.00  0.00    -0.182 NA
HETATM    3  C   UNL     1      41.817 -13.325   3.611  1.00  0.00     0.155 A 
HETATM    4  C   UNL     1      41.985 -14.695   3.318  1.00  0.00     0.046 A 
HETATM    5  C   UNL     1      42.770 -15.171   4.359  1.00  0.00     0.159 A 
HETATM    6  N   UNL     1      43.234 -16.426   4.516  1.00  0.00    -0.228 NA
HETATM    7  C   UNL     1      42.879 -17.285   3.529  1.00  0.00     0.077 A 
HETATM    8  C   UNL     1      42.107 -16.926   2.431  1.00  0.00     0.051 A 
HETATM    9  C   UNL     1      41.633 -15.612   2.320  1.00  0.00     0.049 A 
ENDROOT
BRANCH   9  10
HETATM   10  C   UNL     1      40.836 -15.252   1.134  1.00  0.00     0.252 C 
HETATM   11  N   UNL     1      41.344 -14.271   0.304  1.00  0.00    -0.357 N 
HETATM   12  H   UNL     1      42.091 -13.689   0.663  1.00  0.00     0.162 HD
HETATM   13  O   UNL     1      39.748 -15.790   0.964  1.00  0.00    -0.268 OA
BRANCH  11  14
HETATM   14  C   UNL     1      40.496 -13.706  -0.733  1.00  0.00     0.127 C 
BRANCH  14  15
HETATM   15  C   UNL     1      40.572 -12.181  -0.790  1.00  0.00     0.058 C 
BRANCH  15  16
HETATM   16  C   UNL     1      40.220 -11.578   0.549  1.00  0.00    -0.054 A 
HETATM   17  C   UNL     1      41.084 -10.650   1.156  1.00  0.00     0.046 A 
HETATM   18  C   UNL     1      40.716 -10.052   2.356  1.00  0.00     0.099 A 
HETATM   19  C   UNL     1      39.501 -10.367   2.957  1.00  0.00     0.098 A 
HETATM   20  C   UNL     1      38.637 -11.282   2.375  1.00  0.00     0.040 A 
HETATM   21  C   UNL     1      38.996 -11.886   1.167  1.00  0.00     0.010 A 
BRANCH  18  22
HETATM   22  O   UNL     1      41.514  -9.133   2.981  1.00  0.00    -0.358 OA
HETATM   23  H   UNL     1      41.737  -8.440   2.336  1.00  0.00     0.218 HD
ENDBRANCH  18  22
BRANCH  19  24
HETATM   24  O   UNL     1      39.143  -9.765   4.129  1.00  0.00    -0.358 OA
HETATM   25  H   UNL     1      39.802 -10.084   4.777  1.00  0.00     0.218 HD
ENDBRANCH  19  24
ENDBRANCH  15  16
ENDBRANCH  14  15
ENDBRANCH  11  14
ENDBRANCH   9  10
BRANCH   7  26
HETATM   26  C   UNL     1      43.418 -18.643   3.716  1.00  0.00     0.033 A 
HETATM   27  S   UNL     1      43.417 -19.797   2.439  1.00  0.00    -0.100 SA
HETATM   28  C   UNL     1      44.146 -20.995   3.413  1.00  0.00     0.050 A 
HETATM   29  C   UNL     1      44.379 -20.548   4.692  1.00  0.00     0.008 A 
HETATM   30  C   UNL     1      43.950 -19.200   4.868  1.00  0.00     0.021 A 
ENDBRANCH   7  26
BRANCH   1  31
HETATM   31  C   UNL     1      43.797 -14.074   6.408  1.00  0.00     0.104 C 
HETATM   32  C   UNL     1      43.100 -14.788   7.566  1.00  0.00     0.034 C 
HETATM   33  C   UNL     1      44.217 -12.655   6.792  1.00  0.00     0.034 C 
ENDBRANCH   1  31
TORSDOF 8
ENDMDL
