MODEL 1
REMARK VINA RESULT:      -8.6      0.000      0.000
REMARK  7 active torsions:
REMARK  status: ('A' for Active; 'I' for Inactive)
REMARK    1  A    between atoms: O_2  and  C_3 
REMARK    2  A    between atoms: C_6  and  C_7 
REMARK    3  A    between atoms: C_7  and  C_8 
REMARK       I    between atoms: C_8  and  N_9 
REMARK    4  A    between atoms: N_9  and  C_10 
REMARK    5  A    between atoms: C_10  and  C_11 
REMARK    6  A    between atoms: C_14  and  N_15 
REMARK       I    between atoms: N_15  and  C_16 
REMARK    7  A    between atoms: C_16  and  C_17 
ROOT
HETATM    1  C   UNL     1      40.619 -14.501   4.985  1.00  0.00    -0.040 A 
HETATM    2  C   UNL     1      40.151 -13.266   4.519  1.00  0.00     0.011 A 
HETATM    3  C   UNL     1      39.714 -13.115   3.196  1.00  0.00     0.030 A 
HETATM    4  C   UNL     1      39.755 -14.189   2.308  1.00  0.00     0.035 A 
HETATM    5  C   UNL     1      40.234 -15.422   2.765  1.00  0.00     0.030 A 
HETATM    6  C   UNL     1      40.659 -15.577   4.088  1.00  0.00     0.011 A 
ENDROOT
BRANCH   1   7
HETATM    7  C   UNL     1      41.136 -14.681   6.390  1.00  0.00     0.161 C 
BRANCH   7   8
HETATM    8  N   UNL     1      41.788 -15.957   6.595  1.00  0.00    -0.357 N 
HETATM    9  C   UNL     1      43.162 -16.051   6.648  1.00  0.00     0.222 C 
HETATM   10  O   UNL     1      43.908 -15.112   6.384  1.00  0.00    -0.273 OA
HETATM   11  H   UNL     1      41.238 -16.712   6.982  1.00  0.00     0.162 HD
BRANCH   9  12
HETATM   12  C   UNL     1      43.687 -17.406   7.097  1.00  0.00     0.141 C 
BRANCH  12  13
HETATM   13  C   UNL     1      43.725 -18.477   6.026  1.00  0.00    -0.049 A 
HETATM   14  C   UNL     1      43.629 -19.847   6.303  1.00  0.00     0.010 A 
HETATM   15  C   UNL     1      43.704 -20.800   5.279  1.00  0.00     0.037 A 
HETATM   16  C   UNL     1      43.888 -20.400   3.957  1.00  0.00     0.068 A 
HETATM   17  C   UNL     1      43.991 -19.039   3.671  1.00  0.00     0.037 A 
HETATM   18  C   UNL     1      43.913 -18.086   4.692  1.00  0.00     0.010 A 
BRANCH  16  19
HETATM   19  O   UNL     1      43.987 -21.227   2.872  1.00  0.00    -0.356 OA
HETATM   20  C   UNL     1      43.713 -20.651   1.602  1.00  0.00     0.210 C 
ENDBRANCH  16  19
ENDBRANCH  12  13
ENDBRANCH   9  12
ENDBRANCH   7   8
ENDBRANCH   1   7
BRANCH   4  21
HETATM   21  N   UNL     1      39.354 -14.120   0.962  1.00  0.00    -0.321 N 
HETATM   22  C   UNL     1      40.011 -13.534  -0.105  1.00  0.00     0.279 C 
HETATM   23  O   UNL     1      41.085 -12.943  -0.045  1.00  0.00    -0.265 OA
HETATM   24  H   UNL     1      38.466 -14.548   0.723  1.00  0.00     0.169 HD
BRANCH  22  25
HETATM   25  C   UNL     1      39.282 -13.684  -1.354  1.00  0.00     0.142 A 
HETATM   26  O   UNL     1      38.036 -13.121  -1.480  1.00  0.00    -0.317 OA
HETATM   27  C   UNL     1      37.589 -13.415  -2.728  1.00  0.00     0.143 A 
HETATM   28  C   UNL     1      38.523 -14.153  -3.415  1.00  0.00     0.027 A 
HETATM   29  C   UNL     1      39.615 -14.328  -2.531  1.00  0.00     0.045 A 
ENDBRANCH  22  25
ENDBRANCH   4  21
TORSDOF 7
ENDMDL
MODEL 2
REMARK VINA RESULT:      -8.1      3.541      7.523
REMARK  7 active torsions:
REMARK  status: ('A' for Active; 'I' for Inactive)
REMARK    1  A    between atoms: O_2  and  C_3 
REMARK    2  A    between atoms: C_6  and  C_7 
REMARK    3  A    between atoms: C_7  and  C_8 
REMARK       I    between atoms: C_8  and  N_9 
REMARK    4  A    between atoms: N_9  and  C_10 
REMARK    5  A    between atoms: C_10  and  C_11 
REMARK    6  A    between atoms: C_14  and  N_15 
REMARK       I    between atoms: N_15  and  C_16 
REMARK    7  A    between atoms: C_16  and  C_17 
ROOT
HETATM    1  C   UNL     1      39.851 -12.110   4.010  1.00  0.00    -0.040 A 
HETATM    2  C   UNL     1      39.856 -12.833   5.210  1.00  0.00     0.011 A 
HETATM    3  C   UNL     1      40.704 -12.469   6.265  1.00  0.00     0.030 A 
HETATM    4  C   UNL     1      41.576 -11.389   6.134  1.00  0.00     0.035 A 
HETATM    5  C   UNL     1      41.584 -10.672   4.934  1.00  0.00     0.030 A 
HETATM    6  C   UNL     1      40.730 -11.026   3.884  1.00  0.00     0.011 A 
ENDROOT
BRANCH   1   7
HETATM    7  C   UNL     1      38.982 -12.505   2.843  1.00  0.00     0.161 C 
BRANCH   7   8
HETATM    8  N   UNL     1      39.100 -13.905   2.498  1.00  0.00    -0.357 N 
HETATM    9  C   UNL     1      40.130 -14.355   1.701  1.00  0.00     0.222 C 
HETATM   10  O   UNL     1      40.909 -13.600   1.123  1.00  0.00    -0.273 OA
HETATM   11  H   UNL     1      38.606 -14.576   3.070  1.00  0.00     0.162 HD
BRANCH   9  12
HETATM   12  C   UNL     1      40.254 -15.868   1.618  1.00  0.00     0.141 C 
BRANCH  12  13
HETATM   13  C   UNL     1      41.311 -16.485   2.512  1.00  0.00    -0.049 A 
HETATM   14  C   UNL     1      41.344 -16.306   3.902  1.00  0.00     0.010 A 
HETATM   15  C   UNL     1      42.363 -16.870   4.680  1.00  0.00     0.037 A 
HETATM   16  C   UNL     1      43.377 -17.615   4.081  1.00  0.00     0.068 A 
HETATM   17  C   UNL     1      43.356 -17.793   2.698  1.00  0.00     0.037 A 
HETATM   18  C   UNL     1      42.338 -17.234   1.920  1.00  0.00     0.010 A 
BRANCH  16  19
HETATM   19  O   UNL     1      44.429 -18.206   4.724  1.00  0.00    -0.356 OA
HETATM   20  C   UNL     1      44.336 -19.607   4.948  1.00  0.00     0.210 C 
ENDBRANCH  16  19
ENDBRANCH  12  13
ENDBRANCH   9  12
ENDBRANCH   7   8
ENDBRANCH   1   7
BRANCH   4  21
HETATM   21  N   UNL     1      42.471 -10.969   7.135  1.00  0.00    -0.321 N 
HETATM   22  C   UNL     1      43.755 -11.417   7.388  1.00  0.00     0.279 C 
HETATM   23  O   UNL     1      44.339 -12.299   6.766  1.00  0.00    -0.265 OA
HETATM   24  H   UNL     1      42.148 -10.244   7.766  1.00  0.00     0.169 HD
BRANCH  22  25
HETATM   25  C   UNL     1      44.374 -10.723   8.505  1.00  0.00     0.142 A 
HETATM   26  O   UNL     1      43.994 -11.035   9.787  1.00  0.00    -0.317 OA
HETATM   27  C   UNL     1      44.716 -10.244  10.622  1.00  0.00     0.143 A 
HETATM   28  C   UNL     1      45.560  -9.429   9.906  1.00  0.00     0.027 A 
HETATM   29  C   UNL     1      45.341  -9.736   8.542  1.00  0.00     0.045 A 
ENDBRANCH  22  25
ENDBRANCH   4  21
TORSDOF 7
ENDMDL
MODEL 3
REMARK VINA RESULT:      -8.1      4.360      8.167
REMARK  7 active torsions:
REMARK  status: ('A' for Active; 'I' for Inactive)
REMARK    1  A    between atoms: O_2  and  C_3 
REMARK    2  A    between atoms: C_6  and  C_7 
REMARK    3  A    between atoms: C_7  and  C_8 
REMARK       I    between atoms: C_8  and  N_9 
REMARK    4  A    between atoms: N_9  and  C_10 
REMARK    5  A    between atoms: C_10  and  C_11 
REMARK    6  A    between atoms: C_14  and  N_15 
REMARK       I    between atoms: N_15  and  C_16 
REMARK    7  A    between atoms: C_16  and  C_17 
ROOT
HETATM    1  C   UNL     1      42.792 -11.841   4.088  1.00  0.00    -0.040 A 
HETATM    2  C   UNL     1      43.273 -12.745   5.044  1.00  0.00     0.011 A 
HETATM    3  C   UNL     1      43.347 -12.388   6.398  1.00  0.00     0.030 A 
HETATM    4  C   UNL     1      42.961 -11.115   6.817  1.00  0.00     0.035 A 
HETATM    5  C   UNL     1      42.493 -10.205   5.864  1.00  0.00     0.030 A 
HETATM    6  C   UNL     1      42.407 -10.564   4.516  1.00  0.00     0.011 A 
ENDROOT
BRANCH   1   7
HETATM    7  C   UNL     1      42.742 -12.183   2.619  1.00  0.00     0.161 C 
BRANCH   7   8
HETATM    8  N   UNL     1      43.175 -13.534   2.338  1.00  0.00    -0.357 N 
HETATM    9  C   UNL     1      42.262 -14.523   2.040  1.00  0.00     0.222 C 
HETATM   10  O   UNL     1      41.048 -14.366   2.137  1.00  0.00    -0.273 OA
HETATM   11  H   UNL     1      44.141 -13.677   2.079  1.00  0.00     0.162 HD
BRANCH   9  12
HETATM   12  C   UNL     1      42.876 -15.823   1.543  1.00  0.00     0.141 C 
BRANCH  12  13
HETATM   13  C   UNL     1      43.232 -16.828   2.620  1.00  0.00    -0.049 A 
HETATM   14  C   UNL     1      43.431 -16.480   3.963  1.00  0.00     0.010 A 
HETATM   15  C   UNL     1      43.792 -17.443   4.915  1.00  0.00     0.037 A 
HETATM   16  C   UNL     1      43.973 -18.771   4.538  1.00  0.00     0.068 A 
HETATM   17  C   UNL     1      43.784 -19.127   3.203  1.00  0.00     0.037 A 
HETATM   18  C   UNL     1      43.419 -18.169   2.252  1.00  0.00     0.010 A 
BRANCH  16  19
HETATM   19  O   UNL     1      44.334 -19.800   5.364  1.00  0.00    -0.356 OA
HETATM   20  C   UNL     1      43.848 -21.092   5.026  1.00  0.00     0.210 C 
ENDBRANCH  16  19
ENDBRANCH  12  13
ENDBRANCH   9  12
ENDBRANCH   7   8
ENDBRANCH   1   7
BRANCH   4  21
HETATM   21  N   UNL     1      43.021 -10.670   8.151  1.00  0.00    -0.321 N 
HETATM   22  C   UNL     1      44.117 -10.612   8.993  1.00  0.00     0.279 C 
HETATM   23  O   UNL     1      45.256 -10.969   8.708  1.00  0.00    -0.265 OA
HETATM   24  H   UNL     1      42.155 -10.347   8.567  1.00  0.00     0.169 HD
BRANCH  22  25
HETATM   25  C   UNL     1      43.782 -10.073  10.301  1.00  0.00     0.142 A 
HETATM   26  O   UNL     1      43.306 -10.915  11.276  1.00  0.00    -0.317 OA
HETATM   27  C   UNL     1      43.073 -10.157  12.379  1.00  0.00     0.143 A 
HETATM   28  C   UNL     1      43.394  -8.842  12.139  1.00  0.00     0.027 A 
HETATM   29  C   UNL     1      43.851  -8.786  10.800  1.00  0.00     0.045 A 
ENDBRANCH  22  25
ENDBRANCH   4  21
TORSDOF 7
ENDMDL
MODEL 4
REMARK VINA RESULT:      -7.7      6.575     10.314
REMARK  7 active torsions:
REMARK  status: ('A' for Active; 'I' for Inactive)
REMARK    1  A    between atoms: O_2  and  C_3 
REMARK    2  A    between atoms: C_6  and  C_7 
REMARK    3  A    between atoms: C_7  and  C_8 
REMARK       I    between atoms: C_8  and  N_9 
REMARK    4  A    between atoms: N_9  and  C_10 
REMARK    5  A    between atoms: C_10  and  C_11 
REMARK    6  A    between atoms: C_14  and  N_15 
REMARK       I    between atoms: N_15  and  C_16 
REMARK    7  A    between atoms: C_16  and  C_17 
ROOT
HETATM    1  C   UNL     1      44.625 -10.626   7.727  1.00  0.00    -0.040 A 
HETATM    2  C   UNL     1      45.581 -10.475   8.740  1.00  0.00     0.011 A 
HETATM    3  C   UNL     1      45.230  -9.934   9.985  1.00  0.00     0.030 A 
HETATM    4  C   UNL     1      43.923  -9.515  10.233  1.00  0.00     0.035 A 
HETATM    5  C   UNL     1      42.968  -9.652   9.220  1.00  0.00     0.030 A 
HETATM    6  C   UNL     1      43.314 -10.203   7.982  1.00  0.00     0.011 A 
ENDROOT
BRANCH   1   7
HETATM    7  C   UNL     1      44.984 -11.164   6.364  1.00  0.00     0.161 C 
BRANCH   7   8
HETATM    8  N   UNL     1      43.834 -11.628   5.618  1.00  0.00    -0.357 N 
HETATM    9  C   UNL     1      43.893 -11.785   4.250  1.00  0.00     0.222 C 
HETATM   10  O   UNL     1      44.847 -11.411   3.573  1.00  0.00    -0.273 OA
HETATM   11  H   UNL     1      43.102 -12.104   6.126  1.00  0.00     0.162 HD
BRANCH   9  12
HETATM   12  C   UNL     1      42.694 -12.495   3.641  1.00  0.00     0.141 C 
BRANCH  12  13
HETATM   13  C   UNL     1      42.883 -13.972   3.364  1.00  0.00    -0.049 A 
HETATM   14  C   UNL     1      42.905 -14.948   4.370  1.00  0.00     0.010 A 
HETATM   15  C   UNL     1      43.118 -16.299   4.064  1.00  0.00     0.037 A 
HETATM   16  C   UNL     1      43.325 -16.698   2.746  1.00  0.00     0.068 A 
HETATM   17  C   UNL     1      43.311 -15.734   1.737  1.00  0.00     0.037 A 
HETATM   18  C   UNL     1      43.095 -14.386   2.041  1.00  0.00     0.010 A 
BRANCH  16  19
HETATM   19  O   UNL     1      43.552 -17.977   2.318  1.00  0.00    -0.356 OA
HETATM   20  C   UNL     1      43.893 -18.933   3.312  1.00  0.00     0.210 C 
ENDBRANCH  16  19
ENDBRANCH  12  13
ENDBRANCH   9  12
ENDBRANCH   7   8
ENDBRANCH   1   7
BRANCH   4  21
HETATM   21  N   UNL     1      43.491  -8.946  11.445  1.00  0.00    -0.321 N 
HETATM   22  C   UNL     1      42.884  -9.567  12.522  1.00  0.00     0.279 C 
HETATM   23  O   UNL     1      42.598 -10.758  12.591  1.00  0.00    -0.265 OA
HETATM   24  H   UNL     1      43.634  -7.949  11.562  1.00  0.00     0.169 HD
BRANCH  22  25
HETATM   25  C   UNL     1      42.600  -8.642  13.606  1.00  0.00     0.142 A 
HETATM   26  O   UNL     1      43.374  -7.517  13.754  1.00  0.00    -0.317 OA
HETATM   27  C   UNL     1      42.899  -6.844  14.834  1.00  0.00     0.143 A 
HETATM   28  C   UNL     1      41.830  -7.508  15.385  1.00  0.00     0.027 A 
HETATM   29  C   UNL     1      41.636  -8.668  14.597  1.00  0.00     0.045 A 
ENDBRANCH  22  25
ENDBRANCH   4  21
TORSDOF 7
ENDMDL
MODEL 5
REMARK VINA RESULT:      -7.5      5.507      9.501
REMARK  7 active torsions:
REMARK  status: ('A' for Active; 'I' for Inactive)
REMARK    1  A    between atoms: O_2  and  C_3 
REMARK    2  A    between atoms: C_6  and  C_7 
REMARK    3  A    between atoms: C_7  and  C_8 
REMARK       I    between atoms: C_8  and  N_9 
REMARK    4  A    between atoms: N_9  and  C_10 
REMARK    5  A    between atoms: C_10  and  C_11 
REMARK    6  A    between atoms: C_14  and  N_15 
REMARK       I    between atoms: N_15  and  C_16 
REMARK    7  A    between atoms: C_16  and  C_17 
ROOT
HETATM    1  C   UNL     1      43.045 -12.702   5.859  1.00  0.00    -0.040 A 
HETATM    2  C   UNL     1      43.530 -13.753   6.648  1.00  0.00     0.011 A 
HETATM    3  C   UNL     1      43.675 -15.042   6.118  1.00  0.00     0.030 A 
HETATM    4  C   UNL     1      43.319 -15.310   4.797  1.00  0.00     0.035 A 
HETATM    5  C   UNL     1      42.822 -14.267   4.008  1.00  0.00     0.030 A 
HETATM    6  C   UNL     1      42.688 -12.978   4.533  1.00  0.00     0.011 A 
ENDROOT
BRANCH   1   7
HETATM    7  C   UNL     1      42.837 -11.315   6.415  1.00  0.00     0.161 C 
BRANCH   7   8
HETATM    8  N   UNL     1      43.812 -10.957   7.423  1.00  0.00    -0.357 N 
HETATM    9  C   UNL     1      43.799  -9.710   8.010  1.00  0.00     0.222 C 
HETATM   10  O   UNL     1      43.077  -8.795   7.623  1.00  0.00    -0.273 OA
HETATM   11  H   UNL     1      44.302 -11.706   7.892  1.00  0.00     0.162 HD
BRANCH   9  12
HETATM   12  C   UNL     1      44.728  -9.563   9.205  1.00  0.00     0.141 C 
BRANCH  12  13
HETATM   13  C   UNL     1      44.049  -9.545  10.559  1.00  0.00    -0.049 A 
HETATM   14  C   UNL     1      43.703 -10.707  11.263  1.00  0.00     0.010 A 
HETATM   15  C   UNL     1      43.044 -10.636  12.498  1.00  0.00     0.037 A 
HETATM   16  C   UNL     1      42.708  -9.401  13.047  1.00  0.00     0.068 A 
HETATM   17  C   UNL     1      43.042  -8.238  12.351  1.00  0.00     0.037 A 
HETATM   18  C   UNL     1      43.703  -8.307  11.120  1.00  0.00     0.010 A 
BRANCH  16  19
HETATM   19  O   UNL     1      42.059  -9.196  14.233  1.00  0.00    -0.356 OA
HETATM   20  C   UNL     1      41.883  -7.847  14.642  1.00  0.00     0.210 C 
ENDBRANCH  16  19
ENDBRANCH  12  13
ENDBRANCH   9  12
ENDBRANCH   7   8
ENDBRANCH   1   7
BRANCH   4  21
HETATM   21  N   UNL     1      43.416 -16.577   4.192  1.00  0.00    -0.321 N 
HETATM   22  C   UNL     1      43.594 -17.809   4.796  1.00  0.00     0.279 C 
HETATM   23  O   UNL     1      43.718 -18.003   6.001  1.00  0.00    -0.265 OA
HETATM   24  H   UNL     1      43.351 -16.611   3.181  1.00  0.00     0.169 HD
BRANCH  22  25
HETATM   25  C   UNL     1      43.628 -18.897   3.832  1.00  0.00     0.142 A 
HETATM   26  O   UNL     1      43.986 -20.156   4.248  1.00  0.00    -0.317 OA
HETATM   27  C   UNL     1      43.939 -20.966   3.158  1.00  0.00     0.143 A 
HETATM   28  C   UNL     1      43.553 -20.257   2.046  1.00  0.00     0.027 A 
HETATM   29  C   UNL     1      43.353 -18.923   2.478  1.00  0.00     0.045 A 
ENDBRANCH  22  25
ENDBRANCH   4  21
TORSDOF 7
ENDMDL
MODEL 6
REMARK VINA RESULT:      -7.2      2.075      7.962
REMARK  7 active torsions:
REMARK  status: ('A' for Active; 'I' for Inactive)
REMARK    1  A    between atoms: O_2  and  C_3 
REMARK    2  A    between atoms: C_6  and  C_7 
REMARK    3  A    between atoms: C_7  and  C_8 
REMARK       I    between atoms: C_8  and  N_9 
REMARK    4  A    between atoms: N_9  and  C_10 
REMARK    5  A    between atoms: C_10  and  C_11 
REMARK    6  A    between atoms: C_14  and  N_15 
REMARK       I    between atoms: N_15  and  C_16 
REMARK    7  A    between atoms: C_16  and  C_17 
ROOT
HETATM    1  C   UNL     1      41.600 -12.701   4.346  1.00  0.00    -0.040 A 
HETATM    2  C   UNL     1      40.720 -13.681   3.869  1.00  0.00     0.011 A 
HETATM    3  C   UNL     1      41.072 -15.038   3.896  1.00  0.00     0.030 A 
HETATM    4  C   UNL     1      42.316 -15.439   4.382  1.00  0.00     0.035 A 
HETATM    5  C   UNL     1      43.203 -14.463   4.847  1.00  0.00     0.030 A 
HETATM    6  C   UNL     1      42.849 -13.110   4.831  1.00  0.00     0.011 A 
ENDROOT
BRANCH   1   7
HETATM    7  C   UNL     1      41.266 -11.231   4.289  1.00  0.00     0.161 C 
BRANCH   7   8
HETATM    8  N   UNL     1      40.450 -10.881   3.146  1.00  0.00    -0.357 N 
HETATM    9  C   UNL     1      41.014 -10.695   1.902  1.00  0.00     0.222 C 
HETATM   10  O   UNL     1      42.228 -10.668   1.715  1.00  0.00    -0.273 OA
HETATM   11  H   UNL     1      39.457 -11.058   3.203  1.00  0.00     0.162 HD
BRANCH   9  12
HETATM   12  C   UNL     1      40.013 -10.562   0.766  1.00  0.00     0.141 C 
BRANCH  12  13
HETATM   13  C   UNL     1      39.743 -11.831  -0.016  1.00  0.00    -0.049 A 
HETATM   14  C   UNL     1      40.186 -13.096   0.393  1.00  0.00     0.010 A 
HETATM   15  C   UNL     1      39.939 -14.236  -0.385  1.00  0.00     0.037 A 
HETATM   16  C   UNL     1      39.254 -14.130  -1.593  1.00  0.00     0.068 A 
HETATM   17  C   UNL     1      38.814 -12.874  -2.011  1.00  0.00     0.037 A 
HETATM   18  C   UNL     1      39.056 -11.736  -1.235  1.00  0.00     0.010 A 
BRANCH  16  19
HETATM   19  O   UNL     1      38.959 -15.158  -2.444  1.00  0.00    -0.356 OA
HETATM   20  C   UNL     1      38.129 -14.850  -3.556  1.00  0.00     0.210 C 
ENDBRANCH  16  19
ENDBRANCH  12  13
ENDBRANCH   9  12
ENDBRANCH   7   8
ENDBRANCH   1   7
BRANCH   4  21
HETATM   21  N   UNL     1      42.755 -16.775   4.428  1.00  0.00    -0.321 N 
HETATM   22  C   UNL     1      43.338 -17.526   3.424  1.00  0.00     0.279 C 
HETATM   23  O   UNL     1      43.562 -17.140   2.281  1.00  0.00    -0.265 OA
HETATM   24  H   UNL     1      42.633 -17.269   5.305  1.00  0.00     0.169 HD
BRANCH  22  25
HETATM   25  C   UNL     1      43.672 -18.871   3.862  1.00  0.00     0.142 A 
HETATM   26  O   UNL     1      43.594 -19.911   2.968  1.00  0.00    -0.317 OA
HETATM   27  C   UNL     1      43.950 -21.039   3.635  1.00  0.00     0.143 A 
HETATM   28  C   UNL     1      44.261 -20.750   4.942  1.00  0.00     0.027 A 
HETATM   29  C   UNL     1      44.082 -19.354   5.090  1.00  0.00     0.045 A 
ENDBRANCH  22  25
ENDBRANCH   4  21
TORSDOF 7
ENDMDL
MODEL 7
REMARK VINA RESULT:      -7.2      3.640      9.653
REMARK  7 active torsions:
REMARK  status: ('A' for Active; 'I' for Inactive)
REMARK    1  A    between atoms: O_2  and  C_3 
REMARK    2  A    between atoms: C_6  and  C_7 
REMARK    3  A    between atoms: C_7  and  C_8 
REMARK       I    between atoms: C_8  and  N_9 
REMARK    4  A    between atoms: N_9  and  C_10 
REMARK    5  A    between atoms: C_10  and  C_11 
REMARK    6  A    between atoms: C_14  and  N_15 
REMARK       I    between atoms: N_15  and  C_16 
REMARK    7  A    between atoms: C_16  and  C_17 
ROOT
HETATM    1  C   UNL     1      42.694 -14.645   3.553  1.00  0.00    -0.040 A 
HETATM    2  C   UNL     1      42.930 -13.280   3.344  1.00  0.00     0.011 A 
HETATM    3  C   UNL     1      43.321 -12.447   4.401  1.00  0.00     0.030 A 
HETATM    4  C   UNL     1      43.464 -12.959   5.691  1.00  0.00     0.035 A 
HETATM    5  C   UNL     1      43.217 -14.318   5.907  1.00  0.00     0.030 A 
HETATM    6  C   UNL     1      42.838 -15.152   4.851  1.00  0.00     0.011 A 
ENDROOT
BRANCH   1   7
HETATM    7  C   UNL     1      42.229 -15.555   2.443  1.00  0.00     0.161 C 
BRANCH   7   8
HETATM    8  N   UNL     1      42.116 -14.880   1.168  1.00  0.00    -0.357 N 
HETATM    9  C   UNL     1      40.883 -14.628   0.607  1.00  0.00     0.222 C 
HETATM   10  O   UNL     1      39.835 -15.078   1.063  1.00  0.00    -0.273 OA
HETATM   11  H   UNL     1      42.911 -14.348   0.843  1.00  0.00     0.162 HD
BRANCH   9  12
HETATM   12  C   UNL     1      40.915 -13.715  -0.609  1.00  0.00     0.141 C 
BRANCH  12  13
HETATM   13  C   UNL     1      39.607 -13.591  -1.364  1.00  0.00    -0.049 A 
HETATM   14  C   UNL     1      39.213 -14.483  -2.371  1.00  0.00     0.010 A 
HETATM   15  C   UNL     1      38.008 -14.305  -3.064  1.00  0.00     0.037 A 
HETATM   16  C   UNL     1      37.180 -13.224  -2.772  1.00  0.00     0.068 A 
HETATM   17  C   UNL     1      37.567 -12.327  -1.775  1.00  0.00     0.037 A 
HETATM   18  C   UNL     1      38.767 -12.505  -1.080  1.00  0.00     0.010 A 
BRANCH  16  19
HETATM   19  O   UNL     1      35.990 -12.934  -3.379  1.00  0.00    -0.356 OA
HETATM   20  C   UNL     1      35.600 -11.567  -3.403  1.00  0.00     0.210 C 
ENDBRANCH  16  19
ENDBRANCH  12  13
ENDBRANCH   9  12
ENDBRANCH   7   8
ENDBRANCH   1   7
BRANCH   4  21
HETATM   21  N   UNL     1      43.835 -12.191   6.810  1.00  0.00    -0.321 N 
HETATM   22  C   UNL     1      45.007 -11.489   7.024  1.00  0.00     0.279 C 
HETATM   23  O   UNL     1      45.958 -11.433   6.250  1.00  0.00    -0.265 OA
HETATM   24  H   UNL     1      43.168 -12.135   7.571  1.00  0.00     0.169 HD
BRANCH  22  25
HETATM   25  C   UNL     1      45.013 -10.799   8.303  1.00  0.00     0.142 A 
HETATM   26  O   UNL     1      44.127 -11.181   9.280  1.00  0.00    -0.317 OA
HETATM   27  C   UNL     1      44.345 -10.378  10.354  1.00  0.00     0.143 A 
HETATM   28  C   UNL     1      45.358  -9.486  10.094  1.00  0.00     0.027 A 
HETATM   29  C   UNL     1      45.790  -9.756   8.772  1.00  0.00     0.045 A 
ENDBRANCH  22  25
ENDBRANCH   4  21
TORSDOF 7
ENDMDL
MODEL 8
REMARK VINA RESULT:      -7.0      3.078      8.060
REMARK  7 active torsions:
REMARK  status: ('A' for Active; 'I' for Inactive)
REMARK    1  A    between atoms: O_2  and  C_3 
REMARK    2  A    between atoms: C_6  and  C_7 
REMARK    3  A    between atoms: C_7  and  C_8 
REMARK       I    between atoms: C_8  and  N_9 
REMARK    4  A    between atoms: N_9  and  C_10 
REMARK    5  A    between atoms: C_10  and  C_11 
REMARK    6  A    between atoms: C_14  and  N_15 
REMARK       I    between atoms: N_15  and  C_16 
REMARK    7  A    between atoms: C_16  and  C_17 
ROOT
HETATM    1  C   UNL     1      41.200 -13.706   1.170  1.00  0.00    -0.040 A 
HETATM    2  C   UNL     1      40.317 -14.781   1.332  1.00  0.00     0.011 A 
HETATM    3  C   UNL     1      40.755 -15.996   1.876  1.00  0.00     0.030 A 
HETATM    4  C   UNL     1      42.088 -16.167   2.248  1.00  0.00     0.035 A 
HETATM    5  C   UNL     1      42.977 -15.101   2.076  1.00  0.00     0.030 A 
HETATM    6  C   UNL     1      42.538 -13.884   1.544  1.00  0.00     0.011 A 
ENDROOT
BRANCH   1   7
HETATM    7  C   UNL     1      40.767 -12.403   0.547  1.00  0.00     0.161 C 
BRANCH   7   8
HETATM    8  N   UNL     1      41.193 -11.245   1.302  1.00  0.00    -0.357 N 
HETATM    9  C   UNL     1      40.564 -10.894   2.478  1.00  0.00     0.222 C 
HETATM   10  O   UNL     1      39.535 -11.435   2.874  1.00  0.00    -0.273 OA
HETATM   11  H   UNL     1      42.117 -10.877   1.123  1.00  0.00     0.162 HD
BRANCH   9  12
HETATM   12  C   UNL     1      41.266  -9.803   3.271  1.00  0.00     0.141 C 
BRANCH  12  13
HETATM   13  C   UNL     1      42.176 -10.288   4.381  1.00  0.00    -0.049 A 
HETATM   14  C   UNL     1      42.030  -9.901   5.720  1.00  0.00     0.010 A 
HETATM   15  C   UNL     1      42.921 -10.352   6.705  1.00  0.00     0.037 A 
HETATM   16  C   UNL     1      43.981 -11.188   6.365  1.00  0.00     0.068 A 
HETATM   17  C   UNL     1      44.139 -11.573   5.033  1.00  0.00     0.037 A 
HETATM   18  C   UNL     1      43.249 -11.128   4.051  1.00  0.00     0.010 A 
BRANCH  16  19
HETATM   19  O   UNL     1      44.920 -11.687   7.225  1.00  0.00    -0.356 OA
HETATM   20  C   UNL     1      45.764 -10.742   7.869  1.00  0.00     0.210 C 
ENDBRANCH  16  19
ENDBRANCH  12  13
ENDBRANCH   9  12
ENDBRANCH   7   8
ENDBRANCH   1   7
BRANCH   4  21
HETATM   21  N   UNL     1      42.614 -17.357   2.784  1.00  0.00    -0.321 N 
HETATM   22  C   UNL     1      43.230 -17.554   4.007  1.00  0.00     0.279 C 
HETATM   23  O   UNL     1      43.439 -16.687   4.849  1.00  0.00    -0.265 OA
HETATM   24  H   UNL     1      42.545 -18.190   2.210  1.00  0.00     0.169 HD
BRANCH  22  25
HETATM   25  C   UNL     1      43.626 -18.938   4.210  1.00  0.00     0.142 A 
HETATM   26  O   UNL     1      43.618 -19.806   3.145  1.00  0.00    -0.317 OA
HETATM   27  C   UNL     1      44.021 -21.016   3.613  1.00  0.00     0.143 A 
HETATM   28  C   UNL     1      44.296 -20.947   4.958  1.00  0.00     0.027 A 
HETATM   29  C   UNL     1      44.041 -19.609   5.345  1.00  0.00     0.045 A 
ENDBRANCH  22  25
ENDBRANCH   4  21
TORSDOF 7
ENDMDL
MODEL 9
REMARK VINA RESULT:      -6.9      3.897      9.402
REMARK  7 active torsions:
REMARK  status: ('A' for Active; 'I' for Inactive)
REMARK    1  A    between atoms: O_2  and  C_3 
REMARK    2  A    between atoms: C_6  and  C_7 
REMARK    3  A    between atoms: C_7  and  C_8 
REMARK       I    between atoms: C_8  and  N_9 
REMARK    4  A    between atoms: N_9  and  C_10 
REMARK    5  A    between atoms: C_10  and  C_11 
REMARK    6  A    between atoms: C_14  and  N_15 
REMARK       I    between atoms: N_15  and  C_16 
REMARK    7  A    between atoms: C_16  and  C_17 
ROOT
HETATM    1  C   UNL     1      42.882 -14.837   3.479  1.00  0.00    -0.040 A 
HETATM    2  C   UNL     1      43.165 -15.409   4.726  1.00  0.00     0.011 A 
HETATM    3  C   UNL     1      43.436 -14.605   5.842  1.00  0.00     0.030 A 
HETATM    4  C   UNL     1      43.450 -13.216   5.727  1.00  0.00     0.035 A 
HETATM    5  C   UNL     1      43.182 -12.640   4.482  1.00  0.00     0.030 A 
HETATM    6  C   UNL     1      42.900 -13.440   3.371  1.00  0.00     0.011 A 
ENDROOT
BRANCH   1   7
HETATM    7  C   UNL     1      42.630 -15.678   2.252  1.00  0.00     0.161 C 
BRANCH   7   8
HETATM    8  N   UNL     1      42.015 -14.935   1.173  1.00  0.00    -0.357 N 
HETATM    9  C   UNL     1      40.675 -15.081   0.887  1.00  0.00     0.222 C 
HETATM   10  O   UNL     1      39.966 -15.936   1.413  1.00  0.00    -0.273 OA
HETATM   11  H   UNL     1      42.494 -14.113   0.832  1.00  0.00     0.162 HD
BRANCH   9  12
HETATM   12  C   UNL     1      40.127 -14.073  -0.111  1.00  0.00     0.141 C 
BRANCH  12  13
HETATM   13  C   UNL     1      40.130 -12.630   0.352  1.00  0.00    -0.049 A 
HETATM   14  C   UNL     1      40.738 -11.592  -0.367  1.00  0.00     0.010 A 
HETATM   15  C   UNL     1      40.743 -10.279   0.123  1.00  0.00     0.037 A 
HETATM   16  C   UNL     1      40.149  -9.981   1.347  1.00  0.00     0.068 A 
HETATM   17  C   UNL     1      39.546 -11.009   2.073  1.00  0.00     0.037 A 
HETATM   18  C   UNL     1      39.537 -12.319   1.584  1.00  0.00     0.010 A 
BRANCH  16  19
HETATM   19  O   UNL     1      40.094  -8.749   1.937  1.00  0.00    -0.356 OA
HETATM   20  C   UNL     1      40.668  -8.634   3.232  1.00  0.00     0.210 C 
ENDBRANCH  16  19
ENDBRANCH  12  13
ENDBRANCH   9  12
ENDBRANCH   7   8
ENDBRANCH   1   7
BRANCH   4  21
HETATM   21  N   UNL     1      43.730 -12.337   6.790  1.00  0.00    -0.321 N 
HETATM   22  C   UNL     1      44.884 -11.611   7.028  1.00  0.00     0.279 C 
HETATM   23  O   UNL     1      45.895 -11.629   6.333  1.00  0.00    -0.265 OA
HETATM   24  H   UNL     1      43.003 -12.209   7.485  1.00  0.00     0.169 HD
BRANCH  22  25
HETATM   25  C   UNL     1      44.787 -10.796   8.228  1.00  0.00     0.142 A 
HETATM   26  O   UNL     1      44.068 -11.260   9.302  1.00  0.00    -0.317 OA
HETATM   27  C   UNL     1      44.139 -10.310  10.271  1.00  0.00     0.143 A 
HETATM   28  C   UNL     1      44.893  -9.242   9.846  1.00  0.00     0.027 A 
HETATM   29  C   UNL     1      45.311  -9.554   8.530  1.00  0.00     0.045 A 
ENDBRANCH  22  25
ENDBRANCH   4  21
TORSDOF 7
ENDMDL
MODEL 10
REMARK VINA RESULT:      -6.9      3.943      8.783
REMARK  7 active torsions:
REMARK  status: ('A' for Active; 'I' for Inactive)
REMARK    1  A    between atoms: O_2  and  C_3 
REMARK    2  A    between atoms: C_6  and  C_7 
REMARK    3  A    between atoms: C_7  and  C_8 
REMARK       I    between atoms: C_8  and  N_9 
REMARK    4  A    between atoms: N_9  and  C_10 
REMARK    5  A    between atoms: C_10  and  C_11 
REMARK    6  A    between atoms: C_14  and  N_15 
REMARK       I    between atoms: N_15  and  C_16 
REMARK    7  A    between atoms: C_16  and  C_17 
ROOT
HETATM    1  C   UNL     1      43.137 -14.945   4.805  1.00  0.00    -0.040 A 
HETATM    2  C   UNL     1      43.344 -15.136   6.177  1.00  0.00     0.011 A 
HETATM    3  C   UNL     1      43.373 -14.046   7.059  1.00  0.00     0.030 A 
HETATM    4  C   UNL     1      43.217 -12.745   6.583  1.00  0.00     0.035 A 
HETATM    5  C   UNL     1      43.022 -12.548   5.211  1.00  0.00     0.030 A 
HETATM    6  C   UNL     1      42.981 -13.635   4.333  1.00  0.00     0.011 A 
ENDROOT
BRANCH   1   7
HETATM    7  C   UNL     1      43.144 -16.095   3.828  1.00  0.00     0.161 C 
BRANCH   7   8
HETATM    8  N   UNL     1      42.091 -16.005   2.840  1.00  0.00    -0.357 N 
HETATM    9  C   UNL     1      40.767 -16.112   3.204  1.00  0.00     0.222 C 
HETATM   10  O   UNL     1      40.406 -16.431   4.334  1.00  0.00    -0.273 OA
HETATM   11  H   UNL     1      42.314 -15.581   1.950  1.00  0.00     0.162 HD
BRANCH   9  12
HETATM   12  C   UNL     1      39.776 -15.768   2.102  1.00  0.00     0.141 C 
BRANCH  12  13
HETATM   13  C   UNL     1      40.051 -14.476   1.361  1.00  0.00    -0.049 A 
HETATM   14  C   UNL     1      40.331 -14.420  -0.012  1.00  0.00     0.010 A 
HETATM   15  C   UNL     1      40.612 -13.202  -0.644  1.00  0.00     0.037 A 
HETATM   16  C   UNL     1      40.631 -12.016   0.087  1.00  0.00     0.068 A 
HETATM   17  C   UNL     1      40.360 -12.062   1.455  1.00  0.00     0.037 A 
HETATM   18  C   UNL     1      40.075 -13.276   2.087  1.00  0.00     0.010 A 
BRANCH  16  19
HETATM   19  O   UNL     1      40.900 -10.770  -0.407  1.00  0.00    -0.356 OA
HETATM   20  C   UNL     1      41.284 -10.692  -1.773  1.00  0.00     0.210 C 
ENDBRANCH  16  19
ENDBRANCH  12  13
ENDBRANCH   9  12
ENDBRANCH   7   8
ENDBRANCH   1   7
BRANCH   4  21
HETATM   21  N   UNL     1      43.251 -11.596   7.394  1.00  0.00    -0.321 N 
HETATM   22  C   UNL     1      44.353 -10.913   7.876  1.00  0.00     0.279 C 
HETATM   23  O   UNL     1      45.525 -11.219   7.681  1.00  0.00    -0.265 OA
HETATM   24  H   UNL     1      42.359 -11.204   7.675  1.00  0.00     0.169 HD
BRANCH  22  25
HETATM   25  C   UNL     1      43.982  -9.755   8.672  1.00  0.00     0.142 A 
HETATM   26  O   UNL     1      43.195  -9.925   9.785  1.00  0.00    -0.317 OA
HETATM   27  C   UNL     1      43.001  -8.695  10.329  1.00  0.00     0.143 A 
HETATM   28  C   UNL     1      43.650  -7.733   9.593  1.00  0.00     0.027 A 
HETATM   29  C   UNL     1      44.282  -8.414   8.524  1.00  0.00     0.045 A 
ENDBRANCH  22  25
ENDBRANCH   4  21
TORSDOF 7
ENDMDL
