MODEL 1
REMARK VINA RESULT:      -9.0      0.000      0.000
REMARK  7 active torsions:
REMARK  status: ('A' for Active; 'I' for Inactive)
REMARK    1  A    between atoms: C_2  and  N_3 
REMARK    2  A    between atoms: C_5  and  C_6 
REMARK    3  A    between atoms: C_6  and  N_7 
REMARK       I    between atoms: N_7  and  C_8 
REMARK    4  A    between atoms: C_8  and  C_9 
REMARK    5  A    between atoms: N_15  and  C_16 
REMARK    6  A    between atoms: C_16  and  C_17 
REMARK       I    between atoms: C_17  and  N_18 
REMARK    7  A    between atoms: N_18  and  C_19 
ROOT
HETATM    1  C   UNL     1      43.931 -10.248   8.212  1.00  0.00     0.081 C 
HETATM    2  S   UNL     1      45.352 -10.673   7.350  1.00  0.00    -0.063 SA
HETATM    3  C   UNL     1      44.489 -10.985   5.924  1.00  0.00     0.116 C 
HETATM    4  C   UNL     1      43.140 -10.750   6.074  1.00  0.00     0.075 C 
HETATM    5  C   UNL     1      42.284 -11.108   4.948  1.00  0.00     0.262 C 
HETATM    6  O   UNL     1      41.068 -10.927   4.936  1.00  0.00    -0.267 OA
HETATM    7  N   UNL     1      42.953 -11.725   3.897  1.00  0.00    -0.299 N 
HETATM    8  C   UNL     1      44.331 -11.816   3.863  1.00  0.00     0.214 C 
HETATM    9  N   UNL     1      45.121 -11.460   4.822  1.00  0.00    -0.235 NA
HETATM   10  C   UNL     1      42.805 -10.227   7.386  1.00  0.00    -0.021 C 
HETATM   11  C   UNL     1      41.422  -9.834   7.809  1.00  0.00     0.051 C 
ENDROOT
BRANCH   1  12
HETATM   12  C   UNL     1      44.081 -10.054   9.646  1.00  0.00     0.259 C 
HETATM   13  N   UNL     1      43.311 -10.840  10.478  1.00  0.00    -0.354 N 
HETATM   14  H   UNL     1      42.471 -11.240  10.072  1.00  0.00     0.162 HD
HETATM   15  O   UNL     1      44.912  -9.299  10.160  1.00  0.00    -0.267 OA
BRANCH  13  16
HETATM   16  C   UNL     1      43.375 -10.729  11.931  1.00  0.00     0.156 C 
BRANCH  16  17
HETATM   17  C   UNL     1      42.323  -9.792  12.594  1.00  0.00     0.206 C 
HETATM   18  N   UNL     1      41.253  -9.329  11.602  1.00  0.00    -0.066 N 
HETATM   19  H   UNL     1      41.598  -9.578  10.650  1.00  0.00     0.280 HD
HETATM   20  C   UNL     1      41.204  -7.821  11.647  1.00  0.00     0.235 C 
HETATM   21  C   UNL     1      42.583  -7.430  12.128  1.00  0.00     0.030 C 
HETATM   22  C   UNL     1      42.910  -8.496  13.155  1.00  0.00     0.036 C 
BRANCH  18  23
HETATM   23  C   UNL     1      39.926 -10.014  11.745  1.00  0.00     0.231 C 
HETATM   24  C   UNL     1      39.759 -10.569  13.148  1.00  0.00     0.034 C 
ENDBRANCH  18  23
ENDBRANCH  16  17
ENDBRANCH  13  16
ENDBRANCH   1  12
BRANCH   7  25
HETATM   25  C   UNL     1      42.164 -12.346   2.851  1.00  0.00     0.236 C 
BRANCH  25  26
HETATM   26  C   UNL     1      42.601 -13.786   2.618  1.00  0.00     0.240 C 
HETATM   27  N   UNL     1      42.164 -14.645   3.610  1.00  0.00    -0.326 N 
HETATM   28  H   UNL     1      41.383 -14.324   4.181  1.00  0.00     0.169 HD
HETATM   29  O   UNL     1      43.226 -14.093   1.609  1.00  0.00    -0.271 OA
BRANCH  27  30
HETATM   30  C   UNL     1      42.646 -15.942   3.875  1.00  0.00     0.036 A 
HETATM   31  C   UNL     1      42.607 -16.983   2.946  1.00  0.00     0.053 A 
HETATM   32  C   UNL     1      43.186 -18.222   3.245  1.00  0.00     0.042 A 
HETATM   33 CL   UNL     1      43.130 -19.453   2.033  1.00  0.00    -0.084 Cl
HETATM   34  C   UNL     1      43.808 -18.446   4.482  1.00  0.00    -0.040 A 
HETATM   35  C   UNL     1      44.459 -19.758   4.819  1.00  0.00     0.050 C 
HETATM   36  C   UNL     1      43.829 -17.402   5.416  1.00  0.00     0.011 A 
HETATM   37  C   UNL     1      43.257 -16.162   5.113  1.00  0.00     0.030 A 
ENDBRANCH  27  30
ENDBRANCH  25  26
ENDBRANCH   7  25
TORSDOF 7
ENDMDL
MODEL 2
REMARK VINA RESULT:      -9.0      1.837      2.747
REMARK  7 active torsions:
REMARK  status: ('A' for Active; 'I' for Inactive)
REMARK    1  A    between atoms: C_2  and  N_3 
REMARK    2  A    between atoms: C_5  and  C_6 
REMARK    3  A    between atoms: C_6  and  N_7 
REMARK       I    between atoms: N_7  and  C_8 
REMARK    4  A    between atoms: C_8  and  C_9 
REMARK    5  A    between atoms: N_15  and  C_16 
REMARK    6  A    between atoms: C_16  and  C_17 
REMARK       I    between atoms: C_17  and  N_18 
REMARK    7  A    between atoms: N_18  and  C_19 
ROOT
HETATM    1  C   UNL     1      40.802  -9.770   6.505  1.00  0.00     0.081 C 
HETATM    2  S   UNL     1      42.515  -9.807   6.428  1.00  0.00    -0.063 SA
HETATM    3  C   UNL     1      42.511 -10.747   5.018  1.00  0.00     0.116 C 
HETATM    4  C   UNL     1      41.234 -11.018   4.581  1.00  0.00     0.075 C 
HETATM    5  C   UNL     1      41.109 -11.927   3.446  1.00  0.00     0.262 C 
HETATM    6  O   UNL     1      40.032 -12.233   2.938  1.00  0.00    -0.267 OA
HETATM    7  N   UNL     1      42.315 -12.467   3.012  1.00  0.00    -0.299 N 
HETATM    8  C   UNL     1      43.528 -12.029   3.505  1.00  0.00     0.214 C 
HETATM    9  N   UNL     1      43.673 -11.185   4.474  1.00  0.00    -0.235 NA
HETATM   10  C   UNL     1      40.216 -10.375   5.391  1.00  0.00    -0.021 C 
HETATM   11  C   UNL     1      38.744 -10.454   5.118  1.00  0.00     0.051 C 
ENDROOT
BRANCH   1  12
HETATM   12  C   UNL     1      40.223  -9.206   7.716  1.00  0.00     0.259 C 
HETATM   13  N   UNL     1      39.871 -10.084   8.720  1.00  0.00    -0.354 N 
HETATM   14  H   UNL     1      39.712 -11.048   8.444  1.00  0.00     0.162 HD
HETATM   15  O   UNL     1      40.112  -7.997   7.932  1.00  0.00    -0.267 OA
BRANCH  13  16
HETATM   16  C   UNL     1      39.279  -9.632   9.975  1.00  0.00     0.156 C 
BRANCH  16  17
HETATM   17  C   UNL     1      40.269  -9.065  11.034  1.00  0.00     0.206 C 
HETATM   18  N   UNL     1      41.460  -9.996  11.272  1.00  0.00    -0.066 N 
HETATM   19  H   UNL     1      41.224 -10.907  10.822  1.00  0.00     0.280 HD
HETATM   20  C   UNL     1      41.542 -10.271  12.754  1.00  0.00     0.235 C 
HETATM   21  C   UNL     1      40.126 -10.056  13.239  1.00  0.00     0.030 C 
HETATM   22  C   UNL     1      39.653  -8.870  12.421  1.00  0.00     0.036 C 
BRANCH  18  23
HETATM   23  C   UNL     1      42.744  -9.549  10.635  1.00  0.00     0.231 C 
HETATM   24  C   UNL     1      43.487  -8.591  11.547  1.00  0.00     0.034 C 
ENDBRANCH  18  23
ENDBRANCH  16  17
ENDBRANCH  13  16
ENDBRANCH   1  12
BRANCH   7  25
HETATM   25  C   UNL     1      42.275 -13.566   2.069  1.00  0.00     0.236 C 
BRANCH  25  26
HETATM   26  C   UNL     1      42.066 -14.894   2.785  1.00  0.00     0.240 C 
HETATM   27  N   UNL     1      43.255 -15.494   3.157  1.00  0.00    -0.326 N 
HETATM   28  H   UNL     1      44.075 -14.891   3.207  1.00  0.00     0.169 HD
HETATM   29  O   UNL     1      40.935 -15.304   3.023  1.00  0.00    -0.271 OA
BRANCH  27  30
HETATM   30  C   UNL     1      43.439 -16.840   3.534  1.00  0.00     0.036 A 
HETATM   31  C   UNL     1      43.511 -17.893   2.621  1.00  0.00     0.053 A 
HETATM   32  C   UNL     1      43.787 -19.193   3.060  1.00  0.00     0.042 A 
HETATM   33 CL   UNL     1      43.895 -20.441   1.869  1.00  0.00    -0.084 Cl
HETATM   34  C   UNL     1      43.988 -19.467   4.421  1.00  0.00    -0.040 A 
HETATM   35  C   UNL     1      44.310 -20.849   4.916  1.00  0.00     0.050 C 
HETATM   36  C   UNL     1      43.898 -18.407   5.333  1.00  0.00     0.011 A 
HETATM   37  C   UNL     1      43.630 -17.107   4.893  1.00  0.00     0.030 A 
ENDBRANCH  27  30
ENDBRANCH  25  26
ENDBRANCH   7  25
TORSDOF 7
ENDMDL
MODEL 3
REMARK VINA RESULT:      -8.9      4.286     10.384
REMARK  7 active torsions:
REMARK  status: ('A' for Active; 'I' for Inactive)
REMARK    1  A    between atoms: C_2  and  N_3 
REMARK    2  A    between atoms: C_5  and  C_6 
REMARK    3  A    between atoms: C_6  and  N_7 
REMARK       I    between atoms: N_7  and  C_8 
REMARK    4  A    between atoms: C_8  and  C_9 
REMARK    5  A    between atoms: N_15  and  C_16 
REMARK    6  A    between atoms: C_16  and  C_17 
REMARK       I    between atoms: C_17  and  N_18 
REMARK    7  A    between atoms: N_18  and  C_19 
ROOT
HETATM    1  C   UNL     1      40.924 -14.104   3.592  1.00  0.00     0.081 C 
HETATM    2  S   UNL     1      42.034 -15.112   4.426  1.00  0.00    -0.063 SA
HETATM    3  C   UNL     1      42.567 -13.843   5.414  1.00  0.00     0.116 C 
HETATM    4  C   UNL     1      41.904 -12.665   5.147  1.00  0.00     0.075 C 
HETATM    5  C   UNL     1      42.372 -11.476   5.850  1.00  0.00     0.262 C 
HETATM    6  O   UNL     1      41.854 -10.367   5.727  1.00  0.00    -0.267 OA
HETATM    7  N   UNL     1      43.496 -11.687   6.642  1.00  0.00    -0.299 N 
HETATM    8  C   UNL     1      43.999 -12.952   6.871  1.00  0.00     0.214 C 
HETATM    9  N   UNL     1      43.572 -14.033   6.304  1.00  0.00    -0.235 NA
HETATM   10  C   UNL     1      40.869 -12.821   4.141  1.00  0.00    -0.021 C 
HETATM   11  C   UNL     1      39.957 -11.720   3.691  1.00  0.00     0.051 C 
ENDROOT
BRANCH   1  12
HETATM   12  C   UNL     1      40.279 -14.683   2.423  1.00  0.00     0.259 C 
HETATM   13  N   UNL     1      40.610 -14.160   1.191  1.00  0.00    -0.354 N 
HETATM   14  H   UNL     1      40.992 -13.220   1.186  1.00  0.00     0.162 HD
HETATM   15  O   UNL     1      39.530 -15.663   2.459  1.00  0.00    -0.267 OA
BRANCH  13  16
HETATM   16  C   UNL     1      40.024 -14.660  -0.049  1.00  0.00     0.156 C 
BRANCH  16  17
HETATM   17  C   UNL     1      39.721 -13.592  -1.141  1.00  0.00     0.206 C 
HETATM   18  N   UNL     1      38.259 -13.141  -1.122  1.00  0.00    -0.066 N 
HETATM   19  H   UNL     1      37.744 -13.815  -0.515  1.00  0.00     0.280 HD
HETATM   20  C   UNL     1      37.702 -13.323  -2.513  1.00  0.00     0.235 C 
HETATM   21  C   UNL     1      38.570 -14.406  -3.111  1.00  0.00     0.030 C 
HETATM   22  C   UNL     1      39.950 -14.084  -2.572  1.00  0.00     0.036 C 
BRANCH  18  23
HETATM   23  C   UNL     1      38.027 -11.789  -0.514  1.00  0.00     0.231 C 
HETATM   24  C   UNL     1      39.308 -10.977  -0.513  1.00  0.00     0.034 C 
ENDBRANCH  18  23
ENDBRANCH  16  17
ENDBRANCH  13  16
ENDBRANCH   1  12
BRANCH   7  25
HETATM   25  C   UNL     1      44.187 -10.529   7.174  1.00  0.00     0.236 C 
BRANCH  25  26
HETATM   26  C   UNL     1      44.119 -10.504   8.695  1.00  0.00     0.240 C 
HETATM   27  N   UNL     1      42.927  -9.991   9.170  1.00  0.00    -0.326 N 
HETATM   28  H   UNL     1      42.141  -9.983   8.520  1.00  0.00     0.169 HD
HETATM   29  O   UNL     1      45.039 -10.958   9.369  1.00  0.00    -0.271 OA
BRANCH  27  30
HETATM   30  C   UNL     1      42.666  -9.534  10.478  1.00  0.00     0.036 A 
HETATM   31  C   UNL     1      41.571  -9.952  11.235  1.00  0.00     0.053 A 
HETATM   32  C   UNL     1      41.423  -9.527  12.561  1.00  0.00     0.042 A 
HETATM   33 CL   UNL     1      40.060 -10.112  13.449  1.00  0.00    -0.084 Cl
HETATM   34  C   UNL     1      42.363  -8.670  13.152  1.00  0.00    -0.040 A 
HETATM   35  C   UNL     1      42.241  -8.219  14.580  1.00  0.00     0.050 C 
HETATM   36  C   UNL     1      43.451  -8.242  12.380  1.00  0.00     0.011 A 
HETATM   37  C   UNL     1      43.602  -8.673  11.058  1.00  0.00     0.030 A 
ENDBRANCH  27  30
ENDBRANCH  25  26
ENDBRANCH   7  25
TORSDOF 7
ENDMDL
MODEL 4
REMARK VINA RESULT:      -8.8      4.530      9.011
REMARK  7 active torsions:
REMARK  status: ('A' for Active; 'I' for Inactive)
REMARK    1  A    between atoms: C_2  and  N_3 
REMARK    2  A    between atoms: C_5  and  C_6 
REMARK    3  A    between atoms: C_6  and  N_7 
REMARK       I    between atoms: N_7  and  C_8 
REMARK    4  A    between atoms: C_8  and  C_9 
REMARK    5  A    between atoms: N_15  and  C_16 
REMARK    6  A    between atoms: C_16  and  C_17 
REMARK       I    between atoms: C_17  and  N_18 
REMARK    7  A    between atoms: N_18  and  C_19 
ROOT
HETATM    1  C   UNL     1      39.501 -11.171   1.933  1.00  0.00     0.081 C 
HETATM    2  S   UNL     1      38.680 -10.790   3.391  1.00  0.00    -0.063 SA
HETATM    3  C   UNL     1      39.901 -11.471   4.349  1.00  0.00     0.116 C 
HETATM    4  C   UNL     1      40.940 -11.964   3.590  1.00  0.00     0.075 C 
HETATM    5  C   UNL     1      41.987 -12.687   4.304  1.00  0.00     0.262 C 
HETATM    6  O   UNL     1      42.983 -13.154   3.756  1.00  0.00    -0.267 OA
HETATM    7  N   UNL     1      41.741 -12.852   5.663  1.00  0.00    -0.299 N 
HETATM    8  C   UNL     1      40.686 -12.224   6.294  1.00  0.00     0.214 C 
HETATM    9  N   UNL     1      39.770 -11.532   5.697  1.00  0.00    -0.235 NA
HETATM   10  C   UNL     1      40.765 -11.713   2.171  1.00  0.00    -0.021 C 
HETATM   11  C   UNL     1      41.762 -12.093   1.118  1.00  0.00     0.051 C 
ENDROOT
BRANCH   1  12
HETATM   12  C   UNL     1      38.758 -10.956   0.700  1.00  0.00     0.259 C 
HETATM   13  N   UNL     1      38.293 -12.072   0.036  1.00  0.00    -0.354 N 
HETATM   14  H   UNL     1      38.767 -12.947   0.235  1.00  0.00     0.162 HD
HETATM   15  O   UNL     1      38.444  -9.844   0.265  1.00  0.00    -0.267 OA
BRANCH  13  16
HETATM   16  C   UNL     1      37.540 -11.977  -1.211  1.00  0.00     0.156 C 
BRANCH  16  17
HETATM   17  C   UNL     1      38.346 -12.237  -2.518  1.00  0.00     0.206 C 
HETATM   18  N   UNL     1      39.574 -13.117  -2.278  1.00  0.00    -0.066 N 
HETATM   19  H   UNL     1      39.711 -13.167  -1.245  1.00  0.00     0.280 HD
HETATM   20  C   UNL     1      40.778 -12.389  -2.823  1.00  0.00     0.235 C 
HETATM   21  C   UNL     1      40.370 -10.934  -2.777  1.00  0.00     0.030 C 
HETATM   22  C   UNL     1      38.906 -10.968  -3.165  1.00  0.00     0.036 C 
BRANCH  18  23
HETATM   23  C   UNL     1      39.427 -14.539  -2.736  1.00  0.00     0.231 C 
HETATM   24  C   UNL     1      38.194 -14.694  -3.606  1.00  0.00     0.034 C 
ENDBRANCH  18  23
ENDBRANCH  16  17
ENDBRANCH  13  16
ENDBRANCH   1  12
BRANCH   7  25
HETATM   25  C   UNL     1      42.583 -13.768   6.406  1.00  0.00     0.236 C 
BRANCH  25  26
HETATM   26  C   UNL     1      42.390 -15.200   5.926  1.00  0.00     0.240 C 
HETATM   27  N   UNL     1      43.535 -15.736   5.365  1.00  0.00    -0.326 N 
HETATM   28  H   UNL     1      44.416 -15.281   5.602  1.00  0.00     0.169 HD
HETATM   29  O   UNL     1      41.322 -15.778   6.099  1.00  0.00    -0.271 OA
BRANCH  27  30
HETATM   30  C   UNL     1      43.618 -16.883   4.551  1.00  0.00     0.036 A 
HETATM   31  C   UNL     1      44.019 -18.135   5.021  1.00  0.00     0.053 A 
HETATM   32  C   UNL     1      43.991 -19.251   4.176  1.00  0.00     0.042 A 
HETATM   33 CL   UNL     1      44.469 -20.775   4.838  1.00  0.00    -0.084 Cl
HETATM   34  C   UNL     1      43.570 -19.136   2.844  1.00  0.00    -0.040 A 
HETATM   35  C   UNL     1      43.507 -20.322   1.924  1.00  0.00     0.050 C 
HETATM   36  C   UNL     1      43.185 -17.873   2.374  1.00  0.00     0.011 A 
HETATM   37  C   UNL     1      43.205 -16.760   3.221  1.00  0.00     0.030 A 
ENDBRANCH  27  30
ENDBRANCH  25  26
ENDBRANCH   7  25
TORSDOF 7
ENDMDL
MODEL 5
REMARK VINA RESULT:      -8.7      1.880      2.365
REMARK  7 active torsions:
REMARK  status: ('A' for Active; 'I' for Inactive)
REMARK    1  A    between atoms: C_2  and  N_3 
REMARK    2  A    between atoms: C_5  and  C_6 
REMARK    3  A    between atoms: C_6  and  N_7 
REMARK       I    between atoms: N_7  and  C_8 
REMARK    4  A    between atoms: C_8  and  C_9 
REMARK    5  A    between atoms: N_15  and  C_16 
REMARK    6  A    between atoms: C_16  and  C_17 
REMARK       I    between atoms: C_17  and  N_18 
REMARK    7  A    between atoms: N_18  and  C_19 
ROOT
HETATM    1  C   UNL     1      40.996  -9.735   6.739  1.00  0.00     0.081 C 
HETATM    2  S   UNL     1      42.702  -9.799   6.568  1.00  0.00    -0.063 SA
HETATM    3  C   UNL     1      42.604 -10.670   5.118  1.00  0.00     0.116 C 
HETATM    4  C   UNL     1      41.300 -10.897   4.737  1.00  0.00     0.075 C 
HETATM    5  C   UNL     1      41.097 -11.748   3.570  1.00  0.00     0.262 C 
HETATM    6  O   UNL     1      39.988 -12.010   3.106  1.00  0.00    -0.267 OA
HETATM    7  N   UNL     1      42.267 -12.288   3.047  1.00  0.00    -0.299 N 
HETATM    8  C   UNL     1      43.513 -11.896   3.494  1.00  0.00     0.214 C 
HETATM    9  N   UNL     1      43.727 -11.102   4.492  1.00  0.00    -0.235 NA
HETATM   10  C   UNL     1      40.340 -10.275   5.630  1.00  0.00    -0.021 C 
HETATM   11  C   UNL     1      38.855 -10.315   5.433  1.00  0.00     0.051 C 
ENDROOT
BRANCH   1  12
HETATM   12  C   UNL     1      40.493  -9.220   8.004  1.00  0.00     0.259 C 
HETATM   13  N   UNL     1      40.958  -9.811   9.159  1.00  0.00    -0.354 N 
HETATM   14  H   UNL     1      41.329 -10.752   9.070  1.00  0.00     0.162 HD
HETATM   15  O   UNL     1      39.754  -8.237   8.106  1.00  0.00    -0.267 OA
BRANCH  13  16
HETATM   16  C   UNL     1      40.520  -9.380  10.483  1.00  0.00     0.156 C 
BRANCH  16  17
HETATM   17  C   UNL     1      41.503  -9.669  11.657  1.00  0.00     0.206 C 
HETATM   18  N   UNL     1      41.714  -8.445  12.551  1.00  0.00    -0.066 N 
HETATM   19  H   UNL     1      41.313  -7.628  12.042  1.00  0.00     0.280 HD
HETATM   20  C   UNL     1      43.199  -8.192  12.644  1.00  0.00     0.235 C 
HETATM   21  C   UNL     1      43.749  -8.808  11.378  1.00  0.00     0.030 C 
HETATM   22  C   UNL     1      42.911 -10.060  11.206  1.00  0.00     0.036 C 
BRANCH  18  23
HETATM   23  C   UNL     1      40.993  -8.497  13.866  1.00  0.00     0.231 C 
HETATM   24  C   UNL     1      40.074  -7.299  14.019  1.00  0.00     0.034 C 
ENDBRANCH  18  23
ENDBRANCH  16  17
ENDBRANCH  13  16
ENDBRANCH   1  12
BRANCH   7  25
HETATM   25  C   UNL     1      42.154 -13.340   2.056  1.00  0.00     0.236 C 
BRANCH  25  26
HETATM   26  C   UNL     1      41.955 -14.696   2.719  1.00  0.00     0.240 C 
HETATM   27  N   UNL     1      43.134 -15.237   3.197  1.00  0.00    -0.326 N 
HETATM   28  H   UNL     1      43.908 -14.590   3.344  1.00  0.00     0.169 HD
HETATM   29  O   UNL     1      40.832 -15.177   2.832  1.00  0.00    -0.271 OA
BRANCH  27  30
HETATM   30  C   UNL     1      43.360 -16.580   3.562  1.00  0.00     0.036 A 
HETATM   31  C   UNL     1      43.314 -17.642   2.659  1.00  0.00     0.053 A 
HETATM   32  C   UNL     1      43.638 -18.939   3.074  1.00  0.00     0.042 A 
HETATM   33 CL   UNL     1      43.593 -20.200   1.891  1.00  0.00    -0.084 Cl
HETATM   34  C   UNL     1      44.006 -19.200   4.402  1.00  0.00    -0.040 A 
HETATM   35  C   UNL     1      44.383 -20.578   4.867  1.00  0.00     0.050 C 
HETATM   36  C   UNL     1      44.034 -18.131   5.307  1.00  0.00     0.011 A 
HETATM   37  C   UNL     1      43.717 -16.834   4.890  1.00  0.00     0.030 A 
ENDBRANCH  27  30
ENDBRANCH  25  26
ENDBRANCH   7  25
TORSDOF 7
ENDMDL
MODEL 6
REMARK VINA RESULT:      -8.4      2.125      3.088
REMARK  7 active torsions:
REMARK  status: ('A' for Active; 'I' for Inactive)
REMARK    1  A    between atoms: C_2  and  N_3 
REMARK    2  A    between atoms: C_5  and  C_6 
REMARK    3  A    between atoms: C_6  and  N_7 
REMARK       I    between atoms: N_7  and  C_8 
REMARK    4  A    between atoms: C_8  and  C_9 
REMARK    5  A    between atoms: N_15  and  C_16 
REMARK    6  A    between atoms: C_16  and  C_17 
REMARK       I    between atoms: C_17  and  N_18 
REMARK    7  A    between atoms: N_18  and  C_19 
ROOT
HETATM    1  C   UNL     1      40.707 -10.464   6.693  1.00  0.00     0.081 C 
HETATM    2  S   UNL     1      39.236 -11.150   6.135  1.00  0.00    -0.063 SA
HETATM    3  C   UNL     1      40.016 -12.026   4.911  1.00  0.00     0.116 C 
HETATM    4  C   UNL     1      41.380 -11.833   4.926  1.00  0.00     0.075 C 
HETATM    5  C   UNL     1      42.139 -12.437   3.836  1.00  0.00     0.262 C 
HETATM    6  O   UNL     1      43.363 -12.367   3.741  1.00  0.00    -0.267 OA
HETATM    7  N   UNL     1      41.354 -13.063   2.874  1.00  0.00    -0.299 N 
HETATM    8  C   UNL     1      39.996 -13.244   3.046  1.00  0.00     0.214 C 
HETATM    9  N   UNL     1      39.303 -12.766   4.027  1.00  0.00    -0.235 NA
HETATM   10  C   UNL     1      41.815 -10.990   6.025  1.00  0.00    -0.021 C 
HETATM   11  C   UNL     1      43.246 -10.653   6.314  1.00  0.00     0.051 C 
ENDROOT
BRANCH   1  12
HETATM   12  C   UNL     1      40.590  -9.411   7.691  1.00  0.00     0.259 C 
HETATM   13  N   UNL     1      40.974  -9.714   8.980  1.00  0.00    -0.354 N 
HETATM   14  H   UNL     1      40.983 -10.697   9.231  1.00  0.00     0.162 HD
HETATM   15  O   UNL     1      40.255  -8.251   7.438  1.00  0.00    -0.267 OA
BRANCH  13  16
HETATM   16  C   UNL     1      40.896  -8.739  10.064  1.00  0.00     0.156 C 
BRANCH  16  17
HETATM   17  C   UNL     1      42.048  -8.785  11.110  1.00  0.00     0.206 C 
HETATM   18  N   UNL     1      42.497 -10.216  11.416  1.00  0.00    -0.066 N 
HETATM   19  H   UNL     1      41.777 -10.850  11.009  1.00  0.00     0.280 HD
HETATM   20  C   UNL     1      42.428 -10.411  12.911  1.00  0.00     0.235 C 
HETATM   21  C   UNL     1      41.396  -9.402  13.359  1.00  0.00     0.030 C 
HETATM   22  C   UNL     1      41.672  -8.203  12.475  1.00  0.00     0.036 C 
BRANCH  18  23
HETATM   23  C   UNL     1      43.796 -10.615  10.780  1.00  0.00     0.231 C 
HETATM   24  C   UNL     1      44.549  -9.392  10.289  1.00  0.00     0.034 C 
ENDBRANCH  18  23
ENDBRANCH  16  17
ENDBRANCH  13  16
ENDBRANCH   1  12
BRANCH   7  25
HETATM   25  C   UNL     1      41.983 -13.468   1.632  1.00  0.00     0.236 C 
BRANCH  25  26
HETATM   26  C   UNL     1      42.843 -14.709   1.834  1.00  0.00     0.240 C 
HETATM   27  N   UNL     1      42.128 -15.780   2.337  1.00  0.00    -0.326 N 
HETATM   28  H   UNL     1      41.115 -15.745   2.226  1.00  0.00     0.169 HD
HETATM   29  O   UNL     1      44.027 -14.707   1.512  1.00  0.00    -0.271 OA
BRANCH  27  30
HETATM   30  C   UNL     1      42.657 -16.943   2.931  1.00  0.00     0.036 A 
HETATM   31  C   UNL     1      42.927 -18.115   2.223  1.00  0.00     0.053 A 
HETATM   32  C   UNL     1      43.537 -19.203   2.860  1.00  0.00     0.042 A 
HETATM   33 CL   UNL     1      43.872 -20.609   1.911  1.00  0.00    -0.084 Cl
HETATM   34  C   UNL     1      43.881 -19.142   4.218  1.00  0.00    -0.040 A 
HETATM   35  C   UNL     1      44.560 -20.285   4.919  1.00  0.00     0.050 C 
HETATM   36  C   UNL     1      43.592 -17.968   4.926  1.00  0.00     0.011 A 
HETATM   37  C   UNL     1      42.990 -16.879   4.287  1.00  0.00     0.030 A 
ENDBRANCH  27  30
ENDBRANCH  25  26
ENDBRANCH   7  25
TORSDOF 7
ENDMDL
MODEL 7
REMARK VINA RESULT:      -8.3      2.121      2.850
REMARK  7 active torsions:
REMARK  status: ('A' for Active; 'I' for Inactive)
REMARK    1  A    between atoms: C_2  and  N_3 
REMARK    2  A    between atoms: C_5  and  C_6 
REMARK    3  A    between atoms: C_6  and  N_7 
REMARK       I    between atoms: N_7  and  C_8 
REMARK    4  A    between atoms: C_8  and  C_9 
REMARK    5  A    between atoms: N_15  and  C_16 
REMARK    6  A    between atoms: C_16  and  C_17 
REMARK       I    between atoms: C_17  and  N_18 
REMARK    7  A    between atoms: N_18  and  C_19 
ROOT
HETATM    1  C   UNL     1      42.679  -9.124   7.667  1.00  0.00     0.081 C 
HETATM    2  S   UNL     1      41.068  -8.978   7.094  1.00  0.00    -0.063 SA
HETATM    3  C   UNL     1      41.178 -10.403   6.183  1.00  0.00     0.116 C 
HETATM    4  C   UNL     1      42.407 -11.011   6.319  1.00  0.00     0.075 C 
HETATM    5  C   UNL     1      42.658 -12.176   5.478  1.00  0.00     0.262 C 
HETATM    6  O   UNL     1      43.699 -12.829   5.518  1.00  0.00    -0.267 OA
HETATM    7  N   UNL     1      41.634 -12.464   4.583  1.00  0.00    -0.299 N 
HETATM    8  C   UNL     1      40.422 -11.806   4.625  1.00  0.00     0.214 C 
HETATM    9  N   UNL     1      40.150 -10.803   5.395  1.00  0.00    -0.235 NA
HETATM   10  C   UNL     1      43.271 -10.322   7.261  1.00  0.00    -0.021 C 
HETATM   11  C   UNL     1      44.644 -10.787   7.642  1.00  0.00     0.051 C 
ENDROOT
BRANCH   1  12
HETATM   12  C   UNL     1      43.207  -7.984   8.401  1.00  0.00     0.259 C 
HETATM   13  N   UNL     1      42.321  -7.257   9.167  1.00  0.00    -0.354 N 
HETATM   14  H   UNL     1      41.340  -7.330   8.918  1.00  0.00     0.162 HD
HETATM   15  O   UNL     1      44.404  -7.686   8.450  1.00  0.00    -0.267 OA
BRANCH  13  16
HETATM   16  C   UNL     1      42.738  -6.092   9.942  1.00  0.00     0.156 C 
BRANCH  16  17
HETATM   17  C   UNL     1      42.315  -6.080  11.441  1.00  0.00     0.206 C 
HETATM   18  N   UNL     1      42.011  -7.483  11.969  1.00  0.00    -0.066 N 
HETATM   19  H   UNL     1      41.949  -8.111  11.138  1.00  0.00     0.280 HD
HETATM   20  C   UNL     1      40.629  -7.458  12.576  1.00  0.00     0.235 C 
HETATM   21  C   UNL     1      39.942  -6.317  11.862  1.00  0.00     0.030 C 
HETATM   22  C   UNL     1      41.041  -5.281  11.721  1.00  0.00     0.036 C 
BRANCH  18  23
HETATM   23  C   UNL     1      43.080  -8.072  12.842  1.00  0.00     0.231 C 
HETATM   24  C   UNL     1      43.215  -7.278  14.129  1.00  0.00     0.034 C 
ENDBRANCH  18  23
ENDBRANCH  16  17
ENDBRANCH  13  16
ENDBRANCH   1  12
BRANCH   7  25
HETATM   25  C   UNL     1      41.890 -13.435   3.537  1.00  0.00     0.236 C 
BRANCH  25  26
HETATM   26  C   UNL     1      41.799 -14.857   4.077  1.00  0.00     0.240 C 
HETATM   27  N   UNL     1      43.033 -15.472   4.178  1.00  0.00    -0.326 N 
HETATM   28  H   UNL     1      43.848 -14.861   4.192  1.00  0.00     0.169 HD
HETATM   29  O   UNL     1      40.718 -15.326   4.418  1.00  0.00    -0.271 OA
BRANCH  27  30
HETATM   30  C   UNL     1      43.278 -16.852   4.324  1.00  0.00     0.036 A 
HETATM   31  C   UNL     1      43.414 -17.729   3.248  1.00  0.00     0.053 A 
HETATM   32  C   UNL     1      43.748 -19.071   3.466  1.00  0.00     0.042 A 
HETATM   33 CL   UNL     1      43.933 -20.091   2.082  1.00  0.00    -0.084 Cl
HETATM   34  C   UNL     1      43.944 -19.563   4.764  1.00  0.00    -0.040 A 
HETATM   35  C   UNL     1      44.328 -20.993   5.024  1.00  0.00     0.050 C 
HETATM   36  C   UNL     1      43.790 -18.681   5.841  1.00  0.00     0.011 A 
HETATM   37  C   UNL     1      43.464 -17.338   5.622  1.00  0.00     0.030 A 
ENDBRANCH  27  30
ENDBRANCH  25  26
ENDBRANCH   7  25
TORSDOF 7
ENDMDL
MODEL 8
REMARK VINA RESULT:      -8.3      2.068      2.859
REMARK  7 active torsions:
REMARK  status: ('A' for Active; 'I' for Inactive)
REMARK    1  A    between atoms: C_2  and  N_3 
REMARK    2  A    between atoms: C_5  and  C_6 
REMARK    3  A    between atoms: C_6  and  N_7 
REMARK       I    between atoms: N_7  and  C_8 
REMARK    4  A    between atoms: C_8  and  C_9 
REMARK    5  A    between atoms: N_15  and  C_16 
REMARK    6  A    between atoms: C_16  and  C_17 
REMARK       I    between atoms: C_17  and  N_18 
REMARK    7  A    between atoms: N_18  and  C_19 
ROOT
HETATM    1  C   UNL     1      43.352  -9.657   9.880  1.00  0.00     0.081 C 
HETATM    2  S   UNL     1      44.843 -10.197   9.227  1.00  0.00    -0.063 SA
HETATM    3  C   UNL     1      44.168 -10.462   7.695  1.00  0.00     0.116 C 
HETATM    4  C   UNL     1      42.832 -10.127   7.654  1.00  0.00     0.075 C 
HETATM    5  C   UNL     1      42.117 -10.435   6.420  1.00  0.00     0.262 C 
HETATM    6  O   UNL     1      40.932 -10.165   6.237  1.00  0.00    -0.267 OA
HETATM    7  N   UNL     1      42.879 -11.112   5.474  1.00  0.00    -0.299 N 
HETATM    8  C   UNL     1      44.237 -11.305   5.634  1.00  0.00     0.214 C 
HETATM    9  N   UNL     1      44.910 -10.996   6.694  1.00  0.00    -0.235 NA
HETATM   10  C   UNL     1      42.357  -9.564   8.905  1.00  0.00    -0.021 C 
HETATM   11  C   UNL     1      40.962  -9.065   9.129  1.00  0.00     0.051 C 
ENDROOT
BRANCH   1  12
HETATM   12  C   UNL     1      43.314  -9.457  11.321  1.00  0.00     0.259 C 
HETATM   13  N   UNL     1      43.367  -8.158  11.783  1.00  0.00    -0.354 N 
HETATM   14  H   UNL     1      43.763  -7.469  11.152  1.00  0.00     0.162 HD
HETATM   15  O   UNL     1      43.151 -10.363  12.143  1.00  0.00    -0.267 OA
BRANCH  13  16
HETATM   16  C   UNL     1      43.341  -7.838  13.207  1.00  0.00     0.156 C 
BRANCH  16  17
HETATM   17  C   UNL     1      41.980  -7.332  13.770  1.00  0.00     0.206 C 
HETATM   18  N   UNL     1      42.126  -6.028  14.557  1.00  0.00    -0.066 N 
HETATM   19  H   UNL     1      43.147  -5.888  14.720  1.00  0.00     0.280 HD
HETATM   20  C   UNL     1      41.513  -6.241  15.920  1.00  0.00     0.235 C 
HETATM   21  C   UNL     1      41.607  -7.735  16.128  1.00  0.00     0.030 C 
HETATM   22  C   UNL     1      41.315  -8.299  14.751  1.00  0.00     0.036 C 
BRANCH  18  23
HETATM   23  C   UNL     1      41.658  -4.800  13.833  1.00  0.00     0.231 C 
HETATM   24  C   UNL     1      40.480  -5.127  12.934  1.00  0.00     0.034 C 
ENDBRANCH  18  23
ENDBRANCH  16  17
ENDBRANCH  13  16
ENDBRANCH   1  12
BRANCH   7  25
HETATM   25  C   UNL     1      42.200 -11.686   4.329  1.00  0.00     0.236 C 
BRANCH  25  26
HETATM   26  C   UNL     1      42.116 -13.202   4.447  1.00  0.00     0.240 C 
HETATM   27  N   UNL     1      43.188 -13.845   3.855  1.00  0.00    -0.326 N 
HETATM   28  H   UNL     1      44.026 -13.287   3.699  1.00  0.00     0.169 HD
HETATM   29  O   UNL     1      41.195 -13.731   5.061  1.00  0.00    -0.271 OA
BRANCH  27  30
HETATM   30  C   UNL     1      43.265 -15.208   3.504  1.00  0.00     0.036 A 
HETATM   31  C   UNL     1      43.524 -16.227   4.421  1.00  0.00     0.053 A 
HETATM   32  C   UNL     1      43.496 -17.567   4.018  1.00  0.00     0.042 A 
HETATM   33 CL   UNL     1      43.793 -18.777   5.217  1.00  0.00    -0.084 Cl
HETATM   34  C   UNL     1      43.217 -17.913   2.688  1.00  0.00    -0.040 A 
HETATM   35  C   UNL     1      43.156 -19.345   2.234  1.00  0.00     0.050 C 
HETATM   36  C   UNL     1      42.974 -16.884   1.769  1.00  0.00     0.011 A 
HETATM   37  C   UNL     1      42.994 -15.546   2.174  1.00  0.00     0.030 A 
ENDBRANCH  27  30
ENDBRANCH  25  26
ENDBRANCH   7  25
TORSDOF 7
ENDMDL
MODEL 9
REMARK VINA RESULT:      -8.3      1.566      1.860
REMARK  7 active torsions:
REMARK  status: ('A' for Active; 'I' for Inactive)
REMARK    1  A    between atoms: C_2  and  N_3 
REMARK    2  A    between atoms: C_5  and  C_6 
REMARK    3  A    between atoms: C_6  and  N_7 
REMARK       I    between atoms: N_7  and  C_8 
REMARK    4  A    between atoms: C_8  and  C_9 
REMARK    5  A    between atoms: N_15  and  C_16 
REMARK    6  A    between atoms: C_16  and  C_17 
REMARK       I    between atoms: C_17  and  N_18 
REMARK    7  A    between atoms: N_18  and  C_19 
ROOT
HETATM    1  C   UNL     1      43.418  -9.838   9.922  1.00  0.00     0.081 C 
HETATM    2  S   UNL     1      44.872 -10.504   9.299  1.00  0.00    -0.063 SA
HETATM    3  C   UNL     1      44.250 -10.593   7.725  1.00  0.00     0.116 C 
HETATM    4  C   UNL     1      42.964 -10.104   7.648  1.00  0.00     0.075 C 
HETATM    5  C   UNL     1      42.283 -10.250   6.366  1.00  0.00     0.262 C 
HETATM    6  O   UNL     1      41.146  -9.834   6.151  1.00  0.00    -0.267 OA
HETATM    7  N   UNL     1      43.011 -10.950   5.410  1.00  0.00    -0.299 N 
HETATM    8  C   UNL     1      44.329 -11.308   5.616  1.00  0.00     0.214 C 
HETATM    9  N   UNL     1      44.977 -11.145   6.723  1.00  0.00    -0.235 NA
HETATM   10  C   UNL     1      42.492  -9.570   8.913  1.00  0.00    -0.021 C 
HETATM   11  C   UNL     1      41.152  -8.929   9.110  1.00  0.00     0.051 C 
ENDROOT
BRANCH   1  12
HETATM   12  C   UNL     1      43.330  -9.725  11.371  1.00  0.00     0.259 C 
HETATM   13  N   UNL     1      43.133  -8.467  11.898  1.00  0.00    -0.354 N 
HETATM   14  H   UNL     1      43.399  -7.682  11.311  1.00  0.00     0.162 HD
HETATM   15  O   UNL     1      43.332 -10.689  12.142  1.00  0.00    -0.267 OA
BRANCH  13  16
HETATM   16  C   UNL     1      43.034  -8.233  13.336  1.00  0.00     0.156 C 
BRANCH  16  17
HETATM   17  C   UNL     1      41.640  -8.497  13.977  1.00  0.00     0.206 C 
HETATM   18  N   UNL     1      40.492  -8.001  13.095  1.00  0.00    -0.066 N 
HETATM   19  H   UNL     1      40.918  -7.402  12.356  1.00  0.00     0.280 HD
HETATM   20  C   UNL     1      39.631  -7.085  13.930  1.00  0.00     0.235 C 
HETATM   21  C   UNL     1      40.574  -6.576  14.996  1.00  0.00     0.030 C 
HETATM   22  C   UNL     1      41.427  -7.788  15.316  1.00  0.00     0.036 C 
BRANCH  18  23
HETATM   23  C   UNL     1      39.750  -9.081  12.363  1.00  0.00     0.231 C 
HETATM   24  C   UNL     1      39.896 -10.410  13.082  1.00  0.00     0.034 C 
ENDBRANCH  18  23
ENDBRANCH  16  17
ENDBRANCH  13  16
ENDBRANCH   1  12
BRANCH   7  25
HETATM   25  C   UNL     1      42.331 -11.369   4.201  1.00  0.00     0.236 C 
BRANCH  25  26
HETATM   26  C   UNL     1      42.838 -12.726   3.731  1.00  0.00     0.240 C 
HETATM   27  N   UNL     1      42.256 -13.780   4.410  1.00  0.00    -0.326 N 
HETATM   28  H   UNL     1      41.378 -13.585   4.891  1.00  0.00     0.169 HD
HETATM   29  O   UNL     1      43.638 -12.806   2.805  1.00  0.00    -0.271 OA
BRANCH  27  30
HETATM   30  C   UNL     1      42.716 -15.111   4.456  1.00  0.00     0.036 A 
HETATM   31  C   UNL     1      42.516 -16.032   3.427  1.00  0.00     0.053 A 
HETATM   32  C   UNL     1      43.080 -17.311   3.501  1.00  0.00     0.042 A 
HETATM   33 CL   UNL     1      42.818 -18.387   2.173  1.00  0.00    -0.084 Cl
HETATM   34  C   UNL     1      43.848 -17.697   4.610  1.00  0.00    -0.040 A 
HETATM   35  C   UNL     1      44.485 -19.055   4.702  1.00  0.00     0.050 C 
HETATM   36  C   UNL     1      44.031 -16.773   5.647  1.00  0.00     0.011 A 
HETATM   37  C   UNL     1      43.474 -15.492   5.568  1.00  0.00     0.030 A 
ENDBRANCH  27  30
ENDBRANCH  25  26
ENDBRANCH   7  25
TORSDOF 7
ENDMDL
MODEL 10
REMARK VINA RESULT:      -8.2      2.454      3.043
REMARK  7 active torsions:
REMARK  status: ('A' for Active; 'I' for Inactive)
REMARK    1  A    between atoms: C_2  and  N_3 
REMARK    2  A    between atoms: C_5  and  C_6 
REMARK    3  A    between atoms: C_6  and  N_7 
REMARK       I    between atoms: N_7  and  C_8 
REMARK    4  A    between atoms: C_8  and  C_9 
REMARK    5  A    between atoms: N_15  and  C_16 
REMARK    6  A    between atoms: C_16  and  C_17 
REMARK       I    between atoms: C_17  and  N_18 
REMARK    7  A    between atoms: N_18  and  C_19 
ROOT
HETATM    1  C   UNL     1      40.649 -10.100   5.918  1.00  0.00     0.081 C 
HETATM    2  S   UNL     1      41.320  -9.145   4.661  1.00  0.00    -0.063 SA
HETATM    3  C   UNL     1      41.191 -10.401   3.530  1.00  0.00     0.116 C 
HETATM    4  C   UNL     1      40.623 -11.531   4.075  1.00  0.00     0.075 C 
HETATM    5  C   UNL     1      40.581 -12.717   3.226  1.00  0.00     0.262 C 
HETATM    6  O   UNL     1      40.078 -13.784   3.576  1.00  0.00    -0.267 OA
HETATM    7  N   UNL     1      41.206 -12.559   1.994  1.00  0.00    -0.299 N 
HETATM    8  C   UNL     1      41.660 -11.330   1.560  1.00  0.00     0.214 C 
HETATM    9  N   UNL     1      41.664 -10.248   2.268  1.00  0.00    -0.235 NA
HETATM   10  C   UNL     1      40.213 -11.343   5.455  1.00  0.00    -0.021 C 
HETATM   11  C   UNL     1      39.523 -12.386   6.280  1.00  0.00     0.051 C 
ENDROOT
BRANCH   1  12
HETATM   12  C   UNL     1      40.699  -9.530   7.257  1.00  0.00     0.259 C 
HETATM   13  N   UNL     1      41.906  -9.015   7.682  1.00  0.00    -0.354 N 
HETATM   14  H   UNL     1      42.736  -9.358   7.210  1.00  0.00     0.162 HD
HETATM   15  O   UNL     1      39.717  -9.401   7.992  1.00  0.00    -0.267 OA
BRANCH  13  16
HETATM   16  C   UNL     1      42.075  -8.424   9.006  1.00  0.00     0.156 C 
BRANCH  16  17
HETATM   17  C   UNL     1      42.221  -9.425  10.189  1.00  0.00     0.206 C 
HETATM   18  N   UNL     1      41.312  -9.067  11.367  1.00  0.00    -0.066 N 
HETATM   19  H   UNL     1      40.956  -8.103  11.190  1.00  0.00     0.280 HD
HETATM   20  C   UNL     1      42.174  -8.974  12.603  1.00  0.00     0.235 C 
HETATM   21  C   UNL     1      43.547  -8.649  12.061  1.00  0.00     0.030 C 
HETATM   22  C   UNL     1      43.626  -9.475  10.792  1.00  0.00     0.036 C 
BRANCH  18  23
HETATM   23  C   UNL     1      40.093  -9.931  11.505  1.00  0.00     0.231 C 
HETATM   24  C   UNL     1      39.917 -10.382  12.943  1.00  0.00     0.034 C 
ENDBRANCH  18  23
ENDBRANCH  16  17
ENDBRANCH  13  16
ENDBRANCH   1  12
BRANCH   7  25
HETATM   25  C   UNL     1      41.442 -13.741   1.188  1.00  0.00     0.236 C 
BRANCH  25  26
HETATM   26  C   UNL     1      42.527 -14.614   1.804  1.00  0.00     0.240 C 
HETATM   27  N   UNL     1      42.123 -15.925   1.982  1.00  0.00    -0.326 N 
HETATM   28  H   UNL     1      41.323 -16.235   1.431  1.00  0.00     0.169 HD
HETATM   29  O   UNL     1      43.639 -14.154   2.043  1.00  0.00    -0.271 OA
BRANCH  27  30
HETATM   30  C   UNL     1      42.739 -16.894   2.798  1.00  0.00     0.036 A 
HETATM   31  C   UNL     1      42.850 -16.777   4.184  1.00  0.00     0.053 A 
HETATM   32  C   UNL     1      43.393 -17.821   4.942  1.00  0.00     0.042 A 
HETATM   33 CL   UNL     1      43.468 -17.619   6.657  1.00  0.00    -0.084 Cl
HETATM   34  C   UNL     1      43.843 -18.999   4.328  1.00  0.00    -0.040 A 
HETATM   35  C   UNL     1      44.406 -20.145   5.121  1.00  0.00     0.050 C 
HETATM   36  C   UNL     1      43.743 -19.103   2.934  1.00  0.00     0.011 A 
HETATM   37  C   UNL     1      43.193 -18.063   2.178  1.00  0.00     0.030 A 
ENDBRANCH  27  30
ENDBRANCH  25  26
ENDBRANCH   7  25
TORSDOF 7
ENDMDL
