MODEL 1
REMARK VINA RESULT:      -8.0      0.000      0.000
REMARK  3 active torsions:
REMARK  status: ('A' for Active; 'I' for Inactive)
REMARK    1  A    between atoms: C_9  and  C_10 
REMARK    2  A    between atoms: C_16  and  C_17 
REMARK       I    between atoms: C_17  and  N_18 
REMARK    3  A    between atoms: N_18  and  C_19 
ROOT
HETATM    1  C   UNL     1      43.949 -14.251   6.743  1.00  0.00     0.070 C 
HETATM    2  C   UNL     1      42.740 -13.772   5.978  1.00  0.00     0.037 C 
HETATM    3  N   UNL     1      42.460 -12.413   6.086  1.00  0.00    -0.191 N 
HETATM    4  C   UNL     1      41.298 -11.871   5.664  1.00  0.00     0.735 A 
HETATM    5  N   UNL     1      40.408 -12.646   4.973  1.00  0.00    -0.092 N 
HETATM    6  N   UNL     1      39.291 -11.950   4.714  1.00  0.00     0.012 NA
HETATM    7  N   UNL     1      39.531 -10.738   5.207  1.00  0.00     0.033 NA
HETATM    8  N   UNL     1      40.777 -10.676   5.803  1.00  0.00     0.030 NA
HETATM    9  C   UNL     1      40.627 -14.046   4.622  1.00  0.00     0.198 C 
HETATM   10  C   UNL     1      41.903 -14.575   5.273  1.00  0.00     0.062 C 
HETATM   11  H   UNL     1      43.058 -11.856   6.692  1.00  0.00     0.184 HD
ENDROOT
BRANCH  10  12
HETATM   12  C   UNL     1      42.070 -16.048   5.164  1.00  0.00     0.256 C 
HETATM   13  N   UNL     1      42.873 -16.434   4.115  1.00  0.00    -0.322 N 
HETATM   14  H   UNL     1      43.235 -15.706   3.511  1.00  0.00     0.169 HD
HETATM   15  O   UNL     1      41.472 -16.771   5.948  1.00  0.00    -0.267 OA
BRANCH  13  16
HETATM   16  C   UNL     1      43.250 -17.755   3.792  1.00  0.00     0.052 A 
HETATM   17  C   UNL     1      43.950 -18.619   4.631  1.00  0.00     0.145 A 
HETATM   18  N   UNL     1      44.317 -19.881   4.288  1.00  0.00    -0.271 NA
HETATM   19  C   UNL     1      43.976 -20.304   3.055  1.00  0.00     0.116 A 
HETATM   20  C   UNL     1      43.281 -19.526   2.146  1.00  0.00     0.021 A 
HETATM   21  C   UNL     1      42.912 -18.236   2.525  1.00  0.00     0.032 A 
ENDBRANCH  13  16
ENDBRANCH  10  12
BRANCH   9  22
HETATM   22  C   UNL     1      40.649 -14.231   3.106  1.00  0.00    -0.029 A 
HETATM   23  C   UNL     1      41.428 -13.419   2.263  1.00  0.00     0.009 A 
HETATM   24  C   UNL     1      41.434 -13.626   0.883  1.00  0.00     0.001 A 
HETATM   25  C   UNL     1      40.677 -14.655   0.326  1.00  0.00     0.000 A 
HETATM   26  C   UNL     1      39.915 -15.480   1.149  1.00  0.00     0.001 A 
HETATM   27  C   UNL     1      39.901 -15.274   2.529  1.00  0.00     0.009 A 
ENDBRANCH   9  22
TORSDOF 3
ENDMDL
MODEL 2
REMARK VINA RESULT:      -7.8      2.967      5.775
REMARK  3 active torsions:
REMARK  status: ('A' for Active; 'I' for Inactive)
REMARK    1  A    between atoms: C_9  and  C_10 
REMARK    2  A    between atoms: C_16  and  C_17 
REMARK       I    between atoms: C_17  and  N_18 
REMARK    3  A    between atoms: N_18  and  C_19 
ROOT
HETATM    1  C   UNL     1      38.979 -11.535   3.856  1.00  0.00     0.070 C 
HETATM    2  C   UNL     1      40.425 -11.945   3.715  1.00  0.00     0.037 C 
HETATM    3  N   UNL     1      41.310 -11.336   4.600  1.00  0.00    -0.191 N 
HETATM    4  C   UNL     1      42.651 -11.410   4.458  1.00  0.00     0.735 A 
HETATM    5  N   UNL     1      43.179 -12.225   3.495  1.00  0.00    -0.092 N 
HETATM    6  N   UNL     1      44.514 -12.099   3.462  1.00  0.00     0.012 NA
HETATM    7  N   UNL     1      44.792 -11.242   4.442  1.00  0.00     0.033 NA
HETATM    8  N   UNL     1      43.640 -10.804   5.069  1.00  0.00     0.030 NA
HETATM    9  C   UNL     1      42.391 -13.067   2.598  1.00  0.00     0.198 C 
HETATM   10  C   UNL     1      40.900 -12.788   2.764  1.00  0.00     0.062 C 
HETATM   11  H   UNL     1      40.932 -10.645   5.244  1.00  0.00     0.184 HD
ENDROOT
BRANCH  10  12
HETATM   12  C   UNL     1      40.048 -13.423   1.725  1.00  0.00     0.256 C 
HETATM   13  N   UNL     1      40.006 -12.720   0.542  1.00  0.00    -0.322 N 
HETATM   14  H   UNL     1      40.512 -11.844   0.502  1.00  0.00     0.169 HD
HETATM   15  O   UNL     1      39.442 -14.449   2.002  1.00  0.00    -0.267 OA
BRANCH  13  16
HETATM   16  C   UNL     1      39.324 -13.100  -0.633  1.00  0.00     0.052 A 
HETATM   17  C   UNL     1      38.172 -12.493  -1.127  1.00  0.00     0.145 A 
HETATM   18  N   UNL     1      37.524 -12.892  -2.252  1.00  0.00    -0.271 NA
HETATM   19  C   UNL     1      38.042 -13.944  -2.916  1.00  0.00     0.116 A 
HETATM   20  C   UNL     1      39.181 -14.617  -2.511  1.00  0.00     0.021 A 
HETATM   21  C   UNL     1      39.830 -14.184  -1.355  1.00  0.00     0.032 A 
ENDBRANCH  13  16
ENDBRANCH  10  12
BRANCH   9  22
HETATM   22  C   UNL     1      42.717 -14.544   2.811  1.00  0.00    -0.029 A 
HETATM   23  C   UNL     1      42.596 -15.165   4.067  1.00  0.00     0.009 A 
HETATM   24  C   UNL     1      42.889 -16.521   4.221  1.00  0.00     0.001 A 
HETATM   25  C   UNL     1      43.290 -17.279   3.123  1.00  0.00     0.000 A 
HETATM   26  C   UNL     1      43.396 -16.684   1.869  1.00  0.00     0.001 A 
HETATM   27  C   UNL     1      43.110 -15.327   1.711  1.00  0.00     0.009 A 
ENDBRANCH   9  22
TORSDOF 3
ENDMDL
MODEL 3
REMARK VINA RESULT:      -7.7      2.294      2.789
REMARK  3 active torsions:
REMARK  status: ('A' for Active; 'I' for Inactive)
REMARK    1  A    between atoms: C_9  and  C_10 
REMARK    2  A    between atoms: C_16  and  C_17 
REMARK       I    between atoms: C_17  and  N_18 
REMARK    3  A    between atoms: N_18  and  C_19 
ROOT
HETATM    1  C   UNL     1      44.142 -11.737   3.781  1.00  0.00     0.070 C 
HETATM    2  C   UNL     1      42.725 -11.836   3.271  1.00  0.00     0.037 C 
HETATM    3  N   UNL     1      41.936 -10.706   3.465  1.00  0.00    -0.191 N 
HETATM    4  C   UNL     1      40.598 -10.710   3.284  1.00  0.00     0.735 A 
HETATM    5  N   UNL     1      39.996 -11.818   2.756  1.00  0.00    -0.092 N 
HETATM    6  N   UNL     1      38.665 -11.654   2.730  1.00  0.00     0.012 NA
HETATM    7  N   UNL     1      38.471 -10.424   3.199  1.00  0.00     0.033 NA
HETATM    8  N   UNL     1      39.667  -9.825   3.549  1.00  0.00     0.030 NA
HETATM    9  C   UNL     1      40.703 -13.024   2.334  1.00  0.00     0.198 C 
HETATM   10  C   UNL     1      42.179 -12.949   2.719  1.00  0.00     0.062 C 
HETATM   11  H   UNL     1      42.353  -9.920   3.959  1.00  0.00     0.184 HD
ENDROOT
BRANCH  10  12
HETATM   12  C   UNL     1      42.913 -14.229   2.544  1.00  0.00     0.256 C 
HETATM   13  N   UNL     1      42.559 -15.196   3.458  1.00  0.00    -0.322 N 
HETATM   14  H   UNL     1      41.880 -14.944   4.165  1.00  0.00     0.169 HD
HETATM   15  O   UNL     1      43.769 -14.307   1.673  1.00  0.00    -0.267 OA
BRANCH  13  16
HETATM   16  C   UNL     1      43.049 -16.518   3.509  1.00  0.00     0.052 A 
HETATM   17  C   UNL     1      43.818 -17.052   4.539  1.00  0.00     0.145 A 
HETATM   18  N   UNL     1      44.294 -18.325   4.554  1.00  0.00    -0.271 NA
HETATM   19  C   UNL     1      43.994 -19.102   3.494  1.00  0.00     0.116 A 
HETATM   20  C   UNL     1      43.238 -18.669   2.420  1.00  0.00     0.021 A 
HETATM   21  C   UNL     1      42.758 -17.360   2.432  1.00  0.00     0.032 A 
ENDBRANCH  13  16
ENDBRANCH  10  12
BRANCH   9  22
HETATM   22  C   UNL     1      40.521 -13.268   0.838  1.00  0.00    -0.029 A 
HETATM   23  C   UNL     1      39.928 -14.440   0.336  1.00  0.00     0.009 A 
HETATM   24  C   UNL     1      39.764 -14.622  -1.038  1.00  0.00     0.001 A 
HETATM   25  C   UNL     1      40.173 -13.633  -1.929  1.00  0.00     0.000 A 
HETATM   26  C   UNL     1      40.744 -12.457  -1.447  1.00  0.00     0.001 A 
HETATM   27  C   UNL     1      40.915 -12.273  -0.075  1.00  0.00     0.009 A 
ENDBRANCH   9  22
TORSDOF 3
ENDMDL
MODEL 4
REMARK VINA RESULT:      -7.6      2.734      5.861
REMARK  3 active torsions:
REMARK  status: ('A' for Active; 'I' for Inactive)
REMARK    1  A    between atoms: C_9  and  C_10 
REMARK    2  A    between atoms: C_16  and  C_17 
REMARK       I    between atoms: C_17  and  N_18 
REMARK    3  A    between atoms: N_18  and  C_19 
ROOT
HETATM    1  C   UNL     1      43.170 -16.546   1.746  1.00  0.00     0.070 C 
HETATM    2  C   UNL     1      42.802 -16.134   3.150  1.00  0.00     0.037 C 
HETATM    3  N   UNL     1      43.725 -16.468   4.135  1.00  0.00    -0.191 N 
HETATM    4  C   UNL     1      43.448 -16.385   5.454  1.00  0.00     0.735 A 
HETATM    5  N   UNL     1      42.271 -15.819   5.857  1.00  0.00    -0.092 N 
HETATM    6  N   UNL     1      42.150 -15.902   7.191  1.00  0.00     0.012 NA
HETATM    7  N   UNL     1      43.281 -16.475   7.593  1.00  0.00     0.033 NA
HETATM    8  N   UNL     1      44.098 -16.782   6.521  1.00  0.00     0.030 NA
HETATM    9  C   UNL     1      41.269 -15.258   4.955  1.00  0.00     0.198 C 
HETATM   10  C   UNL     1      41.633 -15.540   3.499  1.00  0.00     0.062 C 
HETATM   11  H   UNL     1      44.551 -16.989   3.849  1.00  0.00     0.184 HD
ENDROOT
BRANCH  10  12
HETATM   12  C   UNL     1      40.551 -15.216   2.534  1.00  0.00     0.256 C 
HETATM   13  N   UNL     1      40.858 -14.169   1.694  1.00  0.00    -0.322 N 
HETATM   14  H   UNL     1      41.748 -13.707   1.830  1.00  0.00     0.169 HD
HETATM   15  O   UNL     1      39.502 -15.843   2.588  1.00  0.00    -0.267 OA
BRANCH  13  16
HETATM   16  C   UNL     1      40.050 -13.671   0.649  1.00  0.00     0.052 A 
HETATM   17  C   UNL     1      39.320 -12.487   0.692  1.00  0.00     0.145 A 
HETATM   18  N   UNL     1      38.535 -12.039  -0.322  1.00  0.00    -0.271 NA
HETATM   19  C   UNL     1      38.470 -12.805  -1.429  1.00  0.00     0.116 A 
HETATM   20  C   UNL     1      39.156 -13.997  -1.574  1.00  0.00     0.021 A 
HETATM   21  C   UNL     1      39.959 -14.432  -0.520  1.00  0.00     0.032 A 
ENDBRANCH  13  16
ENDBRANCH  10  12
BRANCH   9  22
HETATM   22  C   UNL     1      41.080 -13.764   5.212  1.00  0.00    -0.029 A 
HETATM   23  C   UNL     1      39.879 -13.237   5.719  1.00  0.00     0.009 A 
HETATM   24  C   UNL     1      39.748 -11.868   5.955  1.00  0.00     0.001 A 
HETATM   25  C   UNL     1      40.815 -11.009   5.705  1.00  0.00     0.000 A 
HETATM   26  C   UNL     1      42.018 -11.518   5.221  1.00  0.00     0.001 A 
HETATM   27  C   UNL     1      42.153 -12.885   4.978  1.00  0.00     0.009 A 
ENDBRANCH   9  22
TORSDOF 3
ENDMDL
MODEL 5
REMARK VINA RESULT:      -7.6      3.475      6.070
REMARK  3 active torsions:
REMARK  status: ('A' for Active; 'I' for Inactive)
REMARK    1  A    between atoms: C_9  and  C_10 
REMARK    2  A    between atoms: C_16  and  C_17 
REMARK       I    between atoms: C_17  and  N_18 
REMARK    3  A    between atoms: N_18  and  C_19 
ROOT
HETATM    1  C   UNL     1      41.600 -10.165   0.903  1.00  0.00     0.070 C 
HETATM    2  C   UNL     1      41.169 -11.585   0.629  1.00  0.00     0.037 C 
HETATM    3  N   UNL     1      40.931 -11.893  -0.707  1.00  0.00    -0.191 N 
HETATM    4  C   UNL     1      40.321 -13.033  -1.096  1.00  0.00     0.735 A 
HETATM    5  N   UNL     1      40.047 -13.998  -0.166  1.00  0.00    -0.092 N 
HETATM    6  N   UNL     1      39.373 -15.010  -0.733  1.00  0.00     0.012 NA
HETATM    7  N   UNL     1      39.286 -14.674  -2.017  1.00  0.00     0.033 NA
HETATM    8  N   UNL     1      39.871 -13.445  -2.257  1.00  0.00     0.030 NA
HETATM    9  C   UNL     1      40.391 -13.906   1.250  1.00  0.00     0.198 C 
HETATM   10  C   UNL     1      40.943 -12.522   1.585  1.00  0.00     0.062 C 
HETATM   11  H   UNL     1      41.027 -11.143  -1.388  1.00  0.00     0.184 HD
ENDROOT
BRANCH  10  12
HETATM   12  C   UNL     1      41.091 -12.268   3.041  1.00  0.00     0.256 C 
HETATM   13  N   UNL     1      42.396 -12.323   3.480  1.00  0.00    -0.322 N 
HETATM   14  H   UNL     1      43.107 -12.560   2.800  1.00  0.00     0.169 HD
HETATM   15  O   UNL     1      40.088 -12.085   3.715  1.00  0.00    -0.267 OA
BRANCH  13  16
HETATM   16  C   UNL     1      42.847 -12.078   4.794  1.00  0.00     0.052 A 
HETATM   17  C   UNL     1      42.906 -10.828   5.404  1.00  0.00     0.145 A 
HETATM   18  N   UNL     1      43.362 -10.616   6.665  1.00  0.00    -0.271 NA
HETATM   19  C   UNL     1      43.783 -11.697   7.352  1.00  0.00     0.116 A 
HETATM   20  C   UNL     1      43.767 -12.981   6.839  1.00  0.00     0.021 A 
HETATM   21  C   UNL     1      43.288 -13.171   5.544  1.00  0.00     0.032 A 
ENDBRANCH  13  16
ENDBRANCH  10  12
BRANCH   9  22
HETATM   22  C   UNL     1      41.364 -15.014   1.647  1.00  0.00    -0.029 A 
HETATM   23  C   UNL     1      42.697 -15.037   1.201  1.00  0.00     0.009 A 
HETATM   24  C   UNL     1      43.562 -16.058   1.596  1.00  0.00     0.001 A 
HETATM   25  C   UNL     1      43.116 -17.060   2.454  1.00  0.00     0.000 A 
HETATM   26  C   UNL     1      41.804 -17.041   2.921  1.00  0.00     0.001 A 
HETATM   27  C   UNL     1      40.934 -16.026   2.524  1.00  0.00     0.009 A 
ENDBRANCH   9  22
TORSDOF 3
ENDMDL
MODEL 6
REMARK VINA RESULT:      -7.6      2.591      4.306
REMARK  3 active torsions:
REMARK  status: ('A' for Active; 'I' for Inactive)
REMARK    1  A    between atoms: C_9  and  C_10 
REMARK    2  A    between atoms: C_16  and  C_17 
REMARK       I    between atoms: C_17  and  N_18 
REMARK    3  A    between atoms: N_18  and  C_19 
ROOT
HETATM    1  C   UNL     1      39.858 -15.882   0.975  1.00  0.00     0.070 C 
HETATM    2  C   UNL     1      40.363 -14.483   1.230  1.00  0.00     0.037 C 
HETATM    3  N   UNL     1      39.497 -13.456   0.865  1.00  0.00    -0.191 N 
HETATM    4  C   UNL     1      39.881 -12.163   0.807  1.00  0.00     0.735 A 
HETATM    5  N   UNL     1      41.124 -11.813   1.256  1.00  0.00    -0.092 N 
HETATM    6  N   UNL     1      41.343 -10.507   1.041  1.00  0.00     0.012 NA
HETATM    7  N   UNL     1      40.208 -10.062   0.508  1.00  0.00     0.033 NA
HETATM    8  N   UNL     1      39.290 -11.084   0.355  1.00  0.00     0.030 NA
HETATM    9  C   UNL     1      42.091 -12.744   1.832  1.00  0.00     0.198 C 
HETATM   10  C   UNL     1      41.595 -14.183   1.712  1.00  0.00     0.062 C 
HETATM   11  H   UNL     1      38.616 -13.716   0.427  1.00  0.00     0.184 HD
ENDROOT
BRANCH  10  12
HETATM   12  C   UNL     1      42.619 -15.203   2.053  1.00  0.00     0.256 C 
HETATM   13  N   UNL     1      42.210 -16.091   3.024  1.00  0.00    -0.322 N 
HETATM   14  H   UNL     1      41.292 -15.949   3.428  1.00  0.00     0.169 HD
HETATM   15  O   UNL     1      43.712 -15.152   1.508  1.00  0.00    -0.267 OA
BRANCH  13  16
HETATM   16  C   UNL     1      42.944 -17.191   3.515  1.00  0.00     0.052 A 
HETATM   17  C   UNL     1      43.487 -17.290   4.793  1.00  0.00     0.145 A 
HETATM   18  N   UNL     1      44.207 -18.353   5.235  1.00  0.00    -0.271 NA
HETATM   19  C   UNL     1      44.400 -19.365   4.365  1.00  0.00     0.116 A 
HETATM   20  C   UNL     1      43.904 -19.366   3.074  1.00  0.00     0.021 A 
HETATM   21  C   UNL     1      43.164 -18.264   2.647  1.00  0.00     0.032 A 
ENDBRANCH  13  16
ENDBRANCH  10  12
BRANCH   9  22
HETATM   22  C   UNL     1      42.406 -12.374   3.281  1.00  0.00    -0.029 A 
HETATM   23  C   UNL     1      41.473 -12.544   4.318  1.00  0.00     0.009 A 
HETATM   24  C   UNL     1      41.801 -12.209   5.632  1.00  0.00     0.001 A 
HETATM   25  C   UNL     1      43.069 -11.715   5.933  1.00  0.00     0.000 A 
HETATM   26  C   UNL     1      44.011 -11.559   4.919  1.00  0.00     0.001 A 
HETATM   27  C   UNL     1      43.686 -11.887   3.603  1.00  0.00     0.009 A 
ENDBRANCH   9  22
TORSDOF 3
ENDMDL
MODEL 7
REMARK VINA RESULT:      -7.4      3.866      6.940
REMARK  3 active torsions:
REMARK  status: ('A' for Active; 'I' for Inactive)
REMARK    1  A    between atoms: C_9  and  C_10 
REMARK    2  A    between atoms: C_16  and  C_17 
REMARK       I    between atoms: C_17  and  N_18 
REMARK    3  A    between atoms: N_18  and  C_19 
ROOT
HETATM    1  C   UNL     1      41.570 -10.126  -0.004  1.00  0.00     0.070 C 
HETATM    2  C   UNL     1      41.108 -11.552  -0.171  1.00  0.00     0.037 C 
HETATM    3  N   UNL     1      40.948 -11.981  -1.486  1.00  0.00    -0.191 N 
HETATM    4  C   UNL     1      40.325 -13.135  -1.806  1.00  0.00     0.735 A 
HETATM    5  N   UNL     1      39.956 -13.996  -0.811  1.00  0.00    -0.092 N 
HETATM    6  N   UNL     1      39.286 -15.039  -1.325  1.00  0.00     0.012 NA
HETATM    7  N   UNL     1      39.297 -14.827  -2.639  1.00  0.00     0.033 NA
HETATM    8  N   UNL     1      39.940 -13.643  -2.952  1.00  0.00     0.030 NA
HETATM    9  C   UNL     1      40.209 -13.778   0.611  1.00  0.00     0.198 C 
HETATM   10  C   UNL     1      40.787 -12.385   0.850  1.00  0.00     0.062 C 
HETATM   11  H   UNL     1      41.116 -11.303  -2.226  1.00  0.00     0.184 HD
ENDROOT
BRANCH  10  12
HETATM   12  C   UNL     1      40.846 -11.996   2.283  1.00  0.00     0.256 C 
HETATM   13  N   UNL     1      39.607 -11.819   2.857  1.00  0.00    -0.322 N 
HETATM   14  H   UNL     1      38.796 -11.932   2.262  1.00  0.00     0.169 HD
HETATM   15  O   UNL     1      41.939 -11.824   2.805  1.00  0.00    -0.267 OA
BRANCH  13  16
HETATM   16  C   UNL     1      39.349 -11.497   4.207  1.00  0.00     0.052 A 
HETATM   17  C   UNL     1      39.480 -12.372   5.282  1.00  0.00     0.145 A 
HETATM   18  N   UNL     1      39.207 -12.042   6.570  1.00  0.00    -0.271 NA
HETATM   19  C   UNL     1      38.781 -10.784   6.802  1.00  0.00     0.116 A 
HETATM   20  C   UNL     1      38.618  -9.838   5.807  1.00  0.00     0.021 A 
HETATM   21  C   UNL     1      38.910 -10.201   4.492  1.00  0.00     0.032 A 
ENDBRANCH  13  16
ENDBRANCH  10  12
BRANCH   9  22
HETATM   22  C   UNL     1      41.114 -14.871   1.177  1.00  0.00    -0.029 A 
HETATM   23  C   UNL     1      42.510 -14.845   1.018  1.00  0.00     0.009 A 
HETATM   24  C   UNL     1      43.307 -15.853   1.562  1.00  0.00     0.001 A 
HETATM   25  C   UNL     1      42.725 -16.891   2.287  1.00  0.00     0.000 A 
HETATM   26  C   UNL     1      41.345 -16.920   2.471  1.00  0.00     0.001 A 
HETATM   27  C   UNL     1      40.543 -15.918   1.923  1.00  0.00     0.009 A 
ENDBRANCH   9  22
TORSDOF 3
ENDMDL
MODEL 8
REMARK VINA RESULT:      -7.3      1.844      1.986
REMARK  3 active torsions:
REMARK  status: ('A' for Active; 'I' for Inactive)
REMARK    1  A    between atoms: C_9  and  C_10 
REMARK    2  A    between atoms: C_16  and  C_17 
REMARK       I    between atoms: C_17  and  N_18 
REMARK    3  A    between atoms: N_18  and  C_19 
ROOT
HETATM    1  C   UNL     1      44.054 -12.440   6.400  1.00  0.00     0.070 C 
HETATM    2  C   UNL     1      42.612 -12.305   5.978  1.00  0.00     0.037 C 
HETATM    3  N   UNL     1      41.857 -11.389   6.704  1.00  0.00    -0.191 N 
HETATM    4  C   UNL     1      40.511 -11.317   6.615  1.00  0.00     0.735 A 
HETATM    5  N   UNL     1      39.861 -12.068   5.675  1.00  0.00    -0.092 N 
HETATM    6  N   UNL     1      38.534 -11.917   5.799  1.00  0.00     0.012 NA
HETATM    7  N   UNL     1      38.389 -11.034   6.783  1.00  0.00     0.033 NA
HETATM    8  N   UNL     1      39.613 -10.653   7.301  1.00  0.00     0.030 NA
HETATM    9  C   UNL     1      40.522 -12.949   4.716  1.00  0.00     0.198 C 
HETATM   10  C   UNL     1      42.016 -13.049   5.012  1.00  0.00     0.062 C 
HETATM   11  H   UNL     1      42.313 -10.911   7.478  1.00  0.00     0.184 HD
ENDROOT
BRANCH  10  12
HETATM   12  C   UNL     1      42.715 -14.107   4.237  1.00  0.00     0.256 C 
HETATM   13  N   UNL     1      42.543 -15.372   4.754  1.00  0.00    -0.322 N 
HETATM   14  H   UNL     1      42.005 -15.459   5.607  1.00  0.00     0.169 HD
HETATM   15  O   UNL     1      43.395 -13.784   3.273  1.00  0.00    -0.267 OA
BRANCH  13  16
HETATM   16  C   UNL     1      43.044 -16.573   4.208  1.00  0.00     0.052 A 
HETATM   17  C   UNL     1      44.025 -17.373   4.789  1.00  0.00     0.145 A 
HETATM   18  N   UNL     1      44.503 -18.516   4.233  1.00  0.00    -0.271 NA
HETATM   19  C   UNL     1      43.985 -18.881   3.043  1.00  0.00     0.116 A 
HETATM   20  C   UNL     1      43.009 -18.157   2.382  1.00  0.00     0.021 A 
HETATM   21  C   UNL     1      42.531 -16.990   2.977  1.00  0.00     0.032 A 
ENDBRANCH  13  16
ENDBRANCH  10  12
BRANCH   9  22
HETATM   22  C   UNL     1      40.259 -12.489   3.283  1.00  0.00    -0.029 A 
HETATM   23  C   UNL     1      40.603 -11.202   2.834  1.00  0.00     0.009 A 
HETATM   24  C   UNL     1      40.362 -10.822   1.513  1.00  0.00     0.001 A 
HETATM   25  C   UNL     1      39.789 -11.723   0.618  1.00  0.00     0.000 A 
HETATM   26  C   UNL     1      39.461 -13.008   1.043  1.00  0.00     0.001 A 
HETATM   27  C   UNL     1      39.695 -13.392   2.363  1.00  0.00     0.009 A 
ENDBRANCH   9  22
TORSDOF 3
ENDMDL
MODEL 9
REMARK VINA RESULT:      -7.1      2.767      5.435
REMARK  3 active torsions:
REMARK  status: ('A' for Active; 'I' for Inactive)
REMARK    1  A    between atoms: C_9  and  C_10 
REMARK    2  A    between atoms: C_16  and  C_17 
REMARK       I    between atoms: C_17  and  N_18 
REMARK    3  A    between atoms: N_18  and  C_19 
ROOT
HETATM    1  C   UNL     1      39.730 -10.953   5.828  1.00  0.00     0.070 C 
HETATM    2  C   UNL     1      41.115 -11.514   6.031  1.00  0.00     0.037 C 
HETATM    3  N   UNL     1      41.888 -10.872   6.995  1.00  0.00    -0.191 N 
HETATM    4  C   UNL     1      43.212 -11.093   7.135  1.00  0.00     0.735 A 
HETATM    5  N   UNL     1      43.807 -12.085   6.406  1.00  0.00    -0.092 N 
HETATM    6  N   UNL     1      45.130 -12.092   6.627  1.00  0.00     0.012 NA
HETATM    7  N   UNL     1      45.323 -11.134   7.530  1.00  0.00     0.033 NA
HETATM    8  N   UNL     1      44.136 -10.503   7.854  1.00  0.00     0.030 NA
HETATM    9  C   UNL     1      43.104 -12.968   5.479  1.00  0.00     0.198 C 
HETATM   10  C   UNL     1      41.653 -12.527   5.306  1.00  0.00     0.062 C 
HETATM   11  H   UNL     1      41.483 -10.062   7.460  1.00  0.00     0.184 HD
ENDROOT
BRANCH  10  12
HETATM   12  C   UNL     1      40.940 -13.222   4.203  1.00  0.00     0.256 C 
HETATM   13  N   UNL     1      41.127 -12.635   2.971  1.00  0.00    -0.322 N 
HETATM   14  H   UNL     1      41.686 -11.792   2.936  1.00  0.00     0.169 HD
HETATM   15  O   UNL     1      40.236 -14.186   4.467  1.00  0.00    -0.267 OA
BRANCH  13  16
HETATM   16  C   UNL     1      40.617 -13.097   1.739  1.00  0.00     0.052 A 
HETATM   17  C   UNL     1      40.908 -14.328   1.159  1.00  0.00     0.145 A 
HETATM   18  N   UNL     1      40.418 -14.741  -0.039  1.00  0.00    -0.271 NA
HETATM   19  C   UNL     1      39.603 -13.889  -0.692  1.00  0.00     0.116 A 
HETATM   20  C   UNL     1      39.251 -12.643  -0.204  1.00  0.00     0.021 A 
HETATM   21  C   UNL     1      39.764 -12.246   1.030  1.00  0.00     0.032 A 
ENDBRANCH  13  16
ENDBRANCH  10  12
BRANCH   9  22
HETATM   22  C   UNL     1      43.203 -14.423   5.933  1.00  0.00    -0.029 A 
HETATM   23  C   UNL     1      43.598 -15.455   5.062  1.00  0.00     0.009 A 
HETATM   24  C   UNL     1      43.691 -16.771   5.515  1.00  0.00     0.001 A 
HETATM   25  C   UNL     1      43.408 -17.075   6.845  1.00  0.00     0.000 A 
HETATM   26  C   UNL     1      43.035 -16.062   7.725  1.00  0.00     0.001 A 
HETATM   27  C   UNL     1      42.935 -14.745   7.275  1.00  0.00     0.009 A 
ENDBRANCH   9  22
TORSDOF 3
ENDMDL
MODEL 10
REMARK VINA RESULT:      -7.1     14.973     16.478
REMARK  3 active torsions:
REMARK  status: ('A' for Active; 'I' for Inactive)
REMARK    1  A    between atoms: C_9  and  C_10 
REMARK    2  A    between atoms: C_16  and  C_17 
REMARK       I    between atoms: C_17  and  N_18 
REMARK    3  A    between atoms: N_18  and  C_19 
ROOT
HETATM    1  C   UNL     1      47.205 -29.878   3.279  1.00  0.00     0.070 C 
HETATM    2  C   UNL     1      45.980 -29.945   2.401  1.00  0.00     0.037 C 
HETATM    3  N   UNL     1      44.802 -29.480   2.978  1.00  0.00    -0.191 N 
HETATM    4  C   UNL     1      43.588 -29.683   2.424  1.00  0.00     0.735 A 
HETATM    5  N   UNL     1      43.504 -30.242   1.179  1.00  0.00    -0.092 N 
HETATM    6  N   UNL     1      42.220 -30.433   0.842  1.00  0.00     0.012 NA
HETATM    7  N   UNL     1      41.530 -29.941   1.867  1.00  0.00     0.033 NA
HETATM    8  N   UNL     1      42.370 -29.472   2.860  1.00  0.00     0.030 NA
HETATM    9  C   UNL     1      44.653 -30.626   0.364  1.00  0.00     0.198 C 
HETATM   10  C   UNL     1      45.952 -30.477   1.153  1.00  0.00     0.062 C 
HETATM   11  H   UNL     1      44.843 -29.167   3.945  1.00  0.00     0.184 HD
ENDROOT
BRANCH  10  12
HETATM   12  C   UNL     1      47.137 -31.071   0.482  1.00  0.00     0.256 C 
HETATM   13  N   UNL     1      48.131 -30.158   0.210  1.00  0.00    -0.322 N 
HETATM   14  H   UNL     1      47.954 -29.191   0.451  1.00  0.00     0.169 HD
HETATM   15  O   UNL     1      47.120 -32.260   0.195  1.00  0.00    -0.267 OA
BRANCH  13  16
HETATM   16  C   UNL     1      49.385 -30.436  -0.374  1.00  0.00     0.052 A 
HETATM   17  C   UNL     1      49.798 -30.010  -1.633  1.00  0.00     0.145 A 
HETATM   18  N   UNL     1      51.006 -30.308  -2.180  1.00  0.00    -0.271 NA
HETATM   19  C   UNL     1      51.840 -31.067  -1.442  1.00  0.00     0.116 A 
HETATM   20  C   UNL     1      51.527 -31.541  -0.181  1.00  0.00     0.021 A 
HETATM   21  C   UNL     1      50.283 -31.216   0.359  1.00  0.00     0.032 A 
ENDBRANCH  13  16
ENDBRANCH  10  12
BRANCH   9  22
HETATM   22  C   UNL     1      44.689 -29.827  -0.938  1.00  0.00    -0.029 A 
HETATM   23  C   UNL     1      45.083 -28.478  -0.980  1.00  0.00     0.009 A 
HETATM   24  C   UNL     1      45.117 -27.784  -2.189  1.00  0.00     0.001 A 
HETATM   25  C   UNL     1      44.775 -28.429  -3.376  1.00  0.00     0.000 A 
HETATM   26  C   UNL     1      44.402 -29.770  -3.355  1.00  0.00     0.001 A 
HETATM   27  C   UNL     1      44.361 -30.467  -2.147  1.00  0.00     0.009 A 
ENDBRANCH   9  22
TORSDOF 3
ENDMDL
