MODEL 1
REMARK VINA RESULT:     -11.1      0.000      0.000
REMARK  7 active torsions:
REMARK  status: ('A' for Active; 'I' for Inactive)
REMARK    1  A    between atoms: C_2  and  C_3 
REMARK    2  A    between atoms: N_16  and  C_17 
REMARK    3  A    between atoms: C_17  and  C_18 
REMARK       I    between atoms: C_18  and  N_19 
REMARK    4  A    between atoms: N_19  and  C_20 
REMARK    5  A    between atoms: C_21  and  C_22 
REMARK       I    between atoms: C_22  and  N_23 
REMARK    6  A    between atoms: N_23  and  C_24 
REMARK    7  A    between atoms: C_24  and  C_25 
ROOT
HETATM    1  C   UNL     1      41.020 -12.330   5.890  1.00  0.00     0.240 C 
ENDROOT
BRANCH   1   2
HETATM    2  N   UNL     1      41.415 -13.007   4.681  1.00  0.00    -0.259 N 
HETATM    3  C   UNL     1      40.544 -13.490   3.757  1.00  0.00     0.326 A 
HETATM    4  N   UNL     1      41.232 -14.278   2.865  1.00  0.00    -0.321 N 
HETATM    5  O   UNL     1      39.333 -13.345   3.740  1.00  0.00    -0.247 OA
HETATM    6  C   UNL     1      42.630 -14.429   3.222  1.00  0.00     0.140 A 
HETATM    7  H   UNL     1      40.749 -14.832   2.171  1.00  0.00     0.165 HD
HETATM    8  C   UNL     1      43.494 -13.796   2.130  1.00  0.00     0.054 C 
HETATM    9  C   UNL     1      42.667 -13.524   4.480  1.00  0.00     0.261 A 
HETATM   10  O   UNL     1      43.635 -13.349   5.209  1.00  0.00    -0.270 OA
BRANCH   6  11
HETATM   11  C   UNL     1      42.949 -15.878   3.601  1.00  0.00    -0.020 A 
HETATM   12  C   UNL     1      42.859 -16.935   2.677  1.00  0.00     0.022 A 
HETATM   13  C   UNL     1      43.246 -18.250   3.011  1.00  0.00    -0.025 A 
HETATM   14  C   UNL     1      43.733 -18.523   4.306  1.00  0.00    -0.026 A 
HETATM   15  C   UNL     1      43.177 -19.295   2.075  1.00  0.00     0.012 A 
HETATM   16  C   UNL     1      43.803 -17.483   5.240  1.00  0.00     0.013 A 
HETATM   17  C   UNL     1      44.147 -19.826   4.630  1.00  0.00     0.012 A 
HETATM   18  C   UNL     1      43.415 -16.185   4.893  1.00  0.00     0.011 A 
HETATM   19  C   UNL     1      44.078 -20.851   3.687  1.00  0.00     0.001 A 
HETATM   20  C   UNL     1      43.590 -20.587   2.410  1.00  0.00     0.001 A 
ENDBRANCH   6  11
ENDBRANCH   1   2
BRANCH   1  21
HETATM   21  C   UNL     1      41.938 -11.179   6.302  1.00  0.00     0.240 C 
HETATM   22  N   UNL     1      42.765 -11.560   7.352  1.00  0.00    -0.325 N 
HETATM   23  H   UNL     1      42.400 -12.287   7.958  1.00  0.00     0.169 HD
HETATM   24  O   UNL     1      41.890 -10.053   5.816  1.00  0.00    -0.271 OA
BRANCH  22  25
HETATM   25  C   UNL     1      43.858 -10.829   7.864  1.00  0.00     0.050 A 
HETATM   26  C   UNL     1      43.831  -9.984   8.982  1.00  0.00     0.058 A 
HETATM   27  C   UNL     1      44.986  -9.282   9.371  1.00  0.00     0.019 A 
HETATM   28  C   UNL     1      46.172  -9.417   8.649  1.00  0.00     0.001 A 
HETATM   29  C   UNL     1      46.201 -10.234   7.525  1.00  0.00     0.002 A 
HETATM   30  C   UNL     1      45.052 -10.924   7.129  1.00  0.00     0.030 A 
BRANCH  26  31
HETATM   31  C   UNL     1      42.596  -9.562   9.672  1.00  0.00     0.254 C 
HETATM   32  N   UNL     1      42.394 -10.150  10.895  1.00  0.00    -0.351 N 
HETATM   33  H   UNL     1      42.713 -11.114  10.955  1.00  0.00     0.163 HD
HETATM   34  O   UNL     1      41.902  -8.679   9.185  1.00  0.00    -0.268 OA
BRANCH  32  35
HETATM   35  C   UNL     1      41.207  -9.839  11.656  1.00  0.00     0.187 C 
BRANCH  35  36
HETATM   36  C   UNL     1      41.615  -9.063  12.854  1.00  0.00     0.070 A 
HETATM   37  O   UNL     1      40.950  -9.322  14.016  1.00  0.00    -0.325 OA
HETATM   38  C   UNL     1      41.490  -8.522  14.971  1.00  0.00     0.142 A 
HETATM   39  C   UNL     1      42.496  -7.750  14.440  1.00  0.00     0.027 A 
HETATM   40  C   UNL     1      42.576  -8.094  13.070  1.00  0.00     0.036 A 
ENDBRANCH  35  36
ENDBRANCH  32  35
ENDBRANCH  26  31
ENDBRANCH  22  25
ENDBRANCH   1  21
TORSDOF 7
ENDMDL
MODEL 2
REMARK VINA RESULT:     -10.7      1.561      1.987
REMARK  7 active torsions:
REMARK  status: ('A' for Active; 'I' for Inactive)
REMARK    1  A    between atoms: C_2  and  C_3 
REMARK    2  A    between atoms: N_16  and  C_17 
REMARK    3  A    between atoms: C_17  and  C_18 
REMARK       I    between atoms: C_18  and  N_19 
REMARK    4  A    between atoms: N_19  and  C_20 
REMARK    5  A    between atoms: C_21  and  C_22 
REMARK       I    between atoms: C_22  and  N_23 
REMARK    6  A    between atoms: N_23  and  C_24 
REMARK    7  A    between atoms: C_24  and  C_25 
ROOT
HETATM    1  C   UNL     1      41.545 -10.600   5.285  1.00  0.00     0.240 C 
ENDROOT
BRANCH   1   2
HETATM    2  N   UNL     1      40.855 -11.771   4.802  1.00  0.00    -0.259 N 
HETATM    3  C   UNL     1      39.909 -12.443   5.508  1.00  0.00     0.326 A 
HETATM    4  N   UNL     1      39.636 -13.629   4.869  1.00  0.00    -0.321 N 
HETATM    5  O   UNL     1      39.424 -12.123   6.580  1.00  0.00    -0.247 OA
HETATM    6  C   UNL     1      40.486 -13.844   3.712  1.00  0.00     0.140 A 
HETATM    7  H   UNL     1      39.050 -14.333   5.295  1.00  0.00     0.165 HD
HETATM    8  C   UNL     1      39.617 -13.868   2.454  1.00  0.00     0.054 C 
HETATM    9  C   UNL     1      41.290 -12.519   3.743  1.00  0.00     0.261 A 
HETATM   10  O   UNL     1      42.205 -12.219   2.986  1.00  0.00    -0.270 OA
BRANCH   6  11
HETATM   11  C   UNL     1      41.420 -15.038   3.928  1.00  0.00    -0.020 A 
HETATM   12  C   UNL     1      41.519 -16.094   3.003  1.00  0.00     0.022 A 
HETATM   13  C   UNL     1      42.451 -17.140   3.165  1.00  0.00    -0.025 A 
HETATM   14  C   UNL     1      43.307 -17.139   4.286  1.00  0.00    -0.026 A 
HETATM   15  C   UNL     1      42.561 -18.177   2.225  1.00  0.00     0.012 A 
HETATM   16  C   UNL     1      43.200 -16.107   5.224  1.00  0.00     0.013 A 
HETATM   17  C   UNL     1      44.257 -18.164   4.433  1.00  0.00     0.012 A 
HETATM   18  C   UNL     1      42.270 -15.077   5.049  1.00  0.00     0.011 A 
HETATM   19  C   UNL     1      44.358 -19.183   3.485  1.00  0.00     0.001 A 
HETATM   20  C   UNL     1      43.508 -19.192   2.383  1.00  0.00     0.001 A 
ENDBRANCH   6  11
ENDBRANCH   1   2
BRANCH   1  21
HETATM   21  C   UNL     1      42.599 -10.881   6.356  1.00  0.00     0.240 C 
HETATM   22  N   UNL     1      42.832  -9.749   7.127  1.00  0.00    -0.325 N 
HETATM   23  H   UNL     1      42.661  -8.861   6.667  1.00  0.00     0.169 HD
HETATM   24  O   UNL     1      43.205 -11.944   6.463  1.00  0.00    -0.271 OA
BRANCH  22  25
HETATM   25  C   UNL     1      43.593  -9.687   8.313  1.00  0.00     0.050 A 
HETATM   26  C   UNL     1      43.082  -9.674   9.619  1.00  0.00     0.058 A 
HETATM   27  C   UNL     1      43.950  -9.575  10.721  1.00  0.00     0.019 A 
HETATM   28  C   UNL     1      45.328  -9.489  10.530  1.00  0.00     0.001 A 
HETATM   29  C   UNL     1      45.843  -9.476   9.239  1.00  0.00     0.002 A 
HETATM   30  C   UNL     1      44.982  -9.563   8.141  1.00  0.00     0.030 A 
BRANCH  26  31
HETATM   31  C   UNL     1      41.652  -9.506   9.947  1.00  0.00     0.254 C 
HETATM   32  N   UNL     1      41.291  -9.978  11.184  1.00  0.00    -0.351 N 
HETATM   33  H   UNL     1      41.792 -10.812  11.478  1.00  0.00     0.163 HD
HETATM   34  O   UNL     1      40.922  -8.897   9.177  1.00  0.00    -0.268 OA
BRANCH  32  35
HETATM   35  C   UNL     1      39.914  -9.895  11.611  1.00  0.00     0.187 C 
BRANCH  35  36
HETATM   36  C   UNL     1      39.785  -8.748  12.544  1.00  0.00     0.070 A 
HETATM   37  O   UNL     1      40.760  -8.605  13.488  1.00  0.00    -0.325 OA
HETATM   38  C   UNL     1      40.455  -7.497  14.211  1.00  0.00     0.142 A 
HETATM   39  C   UNL     1      39.295  -6.923  13.746  1.00  0.00     0.027 A 
HETATM   40  C   UNL     1      38.858  -7.732  12.671  1.00  0.00     0.036 A 
ENDBRANCH  35  36
ENDBRANCH  32  35
ENDBRANCH  26  31
ENDBRANCH  22  25
ENDBRANCH   1  21
TORSDOF 7
ENDMDL
MODEL 3
REMARK VINA RESULT:     -10.6      5.211     10.063
REMARK  7 active torsions:
REMARK  status: ('A' for Active; 'I' for Inactive)
REMARK    1  A    between atoms: C_2  and  C_3 
REMARK    2  A    between atoms: N_16  and  C_17 
REMARK    3  A    between atoms: C_17  and  C_18 
REMARK       I    between atoms: C_18  and  N_19 
REMARK    4  A    between atoms: N_19  and  C_20 
REMARK    5  A    between atoms: C_21  and  C_22 
REMARK       I    between atoms: C_22  and  N_23 
REMARK    6  A    between atoms: N_23  and  C_24 
REMARK    7  A    between atoms: C_24  and  C_25 
ROOT
HETATM    1  C   UNL     1      40.586 -11.631   2.212  1.00  0.00     0.240 C 
ENDROOT
BRANCH   1   2
HETATM    2  N   UNL     1      41.393 -12.329   3.181  1.00  0.00    -0.259 N 
HETATM    3  C   UNL     1      42.714 -12.091   3.387  1.00  0.00     0.326 A 
HETATM    4  N   UNL     1      43.224 -13.080   4.195  1.00  0.00    -0.321 N 
HETATM    5  O   UNL     1      43.391 -11.210   2.885  1.00  0.00    -0.247 OA
HETATM    6  C   UNL     1      42.245 -14.106   4.501  1.00  0.00     0.140 A 
HETATM    7  H   UNL     1      44.217 -13.157   4.369  1.00  0.00     0.165 HD
HETATM    8  C   UNL     1      41.972 -14.099   6.006  1.00  0.00     0.054 C 
HETATM    9  C   UNL     1      41.018 -13.508   3.765  1.00  0.00     0.261 A 
HETATM   10  O   UNL     1      39.916 -14.033   3.667  1.00  0.00    -0.270 OA
BRANCH   6  11
HETATM   11  C   UNL     1      42.637 -15.447   3.877  1.00  0.00    -0.020 A 
HETATM   12  C   UNL     1      43.144 -16.515   4.642  1.00  0.00     0.022 A 
HETATM   13  C   UNL     1      43.412 -17.776   4.072  1.00  0.00    -0.025 A 
HETATM   14  C   UNL     1      43.176 -17.982   2.697  1.00  0.00    -0.026 A 
HETATM   15  C   UNL     1      43.894 -18.844   4.848  1.00  0.00     0.012 A 
HETATM   16  C   UNL     1      42.696 -16.920   1.923  1.00  0.00     0.013 A 
HETATM   17  C   UNL     1      43.414 -19.248   2.135  1.00  0.00     0.012 A 
HETATM   18  C   UNL     1      42.434 -15.675   2.503  1.00  0.00     0.011 A 
HETATM   19  C   UNL     1      43.886 -20.299   2.921  1.00  0.00     0.001 A 
HETATM   20  C   UNL     1      44.130 -20.096   4.276  1.00  0.00     0.001 A 
ENDBRANCH   6  11
ENDBRANCH   1   2
BRANCH   1  21
HETATM   21  C   UNL     1      40.623 -12.230   0.806  1.00  0.00     0.240 C 
HETATM   22  N   UNL     1      39.444 -12.910   0.528  1.00  0.00    -0.325 N 
HETATM   23  H   UNL     1      38.956 -13.289   1.333  1.00  0.00     0.169 HD
HETATM   24  O   UNL     1      41.598 -12.176   0.061  1.00  0.00    -0.271 OA
BRANCH  22  25
HETATM   25  C   UNL     1      39.050 -13.425  -0.725  1.00  0.00     0.050 A 
HETATM   26  C   UNL     1      38.244 -12.770  -1.666  1.00  0.00     0.058 A 
HETATM   27  C   UNL     1      37.895 -13.408  -2.870  1.00  0.00     0.019 A 
HETATM   28  C   UNL     1      38.345 -14.700  -3.142  1.00  0.00     0.001 A 
HETATM   29  C   UNL     1      39.124 -15.366  -2.203  1.00  0.00     0.002 A 
HETATM   30  C   UNL     1      39.464 -14.738  -1.001  1.00  0.00     0.030 A 
BRANCH  26  31
HETATM   31  C   UNL     1      37.504 -11.521  -1.397  1.00  0.00     0.254 C 
HETATM   32  N   UNL     1      36.837 -11.007  -2.481  1.00  0.00    -0.351 N 
HETATM   33  H   UNL     1      37.313 -11.142  -3.370  1.00  0.00     0.163 HD
HETATM   34  O   UNL     1      37.446 -11.086  -0.255  1.00  0.00    -0.268 OA
BRANCH  32  35
HETATM   35  C   UNL     1      36.098  -9.773  -2.352  1.00  0.00     0.187 C 
BRANCH  35  36
HETATM   36  C   UNL     1      34.670 -10.056  -2.642  1.00  0.00     0.070 A 
HETATM   37  O   UNL     1      34.405 -10.969  -3.621  1.00  0.00    -0.325 OA
HETATM   38  C   UNL     1      33.055 -11.082  -3.704  1.00  0.00     0.142 A 
HETATM   39  C   UNL     1      32.444 -10.255  -2.792  1.00  0.00     0.027 A 
HETATM   40  C   UNL     1      33.486  -9.587  -2.106  1.00  0.00     0.036 A 
ENDBRANCH  35  36
ENDBRANCH  32  35
ENDBRANCH  26  31
ENDBRANCH  22  25
ENDBRANCH   1  21
TORSDOF 7
ENDMDL
MODEL 4
REMARK VINA RESULT:     -10.5      4.329      8.506
REMARK  7 active torsions:
REMARK  status: ('A' for Active; 'I' for Inactive)
REMARK    1  A    between atoms: C_2  and  C_3 
REMARK    2  A    between atoms: N_16  and  C_17 
REMARK    3  A    between atoms: C_17  and  C_18 
REMARK       I    between atoms: C_18  and  N_19 
REMARK    4  A    between atoms: N_19  and  C_20 
REMARK    5  A    between atoms: C_21  and  C_22 
REMARK       I    between atoms: C_22  and  N_23 
REMARK    6  A    between atoms: N_23  and  C_24 
REMARK    7  A    between atoms: C_24  and  C_25 
ROOT
HETATM    1  C   UNL     1      41.159 -12.154   5.559  1.00  0.00     0.240 C 
ENDROOT
BRANCH   1   2
HETATM    2  N   UNL     1      42.118 -13.114   6.044  1.00  0.00    -0.259 N 
HETATM    3  C   UNL     1      43.463 -12.925   6.024  1.00  0.00     0.326 A 
HETATM    4  N   UNL     1      44.084 -14.113   6.330  1.00  0.00    -0.321 N 
HETATM    5  O   UNL     1      44.060 -11.911   5.704  1.00  0.00    -0.247 OA
HETATM    6  C   UNL     1      43.143 -15.206   6.488  1.00  0.00     0.140 A 
HETATM    7  H   UNL     1      45.086 -14.219   6.247  1.00  0.00     0.165 HD
HETATM    8  C   UNL     1      43.199 -15.706   7.932  1.00  0.00     0.054 C 
HETATM    9  C   UNL     1      41.819 -14.429   6.275  1.00  0.00     0.261 A 
HETATM   10  O   UNL     1      40.696 -14.918   6.253  1.00  0.00    -0.270 OA
BRANCH   6  11
HETATM   11  C   UNL     1      43.326 -16.254   5.388  1.00  0.00    -0.020 A 
HETATM   12  C   UNL     1      43.593 -17.607   5.672  1.00  0.00     0.022 A 
HETATM   13  C   UNL     1      43.665 -18.581   4.656  1.00  0.00    -0.025 A 
HETATM   14  C   UNL     1      43.471 -18.199   3.312  1.00  0.00    -0.026 A 
HETATM   15  C   UNL     1      43.908 -19.933   4.951  1.00  0.00     0.012 A 
HETATM   16  C   UNL     1      43.229 -16.853   3.016  1.00  0.00     0.013 A 
HETATM   17  C   UNL     1      43.513 -19.174   2.301  1.00  0.00     0.012 A 
HETATM   18  C   UNL     1      43.161 -15.899   4.036  1.00  0.00     0.011 A 
HETATM   19  C   UNL     1      43.748 -20.513   2.612  1.00  0.00     0.001 A 
HETATM   20  C   UNL     1      43.949 -20.892   3.936  1.00  0.00     0.001 A 
ENDBRANCH   6  11
ENDBRANCH   1   2
BRANCH   1  21
HETATM   21  C   UNL     1      40.313 -12.641   4.382  1.00  0.00     0.240 C 
HETATM   22  N   UNL     1      41.115 -12.922   3.282  1.00  0.00    -0.325 N 
HETATM   23  H   UNL     1      41.984 -12.400   3.227  1.00  0.00     0.169 HD
HETATM   24  O   UNL     1      39.087 -12.698   4.393  1.00  0.00    -0.271 OA
BRANCH  22  25
HETATM   25  C   UNL     1      40.709 -13.563   2.093  1.00  0.00     0.050 A 
HETATM   26  C   UNL     1      40.512 -12.943   0.851  1.00  0.00     0.058 A 
HETATM   27  C   UNL     1      40.071 -13.692  -0.255  1.00  0.00     0.019 A 
HETATM   28  C   UNL     1      39.824 -15.058  -0.130  1.00  0.00     0.001 A 
HETATM   29  C   UNL     1      39.993 -15.677   1.103  1.00  0.00     0.002 A 
HETATM   30  C   UNL     1      40.421 -14.932   2.207  1.00  0.00     0.030 A 
BRANCH  26  31
HETATM   31  C   UNL     1      40.492 -11.481   0.648  1.00  0.00     0.254 C 
HETATM   32  N   UNL     1      41.542 -10.991  -0.088  1.00  0.00    -0.351 N 
HETATM   33  H   UNL     1      42.422 -11.479   0.061  1.00  0.00     0.163 HD
HETATM   34  O   UNL     1      39.536 -10.827   1.044  1.00  0.00    -0.268 OA
BRANCH  32  35
HETATM   35  C   UNL     1      41.650  -9.572  -0.332  1.00  0.00     0.187 C 
BRANCH  35  36
HETATM   36  C   UNL     1      41.437  -9.334  -1.781  1.00  0.00     0.070 A 
HETATM   37  O   UNL     1      42.002  -8.212  -2.315  1.00  0.00    -0.325 OA
HETATM   38  C   UNL     1      41.698  -8.205  -3.638  1.00  0.00     0.142 A 
HETATM   39  C   UNL     1      40.945  -9.307  -3.967  1.00  0.00     0.027 A 
HETATM   40  C   UNL     1      40.771 -10.037  -2.767  1.00  0.00     0.036 A 
ENDBRANCH  35  36
ENDBRANCH  32  35
ENDBRANCH  26  31
ENDBRANCH  22  25
ENDBRANCH   1  21
TORSDOF 7
ENDMDL
MODEL 5
REMARK VINA RESULT:     -10.4      2.529      4.445
REMARK  7 active torsions:
REMARK  status: ('A' for Active; 'I' for Inactive)
REMARK    1  A    between atoms: C_2  and  C_3 
REMARK    2  A    between atoms: N_16  and  C_17 
REMARK    3  A    between atoms: C_17  and  C_18 
REMARK       I    between atoms: C_18  and  N_19 
REMARK    4  A    between atoms: N_19  and  C_20 
REMARK    5  A    between atoms: C_21  and  C_22 
REMARK       I    between atoms: C_22  and  N_23 
REMARK    6  A    between atoms: N_23  and  C_24 
REMARK    7  A    between atoms: C_24  and  C_25 
ROOT
HETATM    1  C   UNL     1      39.723 -12.493   4.976  1.00  0.00     0.240 C 
ENDROOT
BRANCH   1   2
HETATM    2  N   UNL     1      41.042 -12.977   5.299  1.00  0.00    -0.259 N 
HETATM    3  C   UNL     1      42.192 -12.439   4.814  1.00  0.00     0.326 A 
HETATM    4  N   UNL     1      43.239 -13.275   5.122  1.00  0.00    -0.321 N 
HETATM    5  O   UNL     1      42.305 -11.431   4.136  1.00  0.00    -0.247 OA
HETATM    6  C   UNL     1      42.801 -14.495   5.774  1.00  0.00     0.140 A 
HETATM    7  H   UNL     1      44.163 -13.121   4.744  1.00  0.00     0.165 HD
HETATM    8  C   UNL     1      43.375 -14.535   7.191  1.00  0.00     0.054 C 
HETATM    9  C   UNL     1      41.281 -14.204   5.855  1.00  0.00     0.261 A 
HETATM   10  O   UNL     1      40.427 -14.969   6.286  1.00  0.00    -0.270 OA
BRANCH   6  11
HETATM   11  C   UNL     1      43.061 -15.717   4.890  1.00  0.00    -0.020 A 
HETATM   12  C   UNL     1      43.449 -16.962   5.420  1.00  0.00     0.022 A 
HETATM   13  C   UNL     1      43.593 -18.105   4.607  1.00  0.00    -0.025 A 
HETATM   14  C   UNL     1      43.350 -18.006   3.221  1.00  0.00    -0.026 A 
HETATM   15  C   UNL     1      43.957 -19.349   5.147  1.00  0.00     0.012 A 
HETATM   16  C   UNL     1      42.988 -16.768   2.680  1.00  0.00     0.013 A 
HETATM   17  C   UNL     1      43.464 -19.151   2.414  1.00  0.00     0.012 A 
HETATM   18  C   UNL     1      42.849 -15.644   3.500  1.00  0.00     0.011 A 
HETATM   19  C   UNL     1      43.819 -20.381   2.968  1.00  0.00     0.001 A 
HETATM   20  C   UNL     1      44.069 -20.480   4.334  1.00  0.00     0.001 A 
ENDBRANCH   6  11
ENDBRANCH   1   2
BRANCH   1  21
HETATM   21  C   UNL     1      39.201 -11.403   5.912  1.00  0.00     0.240 C 
HETATM   22  N   UNL     1      39.764 -10.172   5.598  1.00  0.00    -0.325 N 
HETATM   23  H   UNL     1      40.680 -10.206   5.163  1.00  0.00     0.169 HD
HETATM   24  O   UNL     1      38.445 -11.611   6.857  1.00  0.00    -0.271 OA
BRANCH  22  25
HETATM   25  C   UNL     1      39.381  -8.919   6.121  1.00  0.00     0.050 A 
HETATM   26  C   UNL     1      39.810  -8.369   7.337  1.00  0.00     0.058 A 
HETATM   27  C   UNL     1      39.325  -7.119   7.762  1.00  0.00     0.019 A 
HETATM   28  C   UNL     1      38.412  -6.412   6.981  1.00  0.00     0.001 A 
HETATM   29  C   UNL     1      37.962  -6.960   5.786  1.00  0.00     0.002 A 
HETATM   30  C   UNL     1      38.434  -8.208   5.366  1.00  0.00     0.030 A 
BRANCH  26  31
HETATM   31  C   UNL     1      40.566  -9.115   8.362  1.00  0.00     0.254 C 
HETATM   32  N   UNL     1      41.925  -8.929   8.319  1.00  0.00    -0.351 N 
HETATM   33  H   UNL     1      42.304  -8.815   7.382  1.00  0.00     0.163 HD
HETATM   34  O   UNL     1      39.963  -9.750   9.217  1.00  0.00    -0.268 OA
BRANCH  32  35
HETATM   35  C   UNL     1      42.777  -9.626   9.254  1.00  0.00     0.187 C 
BRANCH  35  36
HETATM   36  C   UNL     1      44.102  -9.823   8.616  1.00  0.00     0.070 A 
HETATM   37  O   UNL     1      44.997  -8.798   8.714  1.00  0.00    -0.325 OA
HETATM   38  C   UNL     1      46.130  -9.197   8.083  1.00  0.00     0.142 A 
HETATM   39  C   UNL     1      45.980 -10.467   7.578  1.00  0.00     0.027 A 
HETATM   40  C   UNL     1      44.668 -10.873   7.917  1.00  0.00     0.036 A 
ENDBRANCH  35  36
ENDBRANCH  32  35
ENDBRANCH  26  31
ENDBRANCH  22  25
ENDBRANCH   1  21
TORSDOF 7
ENDMDL
MODEL 6
REMARK VINA RESULT:     -10.3      2.528      3.756
REMARK  7 active torsions:
REMARK  status: ('A' for Active; 'I' for Inactive)
REMARK    1  A    between atoms: C_2  and  C_3 
REMARK    2  A    between atoms: N_16  and  C_17 
REMARK    3  A    between atoms: C_17  and  C_18 
REMARK       I    between atoms: C_18  and  N_19 
REMARK    4  A    between atoms: N_19  and  C_20 
REMARK    5  A    between atoms: C_21  and  C_22 
REMARK       I    between atoms: C_22  and  N_23 
REMARK    6  A    between atoms: N_23  and  C_24 
REMARK    7  A    between atoms: C_24  and  C_25 
ROOT
HETATM    1  C   UNL     1      39.657 -12.665   4.855  1.00  0.00     0.240 C 
ENDROOT
BRANCH   1   2
HETATM    2  N   UNL     1      41.041 -13.048   4.988  1.00  0.00    -0.259 N 
HETATM    3  C   UNL     1      42.056 -12.498   4.272  1.00  0.00     0.326 A 
HETATM    4  N   UNL     1      43.193 -13.246   4.465  1.00  0.00    -0.321 N 
HETATM    5  O   UNL     1      41.989 -11.552   3.505  1.00  0.00    -0.247 OA
HETATM    6  C   UNL     1      42.951 -14.423   5.279  1.00  0.00     0.140 A 
HETATM    7  H   UNL     1      44.031 -13.079   3.925  1.00  0.00     0.165 HD
HETATM    8  C   UNL     1      43.751 -14.303   6.577  1.00  0.00     0.054 C 
HETATM    9  C   UNL     1      41.449 -14.205   5.593  1.00  0.00     0.261 A 
HETATM   10  O   UNL     1      40.730 -14.971   6.223  1.00  0.00    -0.270 OA
BRANCH   6  11
HETATM   11  C   UNL     1      43.143 -15.705   4.466  1.00  0.00    -0.020 A 
HETATM   12  C   UNL     1      43.540 -16.920   5.057  1.00  0.00     0.022 A 
HETATM   13  C   UNL     1      43.622 -18.116   4.316  1.00  0.00    -0.025 A 
HETATM   14  C   UNL     1      43.304 -18.105   2.942  1.00  0.00    -0.026 A 
HETATM   15  C   UNL     1      43.995 -19.329   4.919  1.00  0.00     0.012 A 
HETATM   16  C   UNL     1      42.932 -16.899   2.339  1.00  0.00     0.013 A 
HETATM   17  C   UNL     1      43.356 -19.303   2.209  1.00  0.00     0.012 A 
HETATM   18  C   UNL     1      42.856 -15.720   3.088  1.00  0.00     0.011 A 
HETATM   19  C   UNL     1      43.722 -20.500   2.825  1.00  0.00     0.001 A 
HETATM   20  C   UNL     1      44.045 -20.512   4.179  1.00  0.00     0.001 A 
ENDBRANCH   6  11
ENDBRANCH   1   2
BRANCH   1  21
HETATM   21  C   UNL     1      39.222 -11.527   5.778  1.00  0.00     0.240 C 
HETATM   22  N   UNL     1      39.657 -10.301   5.288  1.00  0.00    -0.325 N 
HETATM   23  H   UNL     1      40.495 -10.329   4.717  1.00  0.00     0.169 HD
HETATM   24  O   UNL     1      38.636 -11.692   6.845  1.00  0.00    -0.271 OA
BRANCH  22  25
HETATM   25  C   UNL     1      39.286  -9.029   5.771  1.00  0.00     0.050 A 
HETATM   26  C   UNL     1      39.928  -8.318   6.795  1.00  0.00     0.058 A 
HETATM   27  C   UNL     1      39.436  -7.067   7.208  1.00  0.00     0.019 A 
HETATM   28  C   UNL     1      38.306  -6.517   6.605  1.00  0.00     0.001 A 
HETATM   29  C   UNL     1      37.648  -7.226   5.606  1.00  0.00     0.002 A 
HETATM   30  C   UNL     1      38.128  -8.475   5.201  1.00  0.00     0.030 A 
BRANCH  26  31
HETATM   31  C   UNL     1      40.966  -8.890   7.675  1.00  0.00     0.254 C 
HETATM   32  N   UNL     1      40.717  -8.753   9.018  1.00  0.00    -0.351 N 
HETATM   33  H   UNL     1      40.247  -7.887   9.271  1.00  0.00     0.163 HD
HETATM   34  O   UNL     1      41.899  -9.513   7.186  1.00  0.00    -0.268 OA
BRANCH  32  35
HETATM   35  C   UNL     1      41.672  -9.247   9.981  1.00  0.00     0.187 C 
BRANCH  35  36
HETATM   36  C   UNL     1      40.940  -9.588  11.226  1.00  0.00     0.070 A 
HETATM   37  O   UNL     1      41.579  -9.345  12.407  1.00  0.00    -0.325 OA
HETATM   38  C   UNL     1      40.730  -9.710  13.401  1.00  0.00     0.142 A 
HETATM   39  C   UNL     1      39.551 -10.186  12.879  1.00  0.00     0.027 A 
HETATM   40  C   UNL     1      39.686 -10.112  11.472  1.00  0.00     0.036 A 
ENDBRANCH  35  36
ENDBRANCH  32  35
ENDBRANCH  26  31
ENDBRANCH  22  25
ENDBRANCH   1  21
TORSDOF 7
ENDMDL
MODEL 7
REMARK VINA RESULT:     -10.3      2.012     10.555
REMARK  7 active torsions:
REMARK  status: ('A' for Active; 'I' for Inactive)
REMARK    1  A    between atoms: C_2  and  C_3 
REMARK    2  A    between atoms: N_16  and  C_17 
REMARK    3  A    between atoms: C_17  and  C_18 
REMARK       I    between atoms: C_18  and  N_19 
REMARK    4  A    between atoms: N_19  and  C_20 
REMARK    5  A    between atoms: C_21  and  C_22 
REMARK       I    between atoms: C_22  and  N_23 
REMARK    6  A    between atoms: N_23  and  C_24 
REMARK    7  A    between atoms: C_24  and  C_25 
ROOT
HETATM    1  C   UNL     1      41.706 -11.658   6.018  1.00  0.00     0.240 C 
ENDROOT
BRANCH   1   2
HETATM    2  N   UNL     1      42.911 -11.322   6.735  1.00  0.00    -0.259 N 
HETATM    3  C   UNL     1      43.755 -12.237   7.279  1.00  0.00     0.326 A 
HETATM    4  N   UNL     1      44.657 -11.585   8.086  1.00  0.00    -0.321 N 
HETATM    5  O   UNL     1      43.698 -13.450   7.168  1.00  0.00    -0.247 OA
HETATM    6  C   UNL     1      44.387 -10.163   8.184  1.00  0.00     0.140 A 
HETATM    7  H   UNL     1      45.295 -12.095   8.682  1.00  0.00     0.165 HD
HETATM    8  C   UNL     1      45.559  -9.391   7.575  1.00  0.00     0.054 C 
HETATM    9  C   UNL     1      43.173 -10.072   7.225  1.00  0.00     0.261 A 
HETATM   10  O   UNL     1      42.517  -9.064   6.994  1.00  0.00    -0.270 OA
BRANCH   6  11
HETATM   11  C   UNL     1      43.972  -9.777   9.606  1.00  0.00    -0.020 A 
HETATM   12  C   UNL     1      43.620  -8.460   9.957  1.00  0.00     0.022 A 
HETATM   13  C   UNL     1      43.147  -8.135  11.245  1.00  0.00    -0.025 A 
HETATM   14  C   UNL     1      43.026  -9.150  12.217  1.00  0.00    -0.026 A 
HETATM   15  C   UNL     1      42.776  -6.822  11.580  1.00  0.00     0.012 A 
HETATM   16  C   UNL     1      43.395 -10.457  11.886  1.00  0.00     0.013 A 
HETATM   17  C   UNL     1      42.526  -8.832  13.492  1.00  0.00     0.012 A 
HETATM   18  C   UNL     1      43.862 -10.764  10.604  1.00  0.00     0.011 A 
HETATM   19  C   UNL     1      42.155  -7.525  13.806  1.00  0.00     0.001 A 
HETATM   20  C   UNL     1      42.283  -6.519  12.852  1.00  0.00     0.001 A 
ENDBRANCH   6  11
ENDBRANCH   1   2
BRANCH   1  21
HETATM   21  C   UNL     1      41.938 -12.401   4.701  1.00  0.00     0.240 C 
HETATM   22  N   UNL     1      40.824 -13.160   4.361  1.00  0.00    -0.325 N 
HETATM   23  H   UNL     1      40.251 -13.472   5.137  1.00  0.00     0.169 HD
HETATM   24  O   UNL     1      42.996 -12.383   4.078  1.00  0.00    -0.271 OA
BRANCH  22  25
HETATM   25  C   UNL     1      40.607 -13.821   3.134  1.00  0.00     0.050 A 
HETATM   26  C   UNL     1      40.862 -15.175   2.873  1.00  0.00     0.058 A 
HETATM   27  C   UNL     1      40.633 -15.708   1.592  1.00  0.00     0.019 A 
HETATM   28  C   UNL     1      40.150 -14.897   0.565  1.00  0.00     0.001 A 
HETATM   29  C   UNL     1      39.917 -13.548   0.808  1.00  0.00     0.002 A 
HETATM   30  C   UNL     1      40.155 -13.013   2.078  1.00  0.00     0.030 A 
BRANCH  26  31
HETATM   31  C   UNL     1      41.602 -16.069   3.786  1.00  0.00     0.254 C 
HETATM   32  N   UNL     1      42.859 -16.412   3.355  1.00  0.00    -0.351 N 
HETATM   33  H   UNL     1      42.943 -16.520   2.348  1.00  0.00     0.163 HD
HETATM   34  O   UNL     1      41.117 -16.364   4.870  1.00  0.00    -0.268 OA
BRANCH  32  35
HETATM   35  C   UNL     1      43.672 -17.304   4.148  1.00  0.00     0.187 C 
BRANCH  35  36
HETATM   36  C   UNL     1      43.661 -18.639   3.500  1.00  0.00     0.070 A 
HETATM   37  O   UNL     1      44.005 -19.708   4.275  1.00  0.00    -0.325 OA
HETATM   38  C   UNL     1      43.911 -20.814   3.493  1.00  0.00     0.142 A 
HETATM   39  C   UNL     1      43.509 -20.474   2.223  1.00  0.00     0.027 A 
HETATM   40  C   UNL     1      43.351 -19.068   2.223  1.00  0.00     0.036 A 
ENDBRANCH  35  36
ENDBRANCH  32  35
ENDBRANCH  26  31
ENDBRANCH  22  25
ENDBRANCH   1  21
TORSDOF 7
ENDMDL
MODEL 8
REMARK VINA RESULT:     -10.2      2.061      3.117
REMARK  7 active torsions:
REMARK  status: ('A' for Active; 'I' for Inactive)
REMARK    1  A    between atoms: C_2  and  C_3 
REMARK    2  A    between atoms: N_16  and  C_17 
REMARK    3  A    between atoms: C_17  and  C_18 
REMARK       I    between atoms: C_18  and  N_19 
REMARK    4  A    between atoms: N_19  and  C_20 
REMARK    5  A    between atoms: C_21  and  C_22 
REMARK       I    between atoms: C_22  and  N_23 
REMARK    6  A    between atoms: N_23  and  C_24 
REMARK    7  A    between atoms: C_24  and  C_25 
ROOT
HETATM    1  C   UNL     1      42.083 -11.849   6.414  1.00  0.00     0.240 C 
ENDROOT
BRANCH   1   2
HETATM    2  N   UNL     1      41.513 -12.606   5.327  1.00  0.00    -0.259 N 
HETATM    3  C   UNL     1      40.353 -13.307   5.412  1.00  0.00     0.326 A 
HETATM    4  N   UNL     1      40.226 -14.095   4.293  1.00  0.00    -0.321 N 
HETATM    5  O   UNL     1      39.572 -13.330   6.349  1.00  0.00    -0.247 OA
HETATM    6  C   UNL     1      41.384 -14.013   3.422  1.00  0.00     0.140 A 
HETATM    7  H   UNL     1      39.493 -14.788   4.217  1.00  0.00     0.165 HD
HETATM    8  C   UNL     1      40.959 -13.403   2.086  1.00  0.00     0.054 C 
HETATM    9  C   UNL     1      42.215 -12.968   4.210  1.00  0.00     0.261 A 
HETATM   10  O   UNL     1      43.339 -12.579   3.918  1.00  0.00    -0.270 OA
BRANCH   6  11
HETATM   11  C   UNL     1      42.127 -15.350   3.365  1.00  0.00    -0.020 A 
HETATM   12  C   UNL     1      42.472 -16.070   4.525  1.00  0.00     0.022 A 
HETATM   13  C   UNL     1      43.071 -17.345   4.458  1.00  0.00    -0.025 A 
HETATM   14  C   UNL     1      43.342 -17.920   3.199  1.00  0.00    -0.026 A 
HETATM   15  C   UNL     1      43.390 -18.067   5.620  1.00  0.00     0.012 A 
HETATM   16  C   UNL     1      43.026 -17.202   2.041  1.00  0.00     0.013 A 
HETATM   17  C   UNL     1      43.911 -19.203   3.131  1.00  0.00     0.012 A 
HETATM   18  C   UNL     1      42.432 -15.939   2.124  1.00  0.00     0.011 A 
HETATM   19  C   UNL     1      44.215 -19.910   4.294  1.00  0.00     0.001 A 
HETATM   20  C   UNL     1      43.958 -19.341   5.539  1.00  0.00     0.001 A 
ENDBRANCH   6  11
ENDBRANCH   1   2
BRANCH   1  21
HETATM   21  C   UNL     1      41.614 -10.396   6.489  1.00  0.00     0.240 C 
HETATM   22  N   UNL     1      40.497 -10.280   7.308  1.00  0.00    -0.325 N 
HETATM   23  H   UNL     1      39.913 -11.107   7.373  1.00  0.00     0.169 HD
HETATM   24  O   UNL     1      42.118  -9.477   5.849  1.00  0.00    -0.271 OA
BRANCH  22  25
HETATM   25  C   UNL     1      39.910  -9.078   7.757  1.00  0.00     0.050 A 
HETATM   26  C   UNL     1      39.915  -8.603   9.076  1.00  0.00     0.058 A 
HETATM   27  C   UNL     1      39.261  -7.401   9.400  1.00  0.00     0.019 A 
HETATM   28  C   UNL     1      38.601  -6.667   8.416  1.00  0.00     0.001 A 
HETATM   29  C   UNL     1      38.571  -7.142   7.110  1.00  0.00     0.002 A 
HETATM   30  C   UNL     1      39.210  -8.343   6.787  1.00  0.00     0.030 A 
BRANCH  26  31
HETATM   31  C   UNL     1      40.352  -9.398  10.241  1.00  0.00     0.254 C 
HETATM   32  N   UNL     1      41.649  -9.177  10.630  1.00  0.00    -0.351 N 
HETATM   33  H   UNL     1      42.291  -8.992   9.863  1.00  0.00     0.163 HD
HETATM   34  O   UNL     1      39.543 -10.103  10.830  1.00  0.00    -0.268 OA
BRANCH  32  35
HETATM   35  C   UNL     1      42.202  -9.914  11.741  1.00  0.00     0.187 C 
BRANCH  35  36
HETATM   36  C   UNL     1      42.348  -8.983  12.888  1.00  0.00     0.070 A 
HETATM   37  O   UNL     1      41.515  -9.175  13.952  1.00  0.00    -0.325 OA
HETATM   38  C   UNL     1      41.831  -8.234  14.879  1.00  0.00     0.142 A 
HETATM   39  C   UNL     1      42.857  -7.438  14.428  1.00  0.00     0.027 A 
HETATM   40  C   UNL     1      43.190  -7.917  13.140  1.00  0.00     0.036 A 
ENDBRANCH  35  36
ENDBRANCH  32  35
ENDBRANCH  26  31
ENDBRANCH  22  25
ENDBRANCH   1  21
TORSDOF 7
ENDMDL
MODEL 9
REMARK VINA RESULT:     -10.2      3.346      7.850
REMARK  7 active torsions:
REMARK  status: ('A' for Active; 'I' for Inactive)
REMARK    1  A    between atoms: C_2  and  C_3 
REMARK    2  A    between atoms: N_16  and  C_17 
REMARK    3  A    between atoms: C_17  and  C_18 
REMARK       I    between atoms: C_18  and  N_19 
REMARK    4  A    between atoms: N_19  and  C_20 
REMARK    5  A    between atoms: C_21  and  C_22 
REMARK       I    between atoms: C_22  and  N_23 
REMARK    6  A    between atoms: N_23  and  C_24 
REMARK    7  A    between atoms: C_24  and  C_25 
ROOT
HETATM    1  C   UNL     1      40.725 -14.652   0.518  1.00  0.00     0.240 C 
ENDROOT
BRANCH   1   2
HETATM    2  N   UNL     1      40.138 -13.354   0.737  1.00  0.00    -0.259 N 
HETATM    3  C   UNL     1      40.466 -12.239   0.033  1.00  0.00     0.326 A 
HETATM    4  N   UNL     1      39.908 -11.144   0.648  1.00  0.00    -0.321 N 
HETATM    5  O   UNL     1      41.203 -12.170  -0.936  1.00  0.00    -0.247 OA
HETATM    6  C   UNL     1      39.231 -11.487   1.885  1.00  0.00     0.140 A 
HETATM    7  H   UNL     1      40.133 -10.203   0.354  1.00  0.00     0.165 HD
HETATM    8  C   UNL     1      37.739 -11.186   1.736  1.00  0.00     0.054 C 
HETATM    9  C   UNL     1      39.439 -13.023   1.866  1.00  0.00     0.261 A 
HETATM   10  O   UNL     1      39.093 -13.803   2.745  1.00  0.00    -0.270 OA
BRANCH   6  11
HETATM   11  C   UNL     1      39.942 -10.869   3.092  1.00  0.00    -0.020 A 
HETATM   12  C   UNL     1      39.306 -10.699   4.336  1.00  0.00     0.022 A 
HETATM   13  C   UNL     1      39.997 -10.218   5.467  1.00  0.00    -0.025 A 
HETATM   14  C   UNL     1      41.365  -9.890   5.356  1.00  0.00    -0.026 A 
HETATM   15  C   UNL     1      39.361 -10.075   6.710  1.00  0.00     0.012 A 
HETATM   16  C   UNL     1      42.001 -10.032   4.118  1.00  0.00     0.013 A 
HETATM   17  C   UNL     1      42.063  -9.440   6.489  1.00  0.00     0.012 A 
HETATM   18  C   UNL     1      41.301 -10.511   3.007  1.00  0.00     0.011 A 
HETATM   19  C   UNL     1      41.417  -9.309   7.719  1.00  0.00     0.001 A 
HETATM   20  C   UNL     1      40.065  -9.624   7.829  1.00  0.00     0.001 A 
ENDBRANCH   6  11
ENDBRANCH   1   2
BRANCH   1  21
HETATM   21  C   UNL     1      41.856 -15.008   1.484  1.00  0.00     0.240 C 
HETATM   22  N   UNL     1      41.529 -16.133   2.231  1.00  0.00    -0.325 N 
HETATM   23  H   UNL     1      40.538 -16.291   2.378  1.00  0.00     0.169 HD
HETATM   24  O   UNL     1      42.876 -14.339   1.626  1.00  0.00    -0.271 OA
BRANCH  22  25
HETATM   25  C   UNL     1      42.396 -16.854   3.079  1.00  0.00     0.050 A 
HETATM   26  C   UNL     1      42.582 -16.627   4.450  1.00  0.00     0.058 A 
HETATM   27  C   UNL     1      43.506 -17.397   5.179  1.00  0.00     0.019 A 
HETATM   28  C   UNL     1      44.248 -18.395   4.549  1.00  0.00     0.001 A 
HETATM   29  C   UNL     1      44.088 -18.611   3.185  1.00  0.00     0.002 A 
HETATM   30  C   UNL     1      43.178 -17.839   2.455  1.00  0.00     0.030 A 
BRANCH  26  31
HETATM   31  C   UNL     1      42.056 -15.453   5.175  1.00  0.00     0.254 C 
HETATM   32  N   UNL     1      43.003 -14.728   5.854  1.00  0.00    -0.351 N 
HETATM   33  H   UNL     1      43.751 -15.288   6.255  1.00  0.00     0.163 HD
HETATM   34  O   UNL     1      40.877 -15.147   5.056  1.00  0.00    -0.268 OA
BRANCH  32  35
HETATM   35  C   UNL     1      42.608 -13.572   6.624  1.00  0.00     0.187 C 
BRANCH  35  36
HETATM   36  C   UNL     1      43.742 -12.615   6.636  1.00  0.00     0.070 A 
HETATM   37  O   UNL     1      44.105 -12.100   7.846  1.00  0.00    -0.325 OA
HETATM   38  C   UNL     1      45.159 -11.273   7.627  1.00  0.00     0.142 A 
HETATM   39  C   UNL     1      45.482 -11.247   6.291  1.00  0.00     0.027 A 
HETATM   40  C   UNL     1      44.565 -12.111   5.647  1.00  0.00     0.036 A 
ENDBRANCH  35  36
ENDBRANCH  32  35
ENDBRANCH  26  31
ENDBRANCH  22  25
ENDBRANCH   1  21
TORSDOF 7
ENDMDL
MODEL 10
REMARK VINA RESULT:     -10.1      3.128      9.499
REMARK  7 active torsions:
REMARK  status: ('A' for Active; 'I' for Inactive)
REMARK    1  A    between atoms: C_2  and  C_3 
REMARK    2  A    between atoms: N_16  and  C_17 
REMARK    3  A    between atoms: C_17  and  C_18 
REMARK       I    between atoms: C_18  and  N_19 
REMARK    4  A    between atoms: N_19  and  C_20 
REMARK    5  A    between atoms: C_21  and  C_22 
REMARK       I    between atoms: C_22  and  N_23 
REMARK    6  A    between atoms: N_23  and  C_24 
REMARK    7  A    between atoms: C_24  and  C_25 
ROOT
HETATM    1  C   UNL     1      40.993  -9.621   2.503  1.00  0.00     0.240 C 
ENDROOT
BRANCH   1   2
HETATM    2  N   UNL     1      41.208 -10.664   3.474  1.00  0.00    -0.259 N 
HETATM    3  C   UNL     1      40.313 -11.004   4.438  1.00  0.00     0.326 A 
HETATM    4  N   UNL     1      40.922 -11.855   5.330  1.00  0.00    -0.321 N 
HETATM    5  O   UNL     1      39.179 -10.576   4.575  1.00  0.00    -0.247 OA
HETATM    6  C   UNL     1      42.328 -12.057   5.033  1.00  0.00     0.140 A 
HETATM    7  H   UNL     1      40.467 -12.129   6.190  1.00  0.00     0.165 HD
HETATM    8  C   UNL     1      42.555 -13.526   4.675  1.00  0.00     0.054 C 
HETATM    9  C   UNL     1      42.436 -11.202   3.745  1.00  0.00     0.261 A 
HETATM   10  O   UNL     1      43.462 -10.991   3.110  1.00  0.00    -0.270 OA
BRANCH   6  11
HETATM   11  C   UNL     1      43.213 -11.470   6.136  1.00  0.00    -0.020 A 
HETATM   12  C   UNL     1      42.711 -10.604   7.125  1.00  0.00     0.022 A 
HETATM   13  C   UNL     1      43.513 -10.146   8.190  1.00  0.00    -0.025 A 
HETATM   14  C   UNL     1      44.860 -10.557   8.272  1.00  0.00    -0.026 A 
HETATM   15  C   UNL     1      42.997  -9.301   9.186  1.00  0.00     0.012 A 
HETATM   16  C   UNL     1      45.376 -11.399   7.281  1.00  0.00     0.013 A 
HETATM   17  C   UNL     1      45.652 -10.126   9.350  1.00  0.00     0.012 A 
HETATM   18  C   UNL     1      44.567 -11.844   6.231  1.00  0.00     0.011 A 
HETATM   19  C   UNL     1      45.122  -9.293  10.334  1.00  0.00     0.001 A 
HETATM   20  C   UNL     1      43.796  -8.877  10.251  1.00  0.00     0.001 A 
ENDBRANCH   6  11
ENDBRANCH   1   2
BRANCH   1  21
HETATM   21  C   UNL     1      40.416 -10.102   1.171  1.00  0.00     0.240 C 
HETATM   22  N   UNL     1      41.233 -11.072   0.602  1.00  0.00    -0.325 N 
HETATM   23  H   UNL     1      42.215 -11.020   0.851  1.00  0.00     0.169 HD
HETATM   24  O   UNL     1      39.409  -9.634   0.649  1.00  0.00    -0.271 OA
BRANCH  22  25
HETATM   25  C   UNL     1      40.927 -11.869  -0.521  1.00  0.00     0.050 A 
HETATM   26  C   UNL     1      40.274 -13.109  -0.496  1.00  0.00     0.058 A 
HETATM   27  C   UNL     1      40.057 -13.823  -1.688  1.00  0.00     0.019 A 
HETATM   28  C   UNL     1      40.490 -13.307  -2.909  1.00  0.00     0.001 A 
HETATM   29  C   UNL     1      41.161 -12.090  -2.941  1.00  0.00     0.002 A 
HETATM   30  C   UNL     1      41.387 -11.383  -1.756  1.00  0.00     0.030 A 
BRANCH  26  31
HETATM   31  C   UNL     1      39.995 -13.874   0.736  1.00  0.00     0.254 C 
HETATM   32  N   UNL     1      40.370 -15.193   0.687  1.00  0.00    -0.351 N 
HETATM   33  H   UNL     1      40.257 -15.627  -0.226  1.00  0.00     0.163 HD
HETATM   34  O   UNL     1      39.557 -13.296   1.722  1.00  0.00    -0.268 OA
BRANCH  32  35
HETATM   35  C   UNL     1      40.125 -16.053   1.821  1.00  0.00     0.187 C 
BRANCH  35  36
HETATM   36  C   UNL     1      41.436 -16.459   2.386  1.00  0.00     0.070 A 
HETATM   37  O   UNL     1      41.472 -16.756   3.717  1.00  0.00    -0.325 OA
HETATM   38  C   UNL     1      42.748 -17.113   4.010  1.00  0.00     0.142 A 
HETATM   39  C   UNL     1      43.537 -17.052   2.886  1.00  0.00     0.027 A 
HETATM   40  C   UNL     1      42.692 -16.625   1.835  1.00  0.00     0.036 A 
ENDBRANCH  35  36
ENDBRANCH  32  35
ENDBRANCH  26  31
ENDBRANCH  22  25
ENDBRANCH   1  21
TORSDOF 7
ENDMDL
