MODEL 1
REMARK VINA RESULT:      -8.8      0.000      0.000
REMARK  4 active torsions:
REMARK  status: ('A' for Active; 'I' for Inactive)
REMARK    1  A    between atoms: C_3  and  N_4 
REMARK       I    between atoms: N_4  and  C_5 
REMARK    2  A    between atoms: C_5  and  C_6 
REMARK    3  A    between atoms: C_7  and  C_8 
REMARK    4  A    between atoms: C_19  and  C_20 
ROOT
HETATM    1  N   UNL     1      44.412 -12.092   6.165  1.00  0.00    -0.324 N 
HETATM    2  C   UNL     1      43.409 -11.877   5.241  1.00  0.00     0.245 C 
HETATM    3  O   UNL     1      42.727 -10.869   5.111  1.00  0.00    -0.268 OA
HETATM    4  H   UNL     1      44.913 -12.968   6.113  1.00  0.00     0.169 HD
ENDROOT
BRANCH   1   5
HETATM    5  C   UNL     1      44.817 -11.221   7.203  1.00  0.00     0.035 A 
HETATM    6  C   UNL     1      45.954 -10.416   7.143  1.00  0.00     0.029 A 
HETATM    7  C   UNL     1      46.274  -9.561   8.198  1.00  0.00     0.003 A 
HETATM    8  C   UNL     1      45.459  -9.504   9.329  1.00  0.00     0.012 A 
HETATM    9  C   UNL     1      44.317 -10.306   9.417  1.00  0.00    -0.021 A 
HETATM   10  C   UNL     1      44.004 -11.160   8.346  1.00  0.00     0.042 A 
BRANCH   9  11
HETATM   11  C   UNL     1      43.473 -10.238  10.597  1.00  0.00     0.010 A 
HETATM   12  C   UNL     1      42.337  -9.442  10.876  1.00  0.00     0.152 A 
HETATM   13  N   UNL     1      41.841  -9.655  12.098  1.00  0.00    -0.187 NA
HETATM   14  N   UNL     1      42.665 -10.582  12.612  1.00  0.00    -0.289 N 
HETATM   15  H   UNL     1      42.493 -10.903  13.559  1.00  0.00     0.188 HD
HETATM   16  C   UNL     1      43.656 -10.965  11.755  1.00  0.00     0.123 A 
ENDBRANCH   9  11
ENDBRANCH   1   5
BRANCH   2  17
HETATM   17  C   UNL     1      43.205 -13.060   4.354  1.00  0.00     0.075 C 
HETATM   18  C   UNL     1      43.126 -14.286   4.896  1.00  0.00     0.017 C 
BRANCH  18  19
HETATM   19  C   UNL     1      42.962 -15.530   4.133  1.00  0.00    -0.035 A 
HETATM   20  C   UNL     1      43.675 -16.668   4.547  1.00  0.00     0.021 A 
HETATM   21  C   UNL     1      43.580 -17.826   3.793  1.00  0.00    -0.022 A 
HETATM   22  C   UNL     1      42.793 -17.871   2.654  1.00  0.00     0.075 A 
HETATM   23  C   UNL     1      44.171 -19.161   4.028  1.00  0.00     0.068 C 
HETATM   24  O   UNL     1      42.803 -19.089   2.027  1.00  0.00    -0.350 OA
HETATM   25  C   UNL     1      42.075 -16.777   2.222  1.00  0.00     0.038 A 
HETATM   26  C   UNL     1      43.906 -19.783   2.657  1.00  0.00     0.180 C 
HETATM   27  C   UNL     1      42.174 -15.595   2.963  1.00  0.00     0.014 A 
ENDBRANCH  18  19
ENDBRANCH   2  17
TORSDOF 4
ENDMDL
MODEL 2
REMARK VINA RESULT:      -8.7      3.301      9.618
REMARK  4 active torsions:
REMARK  status: ('A' for Active; 'I' for Inactive)
REMARK    1  A    between atoms: C_3  and  N_4 
REMARK       I    between atoms: N_4  and  C_5 
REMARK    2  A    between atoms: C_5  and  C_6 
REMARK    3  A    between atoms: C_7  and  C_8 
REMARK    4  A    between atoms: C_19  and  C_20 
ROOT
HETATM    1  N   UNL     1      43.323 -14.433   4.644  1.00  0.00    -0.324 N 
HETATM    2  C   UNL     1      43.013 -14.442   5.990  1.00  0.00     0.245 C 
HETATM    3  O   UNL     1      42.667 -15.405   6.662  1.00  0.00    -0.268 OA
HETATM    4  H   UNL     1      43.635 -13.559   4.245  1.00  0.00     0.169 HD
ENDROOT
BRANCH   1   5
HETATM    5  C   UNL     1      43.241 -15.518   3.743  1.00  0.00     0.035 A 
HETATM    6  C   UNL     1      42.926 -15.384   2.390  1.00  0.00     0.029 A 
HETATM    7  C   UNL     1      42.891 -16.503   1.556  1.00  0.00     0.003 A 
HETATM    8  C   UNL     1      43.168 -17.770   2.067  1.00  0.00     0.012 A 
HETATM    9  C   UNL     1      43.481 -17.932   3.421  1.00  0.00    -0.021 A 
HETATM   10  C   UNL     1      43.517 -16.798   4.249  1.00  0.00     0.042 A 
BRANCH   9  11
HETATM   11  C   UNL     1      43.772 -19.257   3.943  1.00  0.00     0.010 A 
HETATM   12  C   UNL     1      44.114 -19.680   5.249  1.00  0.00     0.152 A 
HETATM   13  N   UNL     1      44.329 -20.996   5.328  1.00  0.00    -0.187 NA
HETATM   14  N   UNL     1      44.135 -21.421   4.069  1.00  0.00    -0.289 N 
HETATM   15  H   UNL     1      44.256 -22.409   3.873  1.00  0.00     0.188 HD
HETATM   16  C   UNL     1      43.798 -20.421   3.203  1.00  0.00     0.123 A 
ENDBRANCH   9  11
ENDBRANCH   1   5
BRANCH   2  17
HETATM   17  C   UNL     1      43.135 -13.086   6.599  1.00  0.00     0.075 C 
HETATM   18  C   UNL     1      44.349 -12.525   6.725  1.00  0.00     0.017 C 
BRANCH  18  19
HETATM   19  C   UNL     1      44.606 -11.214   7.337  1.00  0.00    -0.035 A 
HETATM   20  C   UNL     1      43.511 -10.464   7.797  1.00  0.00     0.021 A 
HETATM   21  C   UNL     1      43.738  -9.199   8.313  1.00  0.00    -0.022 A 
HETATM   22  C   UNL     1      45.020  -8.679   8.383  1.00  0.00     0.075 A 
HETATM   23  C   UNL     1      42.788  -8.233   8.908  1.00  0.00     0.068 C 
HETATM   24  O   UNL     1      45.073  -7.421   8.922  1.00  0.00    -0.350 OA
HETATM   25  C   UNL     1      46.118  -9.388   7.946  1.00  0.00     0.038 A 
HETATM   26  C   UNL     1      43.689  -6.998   8.930  1.00  0.00     0.180 C 
HETATM   27  C   UNL     1      45.904 -10.661   7.408  1.00  0.00     0.014 A 
ENDBRANCH  18  19
ENDBRANCH   2  17
TORSDOF 4
ENDMDL
MODEL 3
REMARK VINA RESULT:      -8.6      6.597      8.430
REMARK  4 active torsions:
REMARK  status: ('A' for Active; 'I' for Inactive)
REMARK    1  A    between atoms: C_3  and  N_4 
REMARK       I    between atoms: N_4  and  C_5 
REMARK    2  A    between atoms: C_5  and  C_6 
REMARK    3  A    between atoms: C_7  and  C_8 
REMARK    4  A    between atoms: C_19  and  C_20 
ROOT
HETATM    1  N   UNL     1      40.926 -13.892  -0.240  1.00  0.00    -0.324 N 
HETATM    2  C   UNL     1      40.361 -14.107   1.001  1.00  0.00     0.245 C 
HETATM    3  O   UNL     1      39.522 -13.414   1.562  1.00  0.00    -0.268 OA
HETATM    4  H   UNL     1      41.576 -14.586  -0.582  1.00  0.00     0.169 HD
ENDROOT
BRANCH   1   5
HETATM    5  C   UNL     1      40.707 -12.790  -1.098  1.00  0.00     0.035 A 
HETATM    6  C   UNL     1      39.950 -12.853  -2.268  1.00  0.00     0.029 A 
HETATM    7  C   UNL     1      39.756 -11.713  -3.049  1.00  0.00     0.003 A 
HETATM    8  C   UNL     1      40.322 -10.496  -2.670  1.00  0.00     0.012 A 
HETATM    9  C   UNL     1      41.090 -10.408  -1.505  1.00  0.00    -0.021 A 
HETATM   10  C   UNL     1      41.274 -11.561  -0.724  1.00  0.00     0.042 A 
BRANCH   9  11
HETATM   11  C   UNL     1      41.673  -9.134  -1.116  1.00  0.00     0.010 A 
HETATM   12  C   UNL     1      42.717  -8.379  -1.700  1.00  0.00     0.152 A 
HETATM   13  N   UNL     1      42.982  -7.255  -1.028  1.00  0.00    -0.187 NA
HETATM   14  N   UNL     1      42.115  -7.291  -0.004  1.00  0.00    -0.289 N 
HETATM   15  H   UNL     1      42.134  -6.529   0.666  1.00  0.00     0.188 HD
HETATM   16  C   UNL     1      41.308  -8.392  -0.012  1.00  0.00     0.123 A 
ENDBRANCH   9  11
ENDBRANCH   1   5
BRANCH   2  17
HETATM   17  C   UNL     1      40.900 -15.336   1.653  1.00  0.00     0.075 C 
HETATM   18  C   UNL     1      42.163 -15.343   2.109  1.00  0.00     0.017 C 
BRANCH  18  19
HETATM   19  C   UNL     1      42.821 -16.497   2.736  1.00  0.00    -0.035 A 
HETATM   20  C   UNL     1      42.792 -17.730   2.065  1.00  0.00     0.021 A 
HETATM   21  C   UNL     1      43.350 -18.839   2.680  1.00  0.00    -0.022 A 
HETATM   22  C   UNL     1      43.934 -18.739   3.931  1.00  0.00     0.075 A 
HETATM   23  C   UNL     1      43.501 -20.223   2.182  1.00  0.00     0.068 C 
HETATM   24  O   UNL     1      44.442 -19.923   4.397  1.00  0.00    -0.350 OA
HETATM   25  C   UNL     1      43.986 -17.545   4.617  1.00  0.00     0.038 A 
HETATM   26  C   UNL     1      43.883 -20.908   3.495  1.00  0.00     0.180 C 
HETATM   27  C   UNL     1      43.413 -16.419   4.016  1.00  0.00     0.014 A 
ENDBRANCH  18  19
ENDBRANCH   2  17
TORSDOF 4
ENDMDL
MODEL 4
REMARK VINA RESULT:      -8.3      3.089      9.516
REMARK  4 active torsions:
REMARK  status: ('A' for Active; 'I' for Inactive)
REMARK    1  A    between atoms: C_3  and  N_4 
REMARK       I    between atoms: N_4  and  C_5 
REMARK    2  A    between atoms: C_5  and  C_6 
REMARK    3  A    between atoms: C_7  and  C_8 
REMARK    4  A    between atoms: C_19  and  C_20 
ROOT
HETATM    1  N   UNL     1      42.878 -13.088   4.696  1.00  0.00    -0.324 N 
HETATM    2  C   UNL     1      43.615 -11.921   4.742  1.00  0.00     0.245 C 
HETATM    3  O   UNL     1      44.365 -11.486   3.878  1.00  0.00    -0.268 OA
HETATM    4  H   UNL     1      42.269 -13.284   5.478  1.00  0.00     0.169 HD
ENDROOT
BRANCH   1   5
HETATM    5  C   UNL     1      42.886 -14.062   3.672  1.00  0.00     0.035 A 
HETATM    6  C   UNL     1      42.620 -13.783   2.331  1.00  0.00     0.029 A 
HETATM    7  C   UNL     1      42.674 -14.796   1.372  1.00  0.00     0.003 A 
HETATM    8  C   UNL     1      42.992 -16.102   1.745  1.00  0.00     0.012 A 
HETATM    9  C   UNL     1      43.256 -16.409   3.084  1.00  0.00    -0.021 A 
HETATM   10  C   UNL     1      43.203 -15.380   4.039  1.00  0.00     0.042 A 
BRANCH   9  11
HETATM   11  C   UNL     1      43.589 -17.771   3.463  1.00  0.00     0.010 A 
HETATM   12  C   UNL     1      43.574 -18.969   2.710  1.00  0.00     0.152 A 
HETATM   13  N   UNL     1      43.932 -20.038   3.428  1.00  0.00    -0.187 NA
HETATM   14  N   UNL     1      44.168 -19.529   4.648  1.00  0.00    -0.289 N 
HETATM   15  H   UNL     1      44.450 -20.166   5.386  1.00  0.00     0.188 HD
HETATM   16  C   UNL     1      43.980 -18.179   4.721  1.00  0.00     0.123 A 
ENDBRANCH   9  11
ENDBRANCH   1   5
BRANCH   2  17
HETATM   17  C   UNL     1      43.414 -11.185   6.024  1.00  0.00     0.075 C 
HETATM   18  C   UNL     1      44.392 -11.182   6.945  1.00  0.00     0.017 C 
BRANCH  18  19
HETATM   19  C   UNL     1      44.304 -10.526   8.257  1.00  0.00    -0.035 A 
HETATM   20  C   UNL     1      43.078  -9.960   8.641  1.00  0.00     0.021 A 
HETATM   21  C   UNL     1      43.004  -9.281   9.846  1.00  0.00    -0.022 A 
HETATM   22  C   UNL     1      44.115  -9.164  10.666  1.00  0.00     0.075 A 
HETATM   23  C   UNL     1      41.843  -8.647  10.508  1.00  0.00     0.068 C 
HETATM   24  O   UNL     1      43.875  -8.468  11.821  1.00  0.00    -0.350 OA
HETATM   25  C   UNL     1      45.332  -9.712  10.324  1.00  0.00     0.038 A 
HETATM   26  C   UNL     1      42.587  -7.851  11.581  1.00  0.00     0.180 C 
HETATM   27  C   UNL     1      45.427 -10.387   9.103  1.00  0.00     0.014 A 
ENDBRANCH  18  19
ENDBRANCH   2  17
TORSDOF 4
ENDMDL
MODEL 5
REMARK VINA RESULT:      -8.3      5.563      9.298
REMARK  4 active torsions:
REMARK  status: ('A' for Active; 'I' for Inactive)
REMARK    1  A    between atoms: C_3  and  N_4 
REMARK       I    between atoms: N_4  and  C_5 
REMARK    2  A    between atoms: C_5  and  C_6 
REMARK    3  A    between atoms: C_7  and  C_8 
REMARK    4  A    between atoms: C_19  and  C_20 
ROOT
HETATM    1  N   UNL     1      41.809 -14.864   2.824  1.00  0.00    -0.324 N 
HETATM    2  C   UNL     1      40.483 -15.054   2.488  1.00  0.00     0.245 C 
HETATM    3  O   UNL     1      39.730 -15.921   2.914  1.00  0.00    -0.268 OA
HETATM    4  H   UNL     1      42.283 -14.071   2.414  1.00  0.00     0.169 HD
ENDROOT
BRANCH   1   5
HETATM    5  C   UNL     1      42.597 -15.670   3.676  1.00  0.00     0.035 A 
HETATM    6  C   UNL     1      43.141 -15.226   4.882  1.00  0.00     0.029 A 
HETATM    7  C   UNL     1      43.888 -16.091   5.683  1.00  0.00     0.003 A 
HETATM    8  C   UNL     1      44.102 -17.411   5.285  1.00  0.00     0.012 A 
HETATM    9  C   UNL     1      43.573 -17.878   4.077  1.00  0.00    -0.021 A 
HETATM   10  C   UNL     1      42.819 -16.999   3.282  1.00  0.00     0.042 A 
BRANCH   9  11
HETATM   11  C   UNL     1      43.798 -19.255   3.673  1.00  0.00     0.010 A 
HETATM   12  C   UNL     1      43.721 -19.868   2.400  1.00  0.00     0.152 A 
HETATM   13  N   UNL     1      43.982 -21.178   2.439  1.00  0.00    -0.187 NA
HETATM   14  N   UNL     1      44.217 -21.412   3.740  1.00  0.00    -0.289 N 
HETATM   15  H   UNL     1      44.432 -22.362   4.025  1.00  0.00     0.188 HD
HETATM   16  C   UNL     1      44.122 -20.295   4.519  1.00  0.00     0.123 A 
ENDBRANCH   9  11
ENDBRANCH   1   5
BRANCH   2  17
HETATM   17  C   UNL     1      40.011 -14.052   1.489  1.00  0.00     0.075 C 
HETATM   18  C   UNL     1      40.288 -14.235   0.188  1.00  0.00     0.017 C 
BRANCH  18  19
HETATM   19  C   UNL     1      39.911 -13.307  -0.887  1.00  0.00    -0.035 A 
HETATM   20  C   UNL     1      40.724 -12.185  -1.117  1.00  0.00     0.021 A 
HETATM   21  C   UNL     1      40.340 -11.269  -2.082  1.00  0.00    -0.022 A 
HETATM   22  C   UNL     1      39.180 -11.453  -2.816  1.00  0.00     0.075 A 
HETATM   23  C   UNL     1      41.027 -10.049  -2.558  1.00  0.00     0.068 C 
HETATM   24  O   UNL     1      38.946 -10.462  -3.732  1.00  0.00    -0.350 OA
HETATM   25  C   UNL     1      38.362 -12.545  -2.622  1.00  0.00     0.038 A 
HETATM   26  C   UNL     1      39.879  -9.423  -3.351  1.00  0.00     0.180 C 
HETATM   27  C   UNL     1      38.727 -13.471  -1.640  1.00  0.00     0.014 A 
ENDBRANCH  18  19
ENDBRANCH   2  17
TORSDOF 4
ENDMDL
MODEL 6
REMARK VINA RESULT:      -8.1      6.506      9.442
REMARK  4 active torsions:
REMARK  status: ('A' for Active; 'I' for Inactive)
REMARK    1  A    between atoms: C_3  and  N_4 
REMARK       I    between atoms: N_4  and  C_5 
REMARK    2  A    between atoms: C_5  and  C_6 
REMARK    3  A    between atoms: C_7  and  C_8 
REMARK    4  A    between atoms: C_19  and  C_20 
ROOT
HETATM    1  N   UNL     1      41.169 -13.465  -0.180  1.00  0.00    -0.324 N 
HETATM    2  C   UNL     1      41.267 -13.672   1.181  1.00  0.00     0.245 C 
HETATM    3  O   UNL     1      40.875 -12.930   2.072  1.00  0.00    -0.268 OA
HETATM    4  H   UNL     1      41.505 -14.199  -0.788  1.00  0.00     0.169 HD
ENDROOT
BRANCH   1   5
HETATM    5  C   UNL     1      40.656 -12.322  -0.835  1.00  0.00     0.035 A 
HETATM    6  C   UNL     1      41.344 -11.112  -0.940  1.00  0.00     0.029 A 
HETATM    7  C   UNL     1      40.782 -10.035  -1.626  1.00  0.00     0.003 A 
HETATM    8  C   UNL     1      39.522 -10.155  -2.213  1.00  0.00     0.012 A 
HETATM    9  C   UNL     1      38.810 -11.354  -2.116  1.00  0.00    -0.021 A 
HETATM   10  C   UNL     1      39.388 -12.433  -1.426  1.00  0.00     0.042 A 
BRANCH   9  11
HETATM   11  C   UNL     1      37.499 -11.470  -2.733  1.00  0.00     0.010 A 
HETATM   12  C   UNL     1      36.580 -10.476  -3.143  1.00  0.00     0.152 A 
HETATM   13  N   UNL     1      35.458 -10.988  -3.657  1.00  0.00    -0.187 NA
HETATM   14  N   UNL     1      35.650 -12.313  -3.569  1.00  0.00    -0.289 N 
HETATM   15  H   UNL     1      34.910 -12.927  -3.896  1.00  0.00     0.188 HD
HETATM   16  C   UNL     1      36.855 -12.654  -3.027  1.00  0.00     0.123 A 
ENDBRANCH   9  11
ENDBRANCH   1   5
BRANCH   2  17
HETATM   17  C   UNL     1      41.945 -14.962   1.501  1.00  0.00     0.075 C 
HETATM   18  C   UNL     1      42.188 -15.281   2.783  1.00  0.00     0.017 C 
BRANCH  18  19
HETATM   19  C   UNL     1      42.877 -16.500   3.227  1.00  0.00    -0.035 A 
HETATM   20  C   UNL     1      42.771 -17.654   2.434  1.00  0.00     0.021 A 
HETATM   21  C   UNL     1      43.360 -18.826   2.879  1.00  0.00    -0.022 A 
HETATM   22  C   UNL     1      44.048 -18.865   4.080  1.00  0.00     0.075 A 
HETATM   23  C   UNL     1      43.448 -20.151   2.226  1.00  0.00     0.068 C 
HETATM   24  O   UNL     1      44.574 -20.095   4.373  1.00  0.00    -0.350 OA
HETATM   25  C   UNL     1      44.176 -17.751   4.882  1.00  0.00     0.038 A 
HETATM   26  C   UNL     1      43.926 -20.974   3.422  1.00  0.00     0.180 C 
HETATM   27  C   UNL     1      43.574 -16.564   4.454  1.00  0.00     0.014 A 
ENDBRANCH  18  19
ENDBRANCH   2  17
TORSDOF 4
ENDMDL
MODEL 7
REMARK VINA RESULT:      -8.1      1.984      2.768
REMARK  4 active torsions:
REMARK  status: ('A' for Active; 'I' for Inactive)
REMARK    1  A    between atoms: C_3  and  N_4 
REMARK       I    between atoms: N_4  and  C_5 
REMARK    2  A    between atoms: C_5  and  C_6 
REMARK    3  A    between atoms: C_7  and  C_8 
REMARK    4  A    between atoms: C_19  and  C_20 
ROOT
HETATM    1  N   UNL     1      43.692 -10.526   7.991  1.00  0.00    -0.324 N 
HETATM    2  C   UNL     1      44.874 -11.211   7.790  1.00  0.00     0.245 C 
HETATM    3  O   UNL     1      45.948 -11.008   8.340  1.00  0.00    -0.268 OA
HETATM    4  H   UNL     1      42.877 -10.847   7.487  1.00  0.00     0.169 HD
ENDROOT
BRANCH   1   5
HETATM    5  C   UNL     1      43.489  -9.400   8.821  1.00  0.00     0.035 A 
HETATM    6  C   UNL     1      43.801  -8.092   8.449  1.00  0.00     0.029 A 
HETATM    7  C   UNL     1      43.545  -7.029   9.316  1.00  0.00     0.003 A 
HETATM    8  C   UNL     1      42.978  -7.263  10.568  1.00  0.00     0.012 A 
HETATM    9  C   UNL     1      42.662  -8.565  10.968  1.00  0.00    -0.021 A 
HETATM   10  C   UNL     1      42.920  -9.627  10.085  1.00  0.00     0.042 A 
BRANCH   9  11
HETATM   11  C   UNL     1      42.068  -8.798  12.273  1.00  0.00     0.010 A 
HETATM   12  C   UNL     1      42.462  -8.361  13.560  1.00  0.00     0.152 A 
HETATM   13  N   UNL     1      41.658  -8.808  14.529  1.00  0.00    -0.187 NA
HETATM   14  N   UNL     1      40.750  -9.542  13.867  1.00  0.00    -0.289 N 
HETATM   15  H   UNL     1      40.023 -10.003  14.405  1.00  0.00     0.188 HD
HETATM   16  C   UNL     1      40.948  -9.567  12.517  1.00  0.00     0.123 A 
ENDBRANCH   9  11
ENDBRANCH   1   5
BRANCH   2  17
HETATM   17  C   UNL     1      44.725 -12.292   6.772  1.00  0.00     0.075 C 
HETATM   18  C   UNL     1      43.666 -13.115   6.832  1.00  0.00     0.017 C 
BRANCH  18  19
HETATM   19  C   UNL     1      43.424 -14.236   5.914  1.00  0.00    -0.035 A 
HETATM   20  C   UNL     1      43.917 -15.504   6.262  1.00  0.00     0.021 A 
HETATM   21  C   UNL     1      43.753 -16.552   5.370  1.00  0.00    -0.022 A 
HETATM   22  C   UNL     1      43.109 -16.361   4.159  1.00  0.00     0.075 A 
HETATM   23  C   UNL     1      44.120 -17.979   5.506  1.00  0.00     0.068 C 
HETATM   24  O   UNL     1      43.025 -17.496   3.397  1.00  0.00    -0.350 OA
HETATM   25  C   UNL     1      42.608 -15.133   3.787  1.00  0.00     0.038 A 
HETATM   26  C   UNL     1      43.938 -18.410   4.050  1.00  0.00     0.180 C 
HETATM   27  C   UNL     1      42.780 -14.061   4.669  1.00  0.00     0.014 A 
ENDBRANCH  18  19
ENDBRANCH   2  17
TORSDOF 4
ENDMDL
MODEL 8
REMARK VINA RESULT:      -8.0      3.199     10.007
REMARK  4 active torsions:
REMARK  status: ('A' for Active; 'I' for Inactive)
REMARK    1  A    between atoms: C_3  and  N_4 
REMARK       I    between atoms: N_4  and  C_5 
REMARK    2  A    between atoms: C_5  and  C_6 
REMARK    3  A    between atoms: C_7  and  C_8 
REMARK    4  A    between atoms: C_19  and  C_20 
ROOT
HETATM    1  N   UNL     1      43.138 -12.914   7.397  1.00  0.00    -0.324 N 
HETATM    2  C   UNL     1      44.156 -11.988   7.287  1.00  0.00     0.245 C 
HETATM    3  O   UNL     1      45.257 -12.157   6.780  1.00  0.00    -0.268 OA
HETATM    4  H   UNL     1      42.268 -12.603   7.806  1.00  0.00     0.169 HD
ENDROOT
BRANCH   1   5
HETATM    5  C   UNL     1      43.176 -14.274   7.011  1.00  0.00     0.035 A 
HETATM    6  C   UNL     1      43.160 -15.339   7.912  1.00  0.00     0.029 A 
HETATM    7  C   UNL     1      43.173 -16.657   7.452  1.00  0.00     0.003 A 
HETATM    8  C   UNL     1      43.206 -16.924   6.084  1.00  0.00     0.012 A 
HETATM    9  C   UNL     1      43.229 -15.874   5.160  1.00  0.00    -0.021 A 
HETATM   10  C   UNL     1      43.211 -14.552   5.636  1.00  0.00     0.042 A 
BRANCH   9  11
HETATM   11  C   UNL     1      43.260 -16.162   3.736  1.00  0.00     0.010 A 
HETATM   12  C   UNL     1      43.149 -15.303   2.617  1.00  0.00     0.152 A 
HETATM   13  N   UNL     1      43.204 -15.958   1.454  1.00  0.00    -0.187 NA
HETATM   14  N   UNL     1      43.339 -17.241   1.824  1.00  0.00    -0.289 N 
HETATM   15  H   UNL     1      43.393 -17.946   1.095  1.00  0.00     0.188 HD
HETATM   16  C   UNL     1      43.381 -17.417   3.176  1.00  0.00     0.123 A 
ENDBRANCH   9  11
ENDBRANCH   1   5
BRANCH   2  17
HETATM   17  C   UNL     1      43.780 -10.673   7.883  1.00  0.00     0.075 C 
HETATM   18  C   UNL     1      43.954 -10.471   9.200  1.00  0.00     0.017 C 
BRANCH  18  19
HETATM   19  C   UNL     1      43.592  -9.239   9.913  1.00  0.00    -0.035 A 
HETATM   20  C   UNL     1      43.599  -9.252  11.317  1.00  0.00     0.021 A 
HETATM   21  C   UNL     1      43.194  -8.116  11.998  1.00  0.00    -0.022 A 
HETATM   22  C   UNL     1      42.795  -6.981  11.312  1.00  0.00     0.075 A 
HETATM   23  C   UNL     1      43.156  -7.844  13.452  1.00  0.00     0.068 C 
HETATM   24  O   UNL     1      42.430  -5.944  12.130  1.00  0.00    -0.350 OA
HETATM   25  C   UNL     1      42.782  -6.929   9.935  1.00  0.00     0.038 A 
HETATM   26  C   UNL     1      42.316  -6.567  13.433  1.00  0.00     0.180 C 
HETATM   27  C   UNL     1      43.173  -8.074   9.233  1.00  0.00     0.014 A 
ENDBRANCH  18  19
ENDBRANCH   2  17
TORSDOF 4
ENDMDL
MODEL 9
REMARK VINA RESULT:      -7.9      5.418      8.511
REMARK  4 active torsions:
REMARK  status: ('A' for Active; 'I' for Inactive)
REMARK    1  A    between atoms: C_3  and  N_4 
REMARK       I    between atoms: N_4  and  C_5 
REMARK    2  A    between atoms: C_5  and  C_6 
REMARK    3  A    between atoms: C_7  and  C_8 
REMARK    4  A    between atoms: C_19  and  C_20 
ROOT
HETATM    1  N   UNL     1      42.100 -15.643   1.443  1.00  0.00    -0.324 N 
HETATM    2  C   UNL     1      40.761 -15.367   1.248  1.00  0.00     0.245 C 
HETATM    3  O   UNL     1      39.819 -15.770   1.918  1.00  0.00    -0.268 OA
HETATM    4  H   UNL     1      42.762 -15.195   0.824  1.00  0.00     0.169 HD
ENDROOT
BRANCH   1   5
HETATM    5  C   UNL     1      42.662 -16.503   2.413  1.00  0.00     0.035 A 
HETATM    6  C   UNL     1      43.221 -17.747   2.120  1.00  0.00     0.029 A 
HETATM    7  C   UNL     1      43.782 -18.529   3.132  1.00  0.00     0.003 A 
HETATM    8  C   UNL     1      43.785 -18.075   4.450  1.00  0.00     0.012 A 
HETATM    9  C   UNL     1      43.224 -16.835   4.772  1.00  0.00    -0.021 A 
HETATM   10  C   UNL     1      42.667 -16.056   3.744  1.00  0.00     0.042 A 
BRANCH   9  11
HETATM   11  C   UNL     1      43.235 -16.370   6.149  1.00  0.00     0.010 A 
HETATM   12  C   UNL     1      42.992 -15.087   6.692  1.00  0.00     0.152 A 
HETATM   13  N   UNL     1      43.119 -15.054   8.022  1.00  0.00    -0.187 NA
HETATM   14  N   UNL     1      43.455 -16.316   8.335  1.00  0.00    -0.289 N 
HETATM   15  H   UNL     1      43.619 -16.539   9.311  1.00  0.00     0.188 HD
HETATM   16  C   UNL     1      43.535 -17.143   7.252  1.00  0.00     0.123 A 
ENDBRANCH   9  11
ENDBRANCH   1   5
BRANCH   2  17
HETATM   17  C   UNL     1      40.540 -14.482   0.068  1.00  0.00     0.075 C 
HETATM   18  C   UNL     1      39.555 -13.569   0.102  1.00  0.00     0.017 C 
BRANCH  18  19
HETATM   19  C   UNL     1      39.214 -12.664  -1.004  1.00  0.00    -0.035 A 
HETATM   20  C   UNL     1      40.245 -11.922  -1.603  1.00  0.00     0.021 A 
HETATM   21  C   UNL     1      39.922 -11.016  -2.600  1.00  0.00    -0.022 A 
HETATM   22  C   UNL     1      38.610 -10.845  -3.009  1.00  0.00     0.075 A 
HETATM   23  C   UNL     1      40.803 -10.159  -3.424  1.00  0.00     0.068 C 
HETATM   24  O   UNL     1      38.461  -9.917  -4.005  1.00  0.00    -0.350 OA
HETATM   25  C   UNL     1      37.574 -11.560  -2.448  1.00  0.00     0.038 A 
HETATM   26  C   UNL     1      39.742  -9.242  -4.031  1.00  0.00     0.180 C 
HETATM   27  C   UNL     1      37.881 -12.467  -1.428  1.00  0.00     0.014 A 
ENDBRANCH  18  19
ENDBRANCH   2  17
TORSDOF 4
ENDMDL
MODEL 10
REMARK VINA RESULT:      -7.6      5.991      8.672
REMARK  4 active torsions:
REMARK  status: ('A' for Active; 'I' for Inactive)
REMARK    1  A    between atoms: C_3  and  N_4 
REMARK       I    between atoms: N_4  and  C_5 
REMARK    2  A    between atoms: C_5  and  C_6 
REMARK    3  A    between atoms: C_7  and  C_8 
REMARK    4  A    between atoms: C_19  and  C_20 
ROOT
HETATM    1  N   UNL     1      41.044 -12.824   1.108  1.00  0.00    -0.324 N 
HETATM    2  C   UNL     1      42.086 -12.992   1.998  1.00  0.00     0.245 C 
HETATM    3  O   UNL     1      42.690 -12.116   2.603  1.00  0.00    -0.268 OA
HETATM    4  H   UNL     1      40.621 -13.658   0.724  1.00  0.00     0.169 HD
ENDROOT
BRANCH   1   5
HETATM    5  C   UNL     1      40.500 -11.601   0.652  1.00  0.00     0.035 A 
HETATM    6  C   UNL     1      39.603 -10.827   1.388  1.00  0.00     0.029 A 
HETATM    7  C   UNL     1      39.130  -9.615   0.881  1.00  0.00     0.003 A 
HETATM    8  C   UNL     1      39.547  -9.167  -0.372  1.00  0.00     0.012 A 
HETATM    9  C   UNL     1      40.440  -9.928  -1.133  1.00  0.00    -0.021 A 
HETATM   10  C   UNL     1      40.913 -11.143  -0.609  1.00  0.00     0.042 A 
BRANCH   9  11
HETATM   11  C   UNL     1      40.872  -9.450  -2.435  1.00  0.00     0.010 A 
HETATM   12  C   UNL     1      41.535  -8.258  -2.809  1.00  0.00     0.152 A 
HETATM   13  N   UNL     1      41.744  -8.172  -4.126  1.00  0.00    -0.187 NA
HETATM   14  N   UNL     1      41.205  -9.304  -4.603  1.00  0.00    -0.289 N 
HETATM   15  H   UNL     1      41.232  -9.463  -5.605  1.00  0.00     0.188 HD
HETATM   16  C   UNL     1      40.672 -10.105  -3.634  1.00  0.00     0.123 A 
ENDBRANCH   9  11
ENDBRANCH   1   5
BRANCH   2  17
HETATM   17  C   UNL     1      42.445 -14.430   2.171  1.00  0.00     0.075 C 
HETATM   18  C   UNL     1      42.932 -14.853   3.349  1.00  0.00     0.017 C 
BRANCH  18  19
HETATM   19  C   UNL     1      43.354 -16.231   3.634  1.00  0.00    -0.035 A 
HETATM   20  C   UNL     1      43.209 -17.197   2.626  1.00  0.00     0.021 A 
HETATM   21  C   UNL     1      43.541 -18.512   2.909  1.00  0.00    -0.022 A 
HETATM   22  C   UNL     1      44.014 -18.873   4.159  1.00  0.00     0.075 A 
HETATM   23  C   UNL     1      43.536 -19.701   2.029  1.00  0.00     0.068 C 
HETATM   24  O   UNL     1      44.300 -20.208   4.274  1.00  0.00    -0.350 OA
HETATM   25  C   UNL     1      44.175 -17.951   5.170  1.00  0.00     0.038 A 
HETATM   26  C   UNL     1      43.690 -20.786   3.095  1.00  0.00     0.180 C 
HETATM   27  C   UNL     1      43.829 -16.622   4.906  1.00  0.00     0.014 A 
ENDBRANCH  18  19
ENDBRANCH   2  17
TORSDOF 4
ENDMDL
